# total energy = -340868.19153695996 ev
CRYSTAL
PRIMVEC
9.22100110220165 0.00000000000000 0.00000000000000
0.00000000000000 9.22100110220165 0.00000000000000
0.00000000000000 0.00000000000000 13.49586718614584
PRIMCOORD
 96 1
Ni 8.141092890320195 1.5288051196230623 11.822177439207477 0.2810115482262192 1.15984700465357 1.588714468155225
Ni 8.903540597871357 1.7466420526369786 8.054765876822215 0.05567363941322024 1.2090347792321308 -1.092898306547163
Ni 1.5481692222021863 5.523730133711067 10.357133698876856 -0.5773923798196572 -0.5997203538928962 0.6648898486116936
Ni 5.375484096966031 1.7004540574851537 8.351148220397672 -1.6537494941786872 -0.920620253673621 1.1340477842022791
Ni 6.490598217489181 5.559295535448057 8.269052724363291 -1.2757003988804803 0.24667677950009131 -0.9536023650265965
Ni 7.99828724429977 8.545037291121949 11.20511910222087 -1.7560740006812272 -0.19610472297949455 0.6086472240688808
Ni 4.612068184285913 0.31645277484865736 0.7742515112233228 -0.22762927595033697 -0.00869855621526244 1.0049663213208693
Ni 1.57517753479945 3.454021082044476 1.972839667464462 -0.004653182501295212 0.4603542212560265 -0.19721903908959584
Ni 6.42061081816749 5.325017557244343 12.463595817238627 0.2012279031386728 -0.35112450299322107 -0.24177291444057072
Ni 4.732586670337889 1.9799241627080528 6.125396775447641 -0.2218283529978438 -0.6129011142492284 3.5225941363964424
Ni 8.70359240724006 4.284501336656961 7.167614270761617 -0.0009081136365661779 -0.31433098831395545 -0.23285915689070866
Ni 2.3828173693697963 1.0998533634905547 10.77403452850429 2.070122167647441 -0.08776152108670048 -0.65033046274028
Ni 2.080967894166167 3.6535358856180493 6.91147698704644 -0.5195919238714213 0.574470835297488 1.0020779440294807
Ni 0.22358899358003867 0.8426916265389293 10.067174704756932 -0.7258532756689435 -0.4792389739756714 -1.7649774738184443
Ni 2.9023009155603225 3.4668382737516104 10.037308803879064 0.7100571891769513 0.09275717452907896 -0.46723783574973726
Ni 4.370321195087392 6.908835170194573 7.352886315838184 0.19931423105572768 0.6030774432905872 -0.5755951787099184
Ni 2.6393732865407324 4.10355762955689 13.257530477683565 -0.58770738859242 -1.7605898862737097 -0.9444011581433025
Ni 7.954358394448843 0.3820933941913962 3.6064469986462346 1.645833067545088 1.0664401123556344 -2.508103420524906
Ni 7.439623663890817 9.294031557881233 1.105337092920938 0.4283470722218107 -0.11464626129268643 -0.686107106119257
Ni 7.984418858452626 6.405783448192618 6.521283865376232 -0.9049295824112414 0.5598440865232488 -0.906242130575078
Ni 5.390809401007224 5.926060859297893 5.501023418186738 0.23561280837644583 1.5182482438138625 0.35748181266981666
Ni 0.5142709141962505 0.4033395031211864 5.813156153960004 -1.8239948328929168 -0.8669060519796167 -0.4820908416021697
Ni 8.517033110392044 6.4851025007572005 8.874396701389653 -0.17882073908806623 -1.9258197740512186 2.424925147933514
Ni 4.987123188239858 7.598326316028579 12.17844096475857 1.0946392004976695 -1.3901898228803282 0.4675607663067947
P 3.980945976226123 5.758801118020402 9.032338620926094 0.2269530758189188 -1.2786198865201206 1.8361384102339864
P 6.209247028015739 4.1825908310834 6.435140349802692 1.637648731962083 -0.5080882941071959 -0.38459023885083443
P 5.939127018038188 8.592304143417467 6.994894774656937 -0.2989131110969884 -0.033873769929309405 0.6126817991495707
P 0.9533685379800962 0.13364826970074492 12.005262262792726 -2.3136331478250414 0.856331361787564 1.473538559611314
P 1.331927522400741 5.834837494147764 12.459681502217274 0.6633196759110963 -0.003846884549915955 0.660641871968617
P 0.32421962418313166 9.125370224417065 2.1130348480371963 -0.33979416558206643 0.37218080944288806 -0.23385006004906825
P 0.29063212720957976 3.887841526825449 9.086335882018043 0.6803200671238347 0.2492571386327578 1.4774692621242878
P 7.720043532240215 3.4649387474986106 12.921456334321519 0.12373511096783207 -0.8745823375779519 -0.872651439103826
Ni 1.6245191123713034 7.291691141187537 3.0742642895642938 -0.7778412387004603 0.04099418302417456 -1.4421163365462903
Ni 6.110231916827818 0.33247518658269815 12.57651527617848 1.3778217882332788 -0.1853960783127388 -0.7036057771246528
Ni 3.859330191027996 7.973399761984982 2.6512766770261567 -0.15989587715910528 -0.3424187476891071 -0.31692934516875093
Ni 2.40728068562809 1.6327719084705017 5.943809442461845 0.7759386223611089 -0.8510567436521859 -0.7673495951405171
Ni 4.363801947219088 4.17649574927159 7.481636389686533 -0.29367808795029426 0.08526626546867251 0.8145830742061841
Ni 2.9445792061914102 5.899568922769405 5.192845569840226 3.284936015455194 -0.12305582551262031 -0.6743507369142774
Ni 3.9213967502947025 9.193743948523828 7.903139421026937 0.9699502102570006 -0.8408546063082033 -0.7590953255515249
Ni 1.17226588613525 1.3590464870127426 3.6701336878287276 -1.6810672081570337 -0.37432279548655534 -0.3516919454609169
Ni 5.676402251045617 1.3760500132774591 4.109653633468823 -0.27080838244097233 5.428149760881987 2.1321762566657085
Ni 0.14380796885392527 7.716041617707197 0.40764847699510287 0.4265254456320396 -0.18467745497915938 -0.5202668384512588
Ni 1.7892338573098228 3.605208618181293 4.322375677101482 -0.4378339286663234 0.18287228344962053 1.1767005858757993
Ni 8.532505950452887 2.2695097062782374 1.8203224629505448 -0.44604731771505113 -0.4592543033236284 -0.5925066097532763
Ni 2.2160832251623113 0.012229813928900985 0.591593619994938 -0.7199600501129602 0.07028367601691121 0.3566014669473923
Ni 0.6599516683996138 7.786407078079241 10.272554987211734 1.6524217765061995 -0.26144956693389165 -0.69470667486281
Ni 5.800775115610961 9.226902668940271 2.7612408050723873 0.2383410059408863 -4.512522589547583 -2.5732446331089296
Ni 8.599542629381569 6.155571579866653 2.28510702985566 0.004819018655198152 1.2626955019803803 0.6727551102923833
Ni 0.9093686864197126 2.216765579253195 13.100168559124375 0.4432687265286495 -0.8124506012442136 2.813487998278851
Ni -0.22637465805106408 4.784132067203271 0.46621566629572464 1.142273000325549 -0.5245772929011546 -0.7132142467486943
Ni 5.707366373169759 4.053284730860993 4.231197494857369 -0.36285413272532346 -2.595695763023594 0.6233012265366298
Ni 6.989454383932326 3.08925671546115 8.247364929474672 0.8643179795374664 1.8110804388240938 0.513421019174019
Ni 5.140108819616166 5.919218876386603 3.036421300523949 -0.9932420909054055 -0.3360514107101825 0.9292203366378061
Ni 2.3485060237998345 7.875481949943212 6.296509973138376 -0.6029136640192132 -0.2564346302178035 -0.43223175198819747
Ni 5.869379364748428 7.155958003109108 1.3432868738137043 0.8664581658089207 0.9587407146944263 -1.1845864163817792
Ni 6.0763447373143515 8.386306975980501 9.538298646715408 -0.5262582801480035 0.18358293636339995 -0.17116167988091166
P 2.515904080095747 8.832695645435448 4.222830358342942 0.03446383810482452 0.5351021036918785 1.4216231016889451
P 0.4091791631989765 7.366547229157694 7.488776210937493 3.083006972484439 1.3466733876549324 -2.2263935606800818
P 7.128949690511843 1.2609811389513221 9.590270975937653 1.0745131191717558 -0.5990652368074005 0.7022734314664744
P 3.8309848332526504 2.8959660877165807 4.7373198102683 -1.5752447158035645 1.8831047516811958 -4.228940966601342
P 2.469522443918131 5.355714270332869 3.233272156842709 1.1079516013358597 -0.6680638754643011 -1.0661387790651318
P 6.808243267796639 7.4197155222392315 3.685181439732952 -0.27504607467140374 -0.3684591376169267 -0.4668801953000024
P 2.9995179315087532 1.8371092956863997 8.482274546262516 0.28939154475979834 1.4499358325907092 -0.035480966515429216
P 8.842488348739748 4.063409390209506 2.9424639085096715 0.44828880545106015 1.5623066675856578 -0.2861164735529524
Ni 3.738986903999355 5.662266456162857 11.775710969818563 -1.725775349697686 1.4111702817867373 -2.0577299646306755
Ni 7.574148850808359 8.664310942008123 5.418698319221776 -2.4392022266778186 -1.767518495072743 2.148954504565312
Ni 4.51341269214589 8.929165760284398 5.326036477880054 -0.3492792222543662 -1.0831031748336122 -0.1665249524398487
Ni 1.6531687631871788 0.30638344150751284 7.777088334238069 -1.4424822045261416 -0.29003869142549404 2.3689149511164813
Ni 6.08714252975252 2.327306941976308 11.32512490060456 -0.5404196592500499 0.9900642073980562 -0.7411158582549687
Ni 2.057408236028233 5.9137600436595354 1.0868803368626645 -0.003032359068420584 0.9851302604315484 0.41887564239626573
Ni 0.7953943449393577 2.8337888764351367 11.063021629094766 -0.3092641153140093 2.4220398559659193 -2.3600958101629548
Ni 6.8056982714576675 1.5216496226700147 6.149419327847228 2.9973097901259345 0.012536184793797764 1.2625065258980257
Ni 7.539689969218746 5.469529088491976 4.3444821054458584 0.8886637553716824 -0.3407429026485809 -0.1224207630317827
Ni 5.508856658730054 4.331602210930373 10.03269277066425 -2.0245362514875263 0.4990539518190696 0.3639782190274377
Ni 7.8745782918228535 2.7160827957577474 4.2420745879060995 0.38424956768196405 -0.12381095851108999 0.9860316891998955
Ni 1.0226182572035347 5.59255568687801 5.9018372890715325 -2.71247989659489 0.5440423436043017 0.5327791119856566
Ni 3.3285601393342095 1.2152080888547643 2.9229753224139676 1.479109111720556 0.8400045996030825 -0.320612450447293
Ni 9.241932900942162 7.385929773739274 4.58735313469409 -0.42367743466028324 -0.32263205198048306 0.39211714335549885
Ni 4.459303856939081 3.5585503519668324 2.237493467913963 -1.2191687823423392 -0.4755823510596906 0.2511553840967352
Ni 4.607549893684117 5.193802709767708 0.5139970504597743 -0.35030534952603537 1.1293195254886743 0.6616145202945315
Ni 7.740486491963034 4.138007290145274 10.57370182212178 1.5748045429423525 -0.25333028026086696 0.20592376595244535
Ni 4.190705312164176 1.6836994982535975 12.490073922265271 -1.676520726436932 1.1449055528523895 -0.46931940086911433
Ni 3.0957298583233146 7.717858154949143 9.634766917364113 0.12747992272224498 -0.5409122826157523 -0.4483939635703568
Ni 2.4801265953305087 7.953002907268305 11.967717112092052 0.9270050741540421 -1.2080083948501452 0.5948581407045883
Ni 6.707337851356947 4.58405478255478 1.5548323176896506 0.6467219194534152 -0.9360720694523169 0.0713473413947352
Ni 8.537227103081701 6.395059423764275 11.851800827753047 1.1855053286516228 -1.8159161696498403 -0.7566908298750903
Ni 8.023672660680878 8.756032241224574 7.753348866576186 -0.3172720732201504 0.5332426818856365 0.946831621961666
Ni 2.0224514203723003 5.881108478310641 8.162665422693461 -0.5332213417293977 -0.10161308225781208 -1.2897910726455915
P 2.955561418654142 2.1288894375488847 0.8797388431732847 0.17235749996122576 -0.417786523097145 -0.31988354270106845
P 6.1709429889139855 2.2664575548717183 1.944632624707538 0.6013499190765191 -0.8985421908276591 0.370671057666581
P 4.635950577466832 3.903028515848219 12.131502380106772 0.6552548966250908 -2.3169910085536807 0.016152698500462505
P 4.2647038470201135 9.055991411176432 10.879801256791465 0.38618200881798653 1.1712508756151376 -0.14993516640196758
P 0.2615859733408939 2.5536087541176697 6.06824132143505 -0.16384560583547264 -0.16380163997141467 -1.4020552068593468
P 6.8652290553866315 6.2142724736850825 10.376000789489783 -0.6735320976677239 0.5650438855566333 -0.13625638336329438
P 7.258975028830046 7.341272464791324 13.188391410474864 -0.5455107006197121 1.8279319631637938 0.7594187703292147
P 3.7122552214389355 7.416322193787271 0.4146822567319389 -0.3811071653982404 -0.16517229506669617 0.7977135521443552
