# total energy = -340897.21082516917 ev
CRYSTAL
PRIMVEC
9.04087858385616 0.00000000000000 0.00000000000000
0.00000000000000 9.04087858385616 0.00000000000000
0.00000000000000 0.00000000000000 13.23223967349388
PRIMCOORD
 96 1
Ni 6.283500828981082 1.9843733377249662 11.404165698877573 1.4452538537340076 0.1419230947307685 0.4102076823086226
Ni 4.630168291178378 0.4377068903101479 6.148466270655789 -0.19459599964445196 -0.5059514502698512 -0.43922206726310165
Ni 2.8307713235214007 1.5533765872908916 4.656544149537926 -0.3878789369044352 -0.12338312694505203 0.8350950781166069
Ni 3.3660455642958556 4.26262042467085 5.054556159573366 -0.167173384657125 -0.07609874003679153 -0.38489234347228546
Ni 5.0968674700288 4.3613920201250425 2.814682176494373 -0.24636593312789182 0.6250973992051041 -0.5085032701574275
Ni 7.175193615072757 5.96670845326347 2.5435010318125877 0.7862166072483492 0.7270768636633995 0.33704077120664533
Ni 5.214706277822846 4.597178126252763 11.455374137670443 -0.198287075342794 -0.43805401509692937 0.09896870265642956
Ni 5.575717589317708 7.8811867608322475 12.526365622256174 -0.3910804745608684 -0.17788100088261624 -0.4071961491758084
Ni 1.7496450143586322 6.650027076240433 0.3513276267451144 0.19239770644155252 -0.5773443001905411 -0.360627814497966
Ni 2.742866863786745 1.4577421766076468 0.25670036990476186 -0.5980668774498732 1.0384073745881341 1.0982459440123216
Ni 0.3326093923077359 9.219074013784404 4.725272002305269 1.0030927584472402 0.36418930659697923 -0.25806959471806523
Ni 8.534706648924358 2.1724326472940882 1.2725533458995506 0.7695818269051455 1.1186281072130992 0.6774838832266203
Ni 6.745751895706703 1.1090897457522255 4.867426252293735 0.640375151299781 -1.5633515639104045 -0.5172982427412381
Ni 0.8307807726167941 7.229203822051553 2.5446917154850195 -0.37127629535074763 1.0884567258360416 0.061938389376009456
Ni 7.425562657902318 3.918298574522299 3.9554737620141154 1.291413181630047 -0.5967155056283013 -0.43070914469608407
Ni 7.645925025646069 3.931887014610871 12.534582876545263 0.1604142115564205 -0.7716291963524775 0.13436173744374277
Ni 7.918236280115661 8.974671950634457 6.716010118355156 0.3572568411432041 -0.5842785654165291 0.6888962388286201
Ni 6.8564755322767255 0.7047816680669634 0.45296879697250236 -0.5275003800852206 -0.29130624528400795 -0.8055299628649804
Ni 2.0048599679583026 6.467003535885773 9.193137542110355 0.3809621551799439 0.4819018655198152 0.10334086358219621
Ni 0.11517174869482455 4.777986651423325 1.4926499118212107 -0.10317991252429971 -0.5060933751643543 -0.360693891849211
Ni 6.390888381457502 2.017878832713821 7.006020700277439 -0.3537984502809584 0.05459249053389953 0.678811086678476
Ni 3.332006657487157 4.3944093076855655 0.5170342687992757 0.44116042193639504 -1.0234813494059212 -0.21458581250281755
Ni 6.083643173227271 5.759355909396935 4.724637332648438 -1.0403012491767374 0.3292235891550717 0.7750572481974201
Ni 5.320249491125569 2.813991453392066 9.328701895904173 -0.14012872183450706 0.6691596796316411 -0.17621492603410296
P 0.18559838249519695 5.47370935943124 12.500258277982207 0.4746287288971696 0.22149025293213467 -0.48399680037563103
P 3.960772620787177 6.039234379005671 12.523004223703323 0.3847221364430084 1.243202426252775 0.5641105751090866
P 2.4233622245784003 8.441223967277095 1.3491060788376585 -0.37471257472580627 0.6161954687297839 0.24100158349218495
P 6.267706414586713 7.868285427494661 5.697974674338157 0.4935376499865306 -0.5452641318265449 0.7427305110402562
P 4.673157667506496 0.9930591136186688 12.510818023839462 0.7700219997663578 0.6853715135048133 1.0446682678961814
P 4.138055203419786 6.332900188025632 8.153414839221456 -0.6965676393309487 -0.9120978180249065 0.9609109828728677
P 4.810786957904589 0.9145029220487395 3.8612072362180303 -0.2839696024132786 0.5469548892654064 -0.9066846174291352
P 0.22533123445877457 5.539807220700403 3.6950765769714846 -0.6025853341455171 0.1086836159513483 -0.11320464375015343
Ni 1.4951894945363668 1.1083755163663325 2.5210859822373397 -0.535307277724149 -0.004614358843559795 0.2009221989727959
Ni 2.035255400811117 6.409367936707697 4.9038546632377695 -1.27124879086703 0.41741525580065525 -0.9488244840219788
Ni 6.064485552104394 5.7088445223211846 9.203234394998523 -0.67072111058149 -0.381138275746492 0.2273443977200665
Ni 8.594078096736503 2.401347685911951 10.150199494680017 -0.20393964564288103 0.003371744685710322 0.6748523591410441
Ni 2.3317058003482307 5.130580905218611 7.121816269575132 0.15818172268147596 -0.04798321274749801 0.4493689258891164
Ni 0.7440398739196628 -0.13043275126934875 9.036177045725978 -0.8436180279859534 -0.20801073038846113 -0.2389488147282143
Ni 1.241005201063175 1.0832418746855403 11.339340793273395 0.9819636897781089 -0.31765516759118195 -0.0898734252233807
Ni 4.024863407073197 6.558018057756469 1.5013300590793863 0.20288677889833445 1.3332236899079297 0.6069490104308515
Ni 5.805636165427142 7.917648623026002 7.9097957161325 -1.0116025956904642 0.28456686967764544 -0.04656833467784238
Ni 5.207003449509164 2.928295277769856 4.815132908104574 0.18072206987583714 -0.039846699683292665 0.43439919195316157
Ni 0.9535956798285041 7.356345693618812 6.900083304680731 -1.1675433448565635 0.3272885769158879 0.056315129651961074
Ni 5.078668182005983 4.566068464014055 7.095576928477952 -0.49484274195119937 -0.012182143888488699 0.36175704300640277
Ni 8.00715331822019 7.248017889798938 9.183372489455886 1.4030466242383386 0.2814915731864313 -0.3552274694180011
Ni 4.653077876796769 0.5023853336858269 10.375001837758097 -0.8425818734119553 -1.3001418197522965 -0.17558192043579438
Ni 8.21359273337818 7.202596517207462 4.834279680173488 -0.15167786012468717 -0.5405425579811594 -0.4005655312331682
Ni 7.283503337136027 6.035627068562995 7.106400667981636 0.14804797668158373 0.6236568101038356 -0.8963058452979726
Ni 2.2939330108006226 5.217147314964506 2.6181307699357657 0.5284951398983221 -0.04197583021115351 0.07205465187440493
Ni 2.25699198205684 5.2442699498718355 11.474627592103326 0.10703579593528018 -0.36096797144620413 -0.12308642164023964
Ni 1.133472994533915 3.510319900246245 3.781403403442364 -0.8248623446450052 -1.1470591088602826 0.3803368628911192
Ni 3.7758776186239102 2.366901939579642 2.48400843623119 -0.0700263085904665 0.44895060740477516 0.012358264455036782
Ni 1.0316998274833113 3.2585676030364104 8.372037741979817 -0.24127746286139093 0.5055799258630453 -1.3658928980061769
Ni 3.6284751387808756 2.6426035234126495 7.076177915904399 -0.7304486083491097 0.2875763459279306 -0.2035012725538818
Ni 4.049273778489794 6.766735774246674 6.05400084553705 1.2587750838800513 0.7789223875797812 -0.25093684032802593
Ni 0.9139695102288954 7.316746646654111 11.24981168770779 -0.7610239100328056 0.07540197108008304 0.327316601940346
P 0.18984036259470333 5.695120469058075 8.162226983302848 0.17032324314001634 -0.606826111699742 -0.8255611704842428
P 8.429118231230124 1.5087327302334268 8.137576124523406 0.7857882614616789 0.8040667480558926 -1.1390822613023932
P 1.8400176338698548 3.2530255446370124 10.396014647108636 -0.0644891808223212 0.23066857699729304 0.27718497539127745
P 3.9298618578711237 6.024118030483986 3.898376095095035 1.1635522214192995 0.3266825679007729 -1.338132697173773
P 6.947969220697451 3.916246295147644 10.338666547860578 0.2323613913186837 0.882486422916377 0.09105818956010124
P 6.285887620852926 7.76707279489881 10.285512512057023 -0.6172668474170918 0.21274798796313038 0.40602244058268133
P 2.4897493939532414 8.441233008155397 5.659177553278882 -0.7532972308125092 1.1321153430662567 -0.27903102746108077
P 6.9541893449695324 3.9793968300902103 1.517936344345314 -0.05924670147645925 -0.48540010848106074 0.27907087956008064
Ni 5.3137310178695065 2.7970126839400775 0.4005307987305013 -0.29380150090203594 0.5765678270358329 0.08285997002002504
Ni 1.3591513987195032 1.0657477751703126 6.83340592311238 0.42396616954529565 0.03627260917878914 0.546366106641472
Ni 6.910214512906448 0.6023087370357507 9.310084015215951 -0.5795179108030922 0.35073472375397013 -0.1253541346284938
Ni 2.5433979657999397 1.5372386195210304 9.249268739138904 1.0959185814307255 -0.3496975407387074 -0.4641106029746652
Ni 6.375672583274491 2.073561602178569 2.6049518816342943 -0.03640810631538891 -0.23688910398570812 -0.41994059332567035
Ni 4.2246668175571935 6.91358676051326 10.444471042546242 -0.37327661361022807 0.28769461667334967 0.03960321621391889
Ni 8.0256961596185 7.042057641190977 0.2230032082958954 0.7167963076729978 0.5499679650601172 0.6057475339235826
Ni 7.490566572896885 3.811824150754425 8.164768374193665 1.1341696544921243 -0.037513937785057974 0.5740913404708823
Ni 3.090398225732663 8.537961365113238 12.360115623416034 0.17261718138051563 -1.8368066399456042 -0.43541657747408236
Ni 0.1840795149403865 4.872490952318764 10.19709453043479 -0.6260193967987412 -0.020700208661828867 0.37984012576035875
Ni 8.701022646176105 2.468864965074597 5.8625041940373395 -0.9159195057638418 0.2893259816291856 -0.05273486849987047
Ni 3.6126264791166927 2.801930921736607 11.563296910142368 0.10434719335952351 -0.12631958386555664 -0.20402654892973252
Ni 1.1307245675299724 3.2459827004394093 12.592050315386915 -0.31226356426196544 0.4277204943814053 0.4396776667432815
Ni 2.999844788655392 8.376391828970275 7.8071139408125 0.862351599839715 0.20458910630142188 0.98617284276345
Ni 5.810382626535924 7.91157315280676 3.5353766944614664 -0.6338039258401665 0.3623846492880726 -0.08863801015438283
Ni 3.2507201206698895 8.316486969338285 3.414658366928093 -0.40551079105358545 -0.5416391334794478 0.8956242458499157
Ni 3.6074731784843 4.47745881577181 9.452701158173502 -0.32685586025384356 0.11858184890166676 -0.4055419014018371
Ni 7.214042269138356 6.114915571275423 11.3870169609135 0.48547312781084134 -0.4715074096593686 -0.021221628382937643
Ni 0.44149501831887167 -0.041079038742811394 0.2565041828455989 0.5310428460208403 -0.2706268625577855 0.5882506626903997
Ni 4.579268146335623 0.21917982086179216 1.5231890946390334 0.3439711797778915 -0.47306292707194664 -0.24507523934092626
Ni 5.972422288350615 5.5861326811221215 0.4612068452816887 -0.483874930085786 -0.0354637401242486 -0.8967511603655072
Ni 8.004287359798315 8.69864489518256 11.391767038373603 -0.2084431899401894 0.425418585721106 0.29834978239435067
Ni 0.16541010124584118 4.959400915440151 5.844614104052465 -0.5030371048365337 -0.15032443142058627 0.33645327413429155
Ni 8.001150175027368 8.879986832172968 2.5396505217435767 0.12542406863448075 0.132720602295894 0.17036103835648725
P 8.413088753999892 1.8447098497088228 3.6102839875485295 0.7005034840502452 -0.6229507851757464 -0.2467407999688073
P 1.889688219263478 3.163783034913595 1.6302511754965667 -0.7232068391850319 -0.20584920396076806 -0.32354145116862987
P 4.614518530836849 1.1506325815519522 8.269647082941157 0.3109813551154322 -1.2267496800133906 -0.8957021502757024
P 8.496427570191814 1.6320412694004505 12.387215656127609 -1.0333047632542463 -0.03052670783394743 -0.22089915631535503
P 6.33308100559168 7.769269728326304 1.3897692371785577 0.03813537341914078 -0.5646399652499954 0.370275107779743
P 1.6751752997814071 3.263133246579144 6.060365623861971 0.7878559426239851 -0.7752086861736197 0.0585977550385507
P 6.853275061357661 4.101294992242053 6.03035442833701 0.573035131292226 -0.5154457629135316 -0.024610085239196326
P 2.479668814646017 8.512258148099392 10.262316330596446 0.1289297677948941 -0.09955105752246081 -0.5675959625545257
