# total energy = -381168.0143664963 ev
CRYSTAL
PRIMVEC
9.28117453567339 0.00000000000000 0.00000000000000
0.00000000000000 9.28117453567339 0.00000000000000
0.00000000000000 0.00000000000000 13.58393708845522
PRIMCOORD
 96 1
Ni 1.9203306906197388 0.3710149505452913 2.33544514179082 -0.14051181620553865 -1.3762073925583074 -1.1672150149828673
Ni 3.7049056418617172 7.1732712704752215 0.7680803016707085 -0.86646485067714 -0.39568969119810565 0.8777473655694948
Ni 4.433542808152128 8.759247649815556 2.7784179663341773 -1.414736401871441 3.230396746756733 0.8311227237324201
Ni 1.7259086472420586 8.056811239132134 12.719618547843734 1.3168745591259452 -1.1283903288061858 -0.07469131816630362
Ni 6.375155231895078 3.845821714260195 1.2322420475923 0.12253697689467283 -0.6230793403338107 -0.13402929380498854
Ni 5.865785813112672 0.21114764793997332 12.674343122409084 -1.0441581610289825 -0.32017536290987436 -0.13992200514033967
Ni 8.57366128455968 0.06635018836655994 9.385672169480321 -0.06663270952788523 -0.2760138379013118 -0.20823595902538974
Ni 0.5403342012590603 7.504126578968994 9.935997555086148 0.33905625897477737 -2.1705036914909974 0.994114980428662
Ni 5.814804321596842 5.9410747006379605 0.6318011040512781 0.08260928746179967 0.4856975851168216 -1.045745303010444
Ni 2.7448331082968247 1.3913315877747112 7.822432811424434 -0.9255649992734061 0.21039799967371509 0.6372371198914316
Ni 4.616233446964724 8.57000450180759 8.558545963772739 0.8933385351395324 -1.377350505023815 2.0687605114132244
Ni 0.24745374634005013 1.6144603038737568 13.540427986188186 2.54255337467266 0.9800842133672087 -0.6495820146100296
Ni 6.947822260751752 4.698743088249218 9.11939991372875 -1.2892143742065152 0.7153480052622455 -1.2056473508171366
Ni 3.6221361276912876 4.559599720179799 9.961752814317247 0.6166022172498994 1.0924172531456864 0.4259333205739955
Ni 4.587554617766852 3.3445454796397778 4.3602261702076 0.9553018642162063 -1.2225351277114107 0.07214489759536608
Ni 8.785680434784988 6.637413379676398 8.000966412179514 -1.210722708457515 -0.7944130270162125 0.5069372112218883
Ni 2.642795875869184 5.01519401392257 0.32191196874779493 -0.8031943727532683 0.026396487715657765 -0.14351357914633991
Ni 0.7434267178524856 5.822507696429927 12.753740785884503 -0.8977150669406733 -0.013745117500234393 -0.899232017805832
Ni 4.8730528264903965 2.4782777767230715 12.108762270281401 -0.019764841331753057 -1.8680766537034796 0.6041722190166627
Ni 6.823370991912182 3.5559242288247432 11.141545088588183 -0.13181865930691491 0.1826390843928919 -0.29444016292729935
Ni 0.5105722589973071 1.635463601762037 3.4139556712382273 -1.4127147434557217 1.7157979267699999 0.15859721295233975
Ni 2.3545597206688194 5.66956322188244 2.7153607386793994 -1.0929929231434983 0.27187641869417045 0.3029001207691945
Ni 8.165289606661174 5.957725127686822 10.746904908359014 0.00781949604441879 -0.58550780983794 -0.3814349810513044
Ni 8.108349601117826 2.3809182562422686 1.6694661126517862 1.0207770631008808 -0.34054287082263285 0.9523893185551018
P 2.8030539159208545 5.862119749186083 11.987389567022714 0.5404111746096176 -0.05065973113839663 -0.3544656515513121
Ni 6.898752691182448 7.9696146047263055 3.994804983532068 -1.5213924458697992 0.6143355327029097 1.2212966273186192
P 5.240067590827182 0.9004057189541215 1.0379787122985304 -0.07709992760779624 1.0243310990007264 0.7642149061662774
Ni 3.586923351647039 1.8967936320935883 2.3825006964941253 1.6108254411216516 0.5423857818374853 -0.9477983567503097
P 2.5138153938747396 4.767024689028748 5.8397484061768425 -0.5578414542709232 0.5520806405277459 0.15422273803372794
P 8.79404277300741 7.923450042774779 5.882619079299138 0.24829323205759174 -0.6730009077546022 -0.1418027671028203
P 7.23117651816633 1.8134486851043023 6.709541099167772 0.11327354931487588 -0.824043962508768 0.025362904244820836
Ni 4.879605335685768 6.6689229670960675 2.863086408806835 0.09922041365591944 -1.9453272479565271 -0.5296950737436942
Ni 3.8482812255020833 3.2681799758727568 6.647734045717834 -0.41971947845379975 0.11583565361509729 0.6862901686643407
Ni 1.1233469553283137 0.10839483695856054 5.132663055187525 0.4915884966799599 -0.2209544350333227 1.3831797101110823
Ni 3.4190454673327624 0.09508192025906921 0.034390463983752916 0.353749599320894 1.5082679926726992 0.6717361821095658
Ni 8.731422688671474 3.4285679523673953 6.32613485255061 -0.6628841310355745 -0.3417361197997857 0.5294988985724881
Ni 4.061460522539602 5.72580713933846 7.603486192554049 0.3916743993911254 -0.2171054936008777 -0.34615841723719737
Ni 7.085796200834461 2.3326747112032584 13.095078252855972 -0.6884007872494403 -0.567330624708281 0.7627059257209187
Ni 8.95016140923311 4.963878400124823 1.2817237013093024 0.3402070847497689 -0.6531689606303396 -0.18813507451045663
Ni 3.24181215912481 6.856087132016551 10.11392045455928 -0.3052503661689259 1.0895905823301686 1.381805455471375
Ni 4.885508162666301 4.606859460722053 12.377343682247998 -0.6169680852297503 1.7277586986763018 0.014717251605516589
Ni 0.09831084086681673 7.293499604918341 3.5520632602337026 1.0730465619285583 0.4392290092416371 0.17275782072343795
Ni 5.006302648753779 1.2150542405400218 7.654644026385336 2.337081865766285 2.4546648410897918 -0.7966555431934861
Ni 7.271085568506411 5.637394671073434 6.506148800638072 1.3762055927860943 1.4813302877415908 1.03433988938698
Ni 7.241441497160778 3.489238990058817 3.841673029259726 0.12144297249954569 -0.826231714188706 0.6592529620408906
Ni 6.24614690637714 8.370487093630675 10.550018713152195 -0.10141305043186406 0.22008925881954997 -1.1367441000875198
Ni 7.358950447476074 2.171163712594399 8.975192736853389 0.6186380167330056 0.46277337222048043 -0.9672276691195147
Ni 3.5694097753698917 9.03980827370633 6.488638936830723 -0.003369944913497422 -0.08163021137798199 -1.5601829363744357
Ni 7.52852678672343 0.9248133516481554 11.115627408803373 -1.7551478893225319 2.2276009507246215 0.8482452423453197
Ni 2.0313892246591374 3.3983855729008967 8.87237588576794 -1.2522632509034628 -0.5627363204693793 -1.0376296158818452
Ni 4.703170208484618 7.24831884746357 12.230704837654242 -0.13399972611863373 0.17294011193757314 0.395948344176131
Ni 0.41161173591565187 1.6095041566919885 7.959344985144608 -0.5827459308220868 0.7915354483581014 -0.39629878553701425
Ni 7.846518387363399 5.8603377636825265 4.37591599569595 -1.4985960168005739 -0.518671468939681 -0.3133465129134991
Ni -0.004274908973637553 9.056969165352564 11.714257595199896 0.9365595506116967 0.11023707648139726 0.15320638095407163
Ni 2.725314798328175 2.6527081702327204 0.10731172389467973 -0.15695710624575548 -0.8193383295029824 0.4380612141857811
Ni 7.460542183527826 6.557483904902264 2.201140978104499 0.28757377482476926 -0.5350239421557754 -0.30043340439625676
P 1.6873732107276358 7.561465675015744 1.8330301070595356 -0.12494455789490094 -0.23005228356953283 -0.49125913836499907
Ni 0.4101258198785711 5.576547291066556 5.862460368290148 0.9724554931773575 1.5514661253267281 1.499275559366102
P 7.691374274459957 5.408177504503901 12.863512949138523 -0.2695310583904455 -0.001866878005409688 0.554900112254412
Ni 8.85210580066498 3.5881855913787253 12.404973738727632 -1.0356922896498164 0.7468594456069654 0.05056897119680324
P 1.9817813469689662 1.0238342023640457 12.050134019096921 0.019384832284515 0.4557128658292732 0.14287234601791524
P 1.1693258937898865 3.437227288173743 2.1162553561485953 -0.21526458373739701 0.040411056827194924 -0.8388900263826649
P 4.401717660799537 7.606303029014099 4.848636840739314 0.1441653537977259 0.40105789748855447 0.1992044449507408
Ni 2.312738748382213 3.377428680885105 3.9820498654198877 0.9838660490071442 1.51514363674661 -1.5122328908577183
Ni 0.3717815755588008 2.0234816639871025 10.452241539818996 0.3077242816307152 0.8106189473521136 0.323063740201263
Ni 7.290139819750175 8.786534302838776 7.473623998982324 0.498832836947199 1.2702602017015157 -0.450001931487425
Ni 2.362439437817361 7.090975096204174 6.20663694654046 -0.4403235278573965 -1.4357603124212757 -0.38872688672702727
Ni 1.669154265188664 3.7568616566998045 11.855611739034666 1.6505479565222543 0.5727068014185298 -0.7310636162252894
Ni 7.956509586335563 0.20112583571736403 0.10162978886719187 -1.1748519627028349 -0.6711638545458635 0.8033134148296359
Ni 1.4587500393259558 2.40968061601062 5.721961948744067 0.24613916182906642 -0.7619135117266104 2.0473424507487645
Ni 9.037385887162431 4.205857035374716 8.892520675015186 1.71254702393287 -0.7301243922404715 -0.25964542384561734
Ni 6.36653302078672 1.229328686917474 3.235435992244895 0.12902309883964877 0.1451385163442726 -1.836903827645101
Ni 3.83860096050099 9.275652198867215 11.165806078725154 0.3799519687478747 0.18312065201500075 0.0731990498914933
Ni 5.308785406808104 5.6122983752316715 4.92948886425852 -0.11369263913016549 -0.48797712517961767 1.8131414351181805
Ni 0.8183647769817611 8.473851534011487 7.801758067113373 0.9335513599129922 1.1181691652988097 -1.6043166934688564
Ni 5.80628420340796 7.34544633858193 6.531496616308722 -1.3348270298393077 0.6666109450678583 0.06491495550583014
Ni 2.4359463398390924 8.000103262951228 3.965110793844148 0.9365132707547936 -1.0587630554263507 -0.630755625932146
Ni 3.9998056803514253 4.258369920682664 1.912347024316823 0.5615446141541232 -0.7212211762135707 0.1752484483557756
Ni 1.7896517536922165 0.04970997060964554 9.96520355499549 0.7702477426239187 1.207989625797068 -0.7379153490398002
Ni 9.120526648312769 7.491086528799735 0.5143961028903568 0.4543586657942239 -0.022210217548452073 1.8639878283460865
Ni 8.177382977031668 9.046193721760742 2.4428533899002756 0.9859352728313471 1.2429221760081948 -0.49958642728377195
Ni 6.32123160806348 3.798422756100475 6.551438147834466 -2.109375456721109 -2.5264207307768554 0.1589286281498295
Ni 5.6067575140565475 0.812893524615371 5.2961592970214415 -0.5810299765722445 -0.1894082847959254 0.8811797882898115
Ni 7.569104081627344 7.574617099278975 12.38655339170206 -1.269333061901556 -0.6169716847741762 0.06563126484656438
Ni 5.445849791790039 6.174951016805335 10.329932366053493 0.8070595121356294 -1.1204440773759154 -0.2448656944332815
Ni 3.163701794552223 2.497601182027269 10.585351216347464 -0.2705150195702696 -3.0546045100823456 0.4343984206222132
Ni 5.364593109062733 1.4533948016407867 9.958547096645745 -0.522026501454843 0.032919633546156214 0.5738501709943536
Ni 0.13670520352887455 4.28699306283355 4.145138663693356 0.8485995403609451 -1.8200924125147169 -2.2397676679941423
P 5.04996129359093 3.9171939461474565 8.464341114503702 0.0012508416879655876 -0.9993065519319306 -0.014032823943982285
Ni 6.12781193153155 8.241051834085846 1.4339609503600665 0.9523294118514437 0.21523938692641642 -1.6356026480663315
P 2.753149040646758 7.654964226905506 8.304037596696991 -0.984107475593989 0.7600841718273554 -1.519281055953751
Ni 1.761641169058178 5.6685237303386975 8.387320359817142 -0.7552535832079315 0.1263766623557372 -0.35489579711019525
P 3.107439314747206 1.3020095644089105 4.377912376330404 0.046561392699306904 -0.7462423808482568 1.0766551052154232
P 6.644764069878572 7.032466572170716 8.73694405938015 0.1784985798619571 -0.033872998598361015 -0.3583765565699441
P 5.712553622155755 4.666880816198637 3.1014167606156526 0.6433216355226146 0.4747038051094793 -0.8915529039940194
Ni 8.154671943035813 0.5997977581483317 5.029833210457782 -1.1506452835496441 0.5740576590194694 0.06935962154074507
