# total energy = -340893.2367602456 ev
CRYSTAL
PRIMVEC
9.04929713263656 0.00000000000000 0.00000000000000
0.00000000000000 9.04929713263656 0.00000000000000
0.00000000000000 0.00000000000000 13.24456107059033
PRIMCOORD
 96 1
Ni 6.5613285167258075 1.9289300462279102 11.482226719397902 -0.7995945712171519 -0.77880823059942 0.23333918185092073
Ni 4.726456863335572 0.42926064180963375 6.025453582515072 -1.3837777487063974 -1.2354965729680851 -0.6499031453948743
Ni 2.604803939268144 1.6068565173183804 4.767273717375819 0.562889815328108 -1.069458073246352 -0.09266152949147911
Ni 3.188537890431026 4.054121245415554 4.530805632992469 0.26970897872920646 0.9116026235560428 0.2920564931864712
Ni 5.062194830688904 4.593323606126811 2.673454620967629 0.33883231588942936 -0.18264294104763384 -0.2942100491943643
Ni 7.4888181123686515 6.047319398814251 2.5075393805095167 -0.7569728798918833 0.30096176609590103 -0.3962792451529885
Ni 4.939993124235186 4.603594558202119 11.323980758132587 -0.06924006524374528 0.46116540430341224 0.31022879322012376
Ni 5.8864319477597 8.009025998713325 12.34163935876996 -1.32516585260046 0.3597415552382707 1.5924114573908383
Ni 1.9854791030724959 6.515168052817306 0.32787412827540907 -0.40324590627880874 -0.26967041218178717 -0.23781830066819687
Ni 2.735711069419173 1.5226075624099 0.3522909413939978 0.4805504936982434 -0.014674057072406986 -0.10208847923233387
Ni 0.4841971139319111 -0.18973208518675105 4.371658361747682 0.7430128181673655 0.14092344982166052 2.0255083855928087
Ni 8.741801871180467 2.349414679823769 1.7600430166406957 0.20708050526470786 1.0477165678042022 -1.762187312667817
Ni 6.785009039542974 0.6010769288301324 4.902844855191706 0.8236243584728462 0.06232431196051848 -1.237399960638385
Ni 0.8589954667811583 7.447824797037242 2.3472935246110356 0.19710282522670572 -1.3090859163194617 0.5249251631588767
Ni 7.674591130125493 3.893894393040737 3.848259693286926 -0.2029222601219602 0.11874794216588581 0.15679229853311707
Ni 7.604250944679347 3.758725044010879 12.532056475738298 1.331036452448624 0.6368589106164064 0.7189529490046844
Ni 8.174999154672124 8.636160378205 6.674331612796662 -0.6448151893490056 0.7772321443615517 0.5740221777958437
Ni 6.976338325647163 0.8822286318544165 0.664005740047487 0.4381437465972583 -0.2646444197221055 -2.0620548172582747
Ni 1.993876850672396 6.540487985774763 9.228002499464337 -0.8316557134177548 -0.4091303900840437 -0.14533109197105293
Ni 0.19930805125379228 4.948689498635513 1.185322165272534 -0.08214366067929078 -0.9735518115653299 1.4998933954557587
Ni 6.420575751457655 1.744740655443033 7.0285310509243 1.2817656312379537 1.2865257716307585 -0.31700416427074435
Ni 3.6421429509833874 4.290751312214893 0.5189156467355497 -1.2794051014255772 0.054797921676486276 0.10066923028730404
Ni 5.9652965709635035 5.415325546842892 4.798225932775278 -0.15907903768476475 1.2540491391592918 0.783071119640832
Ni 5.065099655020335 2.638874542407825 9.608320018543303 -0.1310720109488775 0.22943881835524998 -0.6965198168121488
P 0.12978773211427466 5.73206903982964 12.513738888786015 0.5153843135479769 -0.2720808213954927 -1.1922853276879337
P 3.9705600370777554 6.119369901390118 12.671283529535176 0.24164513061345483 0.6598605137179023 -1.2878457759937627
P 2.6849535626434835 8.371070272395222 1.5317066305259557 -1.0011276643010694 1.287970474497085 -1.255203307368393
P 6.38191715474777 7.576415307160713 5.8386127477142775 -1.5033499865457916 1.2103630111252508 -0.44701019584895274
P 4.773929475306558 1.2484772089144551 12.42473543324285 -1.1516575268642424 -0.6658599258344468 0.8629658363849461
P 4.031525150849875 6.01082358408322 8.183019546587849 -0.8817924821731458 1.37556101722356 1.4079232356043494
P 4.747903697184454 1.0867572225375 3.8681934846803094 0.027529829989152585 -0.09783587460356699 -0.09163283111664865
P 0.2631662252712652 5.504406826340108 3.710609027024426 0.5965890073527662 -0.11437680968138365 -1.0842187764952942
Ni 1.5223270342034378 0.9782199545275846 2.6188864552325453 0.5698294798707347 0.41986397445146395 -0.9406555750579413
Ni 1.9246316301611512 6.406558390431528 4.825774707579562 0.31122766679828334 0.1906267305840588 -0.1376748609773758
Ni 5.834869053552556 5.62310645486154 9.167434649829755 0.7497424235817153 0.05104128284753145 1.7809553373039395
Ni 8.447708768541293 2.4715711397925744 10.117943847137065 1.097307748468768 -0.15989279183531172 -0.17187233279469108
Ni 2.5272424148298427 5.256437990421507 6.906058770490801 -1.0683306445101277 -1.1451498076527116 0.033744957660928984
Ni 0.42696574009483346 9.211550877549877 9.200943291626812 0.627040638974404 -0.2064883802066637 0.05918036701489808
Ni 1.3372508123142608 1.094041906608534 11.233427158016292 0.18337107746291 0.9062680987170069 0.9142948256762253
Ni 4.13064210070085 6.702126528478874 1.527600964484927 1.1686129237716585 1.0603797650941673 0.6162486905652226
Ni 5.525926054564852 7.823542558459927 7.890553507546156 0.5013165226010011 1.1964577138980685 1.6706557830157227
Ni 5.303702468561893 3.082887348158576 4.9749749915810195 0.020042006252539678 -1.5280312913425556 -0.21929710193555782
Ni 0.8360717876647069 7.180345676824046 6.977009783483275 0.6382305941529525 0.6722596587132036 0.10746954103858912
Ni 4.931441538586581 4.37416773180097 7.184379853418911 0.6594450234470385 -0.556469513624061 -0.41968785388491586
Ni 8.082605832479258 7.347630980845331 9.084590145812983 0.2812542603646446 -0.5098762392455541 0.1592101639459903
Ni 4.5435162755343 0.17735083705508803 10.475520482898629 0.44041274513709316 1.4580476630645662 -0.7319277639977976
Ni 8.008754519803844 6.97650121299285 4.667939584397259 0.7275890274131277 0.5648855056018981 0.2112400359590362
Ni 7.0293038608866185 6.1152524712630125 7.239887336180794 0.9731990562116013 -1.5162664374971433 -1.4298804566017311
Ni 2.36668978776365 5.338406522490359 2.559034404989292 -0.7732572188742038 -0.8138605942178627 0.09691387700992986
Ni 2.404542997042079 5.262274786975317 11.31953031387652 -0.6043467969213141 0.42661234891889105 0.8577565242698647
Ni 0.9971601331122729 3.2676468446533606 3.6879477775204714 0.9358998055405108 1.0416371943793417 -0.0629038386130723
Ni 3.85768815581315 2.5445265720667063 2.4835144019502766 -0.7616594867342753 0.33900740801471296 0.17250688105489645
Ni 1.0362621453743077 3.4130690471645613 8.120345925545404 -1.1567884203329046 0.19917821969849567 -0.008038811144076476
Ni 3.6156918559030986 2.397647432741299 6.954533139637767 0.4067927430898027 0.3334965054988127 0.04217611914741769
Ni 4.0824726928622 6.996047694475377 6.280769542653887 -0.0286981392656409 -0.06873638613444936 -2.714541921330241
Ni 0.6536732527526963 7.582297350199435 11.455220902412576 0.5915427031781102 -0.8396937532308829 -0.80933211021989
P 0.000449750060037752 5.597831768388996 8.053646272275378 0.23949337437777465 -0.6096525254049436 1.8173986677326377
P 8.486077787747734 1.5261820347180473 7.803668492426628 -0.312544585837494 0.21745027853480614 1.0274009961753015
P 1.4827001627164094 3.2874286078574353 10.354213751916497 0.5719133589829569 -0.8236714096606975 0.03355726713015511
P 4.055379097696143 6.126482648818482 3.8579551100741383 -0.5670879125698556 0.12848599538925612 0.4708178397915117
P 6.697864309600045 3.829997307046238 10.478103152257479 1.1219168052667 1.1996890763511725 -0.718556227786898
P 6.393074937927379 7.746904062313856 10.310228739002623 -0.4477774130322804 0.12248324083860197 -1.1213444777029977
P 2.2651566756183064 8.419393518282579 5.842771804607504 0.5170904976058063 0.4424269473536446 -0.2638813163038358
P 6.931716242225711 4.020521205718971 1.6710395610975306 0.6142792255436775 -0.12920641849504844 -0.4811780999799133
Ni 5.507465488720244 3.026274946235112 0.27565606496672 0.044189035812388415 -0.9168083361266985 0.4536485271010768
Ni 1.4195722669654365 0.9988614009450114 7.028054152973314 -0.17381325857114582 0.305434457155274 -0.6552564392869876
Ni 6.896279195241649 0.7151460320855424 9.240213620812725 -0.5089236455242977 -0.7087806364573729 0.02386960752874599
Ni 2.7341545903381568 1.611010144633417 9.134548599665104 -0.11965194203739393 -0.0034180245426134685 0.6972921762017992
Ni 6.531601576137799 1.946096562603999 2.666818771490251 -0.8673467390614611 0.7320784306430489 1.0907763751081538
Ni 4.168857281858585 6.925481276604665 10.502420423109259 0.057221700626630484 -0.709572793341365 -0.058446317062350955
Ni 8.19358641067449 7.383782922291021 0.42435139819654555 -0.8417200396322922 -0.7836187646141859 -0.10002851137951159
Ni 7.453046241396232 3.9081741836793595 8.350761840106756 0.4333393832300795 -0.41458344277881504 0.014759417697361677
Ni 3.054653541572705 8.395693409485014 12.412829273202778 1.0192768244062704 0.02162169203483373 0.09204035096771246
Ni 0.0010307149263239427 5.0679230356789216 10.316241091917895 0.4549348500126681 -0.7791352749215356 -0.7114977782782198
Ni 8.705613732546846 2.7312950124916386 5.883128049431334 0.3138694752965046 -2.055939705499472 0.26837663307102816
Ni 3.4255570770006196 2.889159998353985 11.468213883020267 -0.6457510708997137 -1.1635324239249574 0.33393462147749586
Ni 1.1044938446234958 3.5063853976496575 12.524970876200882 -0.2405963776339663 -0.27028619138891513 0.5504922129947036
Ni 3.07655284027072 8.417303130679587 8.118902562676672 0.23784349747917746 0.2979108950847192 -0.3876439380754937
Ni 5.625649307313665 7.87578414994077 3.419294963488625 0.06759198811736102 -0.3036951058666641 0.9953604227999892
Ni 3.066010409285932 8.244126734322595 3.6669950352868415 0.8854251938297267 0.38905213127692995 0.6549656475194463
Ni 3.0441292091818823 4.264200674867796 9.27886135836623 1.6776766944182462 -0.36686865320135525 -0.9363831729348325
Ni 7.279978436603033 6.099787222719662 11.505285233039395 -0.4883203674516493 0.0962685301164471 -0.6077200842689211
Ni 0.7515531637061437 8.933511227757927 13.507068454485534 0.9573415203540546 1.0620818353869386 0.5469302066750581
Ni 4.787005709446489 0.493707020130979 1.6150814233459119 -1.0295260129381043 -0.8739153934179144 -0.48835430601337826
Ni 6.008923231716863 5.548386409675792 0.1749536782843838 -0.15763227793590917 0.5404962781242563 1.2455670698302097
Ni 7.932052678578895 9.09689628477969 11.537350511967722 0.5972500379755328 -0.3092587159973706 -0.548129883410114
Ni 9.168838195791764 4.991510771957418 5.969720772258322 -0.0033622316040135642 0.2666172271777602 -0.4383741174405095
Ni 8.133752459025201 8.86415741568289 2.5520411082810996 -1.5492842871840609 0.2942049069880417 -0.26784672870948706
P 8.522881278576175 1.7455098456865583 3.8217841651047846 -0.5919551081251806 -1.5616960305848522 0.4852959788030287
P 1.9055919093096534 3.2428336723269315 1.4674837698400818 -0.24617927103838247 0.07285220807503583 0.78050772978903
P 4.797738175667913 0.985984251338699 8.157550300230177 -0.663929027360321 -0.6001296735161729 1.6790766600895664
P 8.781528284934303 1.6862821969351078 12.722725163162755 -0.795857729882539 0.312924337774416 -0.11330003167743713
P 6.297686298433255 7.9109587673123345 1.3547729660617678 0.5410968878227326 -0.8465927943435614 0.22230143597952037
P 1.8889140549706278 3.251729131260878 6.102828691435531 -0.7936581511280589 0.18655307473531743 -1.053574826357192
P 6.903500534233806 3.861398367576037 6.231725067797014 -0.8527367024577702 1.1435302697714178 -1.0206451655087068
P 2.409266730067022 8.433320386338877 10.279766090569925 -0.39175101826533176 0.36437956823091444 -0.319854746345662
