# total energy = -340886.52561922796 ev
CRYSTAL
PRIMVEC
9.12692785818049 0.00000000000000 0.00000000000000
0.00000000000000 9.12692785818049 0.00000000000000
0.00000000000000 0.00000000000000 13.35818148445715
PRIMCOORD
 96 1
Ni 6.6617172264900875 2.140647902012802 11.217025307947406 1.0221546601746978 0.5193818647431442 -0.6361947946698463
Ni 4.845312561794725 0.1921537746119097 5.653275671409479 -0.3541573762822739 1.416642103534586 -0.099877330513628
Ni 2.8854143380973696 1.8135935709304083 4.683218323919431 0.1633972054441444 -0.25101988696013544 -0.9156446548359004
Ni 3.3834525347403357 4.510646372920214 4.6881340872369766 0.33868036369259735 0.21423794224509554 0.07150906378358006
Ni 4.165648501766715 2.96008173449702 2.1545673796132307 -2.1236769609454456 -0.2212935635402963 0.12219347751232504
Ni 5.391312764070274 4.962182872379924 2.263636905000682 0.7471960030107777 -0.6753182430338692 0.02145765565314369
Ni 5.5727195811879175 3.13802944597532 13.223918082929664 0.5807600107403095 0.22030857391920772 1.374675015074181
Ni 6.277683485100517 8.06118557504698 12.746617178959923 -0.9424275793566996 1.1997106736177274 -2.725273191704816
Ni 2.156282329348409 6.7872398646375505 0.35206120058433726 -0.5473505820419283 0.403110409142209 -0.14780423610189383
Ni 0.9886014394109399 0.2291187449282797 13.495503510257153 -0.44915192478230387 -0.6057956135526987 0.432566509619797
Ni 8.085983437902115 0.26746096865092117 6.767361415871086 0.9857221283792766 -1.8601314307144738 -1.5816102530102762
Ni 8.794442955165291 2.6099727837708766 0.9949309638459916 0.669665415623466 0.703430427889053 1.2457845851576546
Ni 6.94186827556566 1.1715780881116105 4.426486971599939 -0.1564894225807176 -0.6519492292906256 1.181708580613352
Ni 1.1751284630290366 7.832838968211283 2.40010455497585 1.1549624228677593 -1.1377028644563631 -0.020434356594951904
Ni 8.078864434211646 3.904162020059103 3.642214628497172 -1.4549299433711913 0.9708367266270118 0.4656836038887399
Ni 7.845461509370153 4.000232062169202 12.329734711695522 0.7300454593734201 -0.2311833118501825 0.46972537805828135
Ni 8.468374332286194 7.434202142328443 9.334296171561954 -0.2958655825199163 0.30177603446708023 0.03747357146542579
Ni 7.418211764808313 0.6409868780548033 0.6322186385093757 1.032494865758441 0.4541326658263469 -0.5073560439268616
Ni 1.9101473402143467 6.748559944586001 9.505721780428448 0.0632437384509943 -0.24907407608767426 -2.557421292923428
Ni -0.07199777001572422 5.259291753323306 1.5222319164279088 1.1401790939109977 -1.5273432641365954 -0.8776604622826434
Ni 6.5822855737745085 1.9808536499451974 6.98313659234364 -0.5172339651622059 1.7661005316792937 -1.1089563884512903
Ni 3.6749301012260007 4.641681675463886 0.4163211612041901 -0.0175637199153762 -0.3887592826268595 -0.8809666438377409
Ni 6.394206972429001 5.933324498893598 4.690177606373254 -0.24917177800780316 -0.4480124118612219 1.2982803410635255
Ni 5.363858965222927 2.8218544128404126 9.036342137103524 1.3767617223998805 0.8835459745291429 0.9472923636481684
P 0.36610571709573947 5.635430702158703 12.734555031168481 -0.0315021843733393 0.910087215352781 -1.5969054886064498
P 4.221286253686073 6.420793713134561 12.673614534192506 -0.5264732243722868 0.5171743155688642 -1.2998584841839227
P 2.7887692995353484 8.925888969460335 1.2530988946025081 0.9386331453112738 -0.455570426714138 0.20270474479451545
P 6.643216943822677 8.102138100122795 5.3383300354503485 0.596458909532805 -0.051295307839866494 0.8700397125125919
P 5.415389599628552 1.0509566101972019 12.526247507028675 -0.2931972916591338 -0.16916650382775383 0.3160783100223653
P 4.167090556360426 6.381237608013416 8.082340881013826 0.8129468241543418 0.2908401042808668 1.5488906512900678
P 4.771612619742753 1.5265608182873824 3.6507510440762694 0.41119061504718213 -1.325762605644194 0.18582673809225417
P 0.46524697041332885 5.7348503267744455 3.5882881755418694 -0.1660788660413656 0.7400678766064287 0.6078823208783983
Ni 0.9993529603691098 -0.06755660694420854 4.625631060220221 -0.5849599077542699 1.5559102771410107 0.015034011514987011
Ni 1.9917055671092585 6.689846417995249 4.798979712775922 0.7688295221201533 0.1377584218301176 -0.10423792147516886
Ni 6.203572831297173 6.183676128675093 9.203987372471824 0.2706867692614435 0.26788375259500957 0.6251238815676653
Ni 8.70812047195445 2.566172657218875 9.844899409718598 0.14514982919818228 0.4681477491585163 0.5031564040232174
Ni 2.489579479051675 5.73092574781688 7.069937326571636 -1.6539310140618741 -0.3868258130495725 -0.9188112254893402
Ni 0.8048690810877428 0.39048921742837667 9.112817577901996 -0.14199277162643933 0.6007824766088234 -0.4974678382788723
Ni 1.7010402971985314 1.0996487700544484 11.260639245172117 -0.12899224560171332 1.813774440716489 1.335843901139596
Ni 4.195959029018058 6.952364242545198 1.5653922453405484 0.07959646877740485 1.4729227804041858 0.49805070736553575
Ni 5.5834254675070465 8.11414913711851 7.823446446803768 0.8145313950326423 1.0383780640120954 0.047068414242712485
Ni 5.610222127552197 3.586344139918703 4.185959566911293 -0.42930480814938976 0.47688641458309483 2.870296008406831
Ni 1.0283492100160585 8.099874622026338 7.255683085169343 -0.413827538449397 -0.6975860532931341 -0.9968249231606573
Ni 5.670605881931867 4.867062030761888 7.47665422164316 -0.7302781442095164 -1.1755230206279303 -1.7335444521201437
Ni 0.9532254672259939 7.716662304139514 11.599710089406912 -1.4561985256709695 -0.018787565020148292 0.5968294054983464
Ni 5.0142246147428144 0.7778542874679745 10.136401618909346 -0.5969787865920171 -2.2382630584241583 -0.010655422831317133
Ni 8.683961494045898 7.3479983091791095 5.041952221424411 -0.39562669917065413 -0.6460583177274875 -0.2873459750846793
Ni 7.403152333924628 6.588354980767024 6.967560577346006 0.3944411635029852 0.40211513510847524 0.07818261914901374
Ni 2.5022932894886285 5.393293307404674 2.453630335800369 -0.13473994671876796 0.6674087583788054 0.4518790939054798
Ni 2.357759260716491 5.8353925635106085 11.495690493175788 1.0662164263806024 -2.056829564303593 1.4628178307597
Ni 1.2574989864988866 3.628099834641646 3.479432220265132 0.327622563216539 -0.9770767939994528 0.47537126349014897
Ni 1.6487156200735842 1.3967302702144058 2.328264680811209 -0.14127543384444055 0.3550847731925497 0.2553267418656054
Ni 1.242841140438767 4.032057659436722 8.444668049996931 0.04479247372434221 -0.7543580679768556 -0.6176247449771427
Ni 4.295141353510785 2.949804813784881 6.45755880373193 -0.22631569934523602 -0.17116862185944715 0.13319471371883512
Ni 4.394588358909953 6.953340823820685 5.935934800246771 -0.31948425038012074 -0.17192941128487163 -0.7372874856478141
Ni 8.629209054123942 7.430670021266633 0.527879599804963 0.1794383180674071 -0.06464498967389512 -0.6387718113684032
P 0.39078858066048866 6.133112948617146 7.944377327570878 -0.3170381028324733 -1.1818949855925451 -0.34004124859586593
P 8.756484062410598 2.149035548668624 7.714269223668179 0.4020531715222882 -0.49866108725602504 1.0348523102470242
P 2.4554904036876986 3.803163436932526 10.593866057980541 0.1425157340094449 -0.1289966164770875 -1.703799359647227
P 4.438443247028804 6.142102972508315 3.702927864970722 -1.0977152683198321 1.2478898044261153 0.4604519231761554
P 7.038449425633024 4.232457613323425 10.020773483198855 0.37094436593262564 0.1545423261566758 1.019935798146508
P 6.443401113315704 8.124106615357357 10.292625416818346 0.7273622561143023 -0.38820161035117656 -0.38167409364530397
P 2.668375994816147 8.651506138759604 5.865069681972055 0.3031073516839941 -0.12845359948942395 0.11704587187311455
P 7.1673581539973625 4.119712674107574 1.2149081778814843 -0.5203781672181425 0.25954000861600457 -0.12383692665301899
Ni 3.0516887089088627 1.8583337710466639 0.08889262608165653 -0.21026584497122497 -0.46684522829700886 1.3094985783768478
Ni 2.133784452300965 1.5816144468270095 6.9612420052243245 -0.7881040540790493 -0.5672799739760036 0.8100931567556307
Ni 7.268119437000924 0.7287714951005331 8.859092635602558 -0.5905885667949571 -0.5647718628421693 1.5562134102037264
Ni 2.883944902720234 1.9881004306249823 9.28417656019549 -0.1422102869538841 -0.3544011168619638 -0.13831480855421988
Ni 6.411977100871749 2.4531995448078168 2.498513828683214 2.5976575147356553 -0.8785780890009063 -2.828437677610148
Ni 4.260659820251052 7.054804880265486 10.464839592247476 0.2480800876055211 1.0993869995953003 -0.27847181252350106
Ni 7.174659696243997 6.133478025729477 11.451207672423728 0.9048290522776353 0.6118202224802237 -0.459643311231931
Ni 7.967123457054707 4.403012513277008 8.004182434727502 0.5479954147147789 -0.6111334808258443 0.6537526010479515
Ni 3.7600843376773803 8.686608303110303 12.439566335554966 -0.6343718825284945 -0.10989897641568815 0.057606080549242725
Ni 0.3111908178587984 5.121082685522317 10.37278813645137 -1.0784240241903877 -0.3106869638034649 0.7378351306211679
Ni 9.12820557818678 2.3115039905840584 5.587553576954737 -0.04663441202908743 0.14875631560251804 -0.6316627111274477
Ni 4.076806986480785 2.5569727139881153 11.505281068916743 -0.8937262574962543 -0.07646100847221671 -1.2262418871390364
Ni 1.2955674023872792 3.381325960561003 12.363785453962706 -0.048359622250310264 0.9469614626713111 0.6811068246911883
Ni 3.235130830927756 8.643337538371181 8.135813725657057 -0.020394761606268103 0.08969421933303907 0.4802512172902697
Ni 5.626477185978767 8.15778497896996 3.256136455278544 0.27722354193869675 0.2113793897503779 1.1206022002203344
Ni 3.167363391951176 8.70522723583922 3.6301524807057315 1.1161439073386648 -0.16569140079495978 -0.762166765387997
Ni 3.6214554311972083 4.181684513925887 8.60045101729279 -0.473583575462107 1.3928339453713947 0.5520726701079459
Ni 5.148098391834866 4.600820419666156 11.109037323505236 -0.16222838194702383 0.6858412540523802 0.01762619772219545
Ni 8.402267994170723 8.796815956395447 2.919350081074167 -1.735564567873966 0.9995515780632012 -0.18189423580706737
Ni 5.1886128243758805 0.6660211283401719 1.30093859940246 -1.765819252993449 -0.7897148502095948 0.5591743141497337
Ni 6.049455528326327 5.938435578466243 0.24419004081811496 1.2440745444450831 -1.581336173413283 -0.049711251182198254
Ni 8.285324668163055 9.35108515526531 11.012564783878794 -0.20287598026505704 -0.35424350823817696 0.6346395343675844
Ni 0.15369837698444538 4.899845955449279 5.834266300619065 0.15830127897847573 0.27171701029817075 -0.08012225937388782
Ni 7.528017833269893 6.402393826673041 2.841966510958769 0.435825639987043 0.4147243392320535 -0.7160234340627152
P 8.705510170601277 1.8544639536559473 3.2372619685709925 0.36724274871132234 -0.8139508399388241 -0.11908295690780135
P 2.0302120755324493 3.525732212343825 1.3385561450571228 -0.22921898903496007 -0.9026675258499423 -0.12469541799857234
P 4.670906098306042 1.2126401363211234 7.860875977745581 -0.2749964523803909 -0.5130302114935036 -0.4077638487538203
P 8.994632989712402 1.7110707908598461 12.408641566062125 -1.1498047899262198 0.4465306851093729 -0.9565020551718946
P 6.6787389468525555 7.759549737910685 1.3780437982197054 -0.13392439279600807 0.7842484277783848 1.6110578688474317
P 1.9540022283331975 3.428566938896731 5.832636231312503 -0.18460340720811433 0.7034134586081885 0.909675324626343
P 7.093311388688677 4.08148910044644 5.969931693639883 -0.3616166607737966 0.02203358276127173 -1.309376450976687
P 2.4463817297350214 8.588566844593611 10.352791037623398 1.8424692375480205 -0.26397259046606153 -0.7534404412585928
