# total energy = -340884.9258646916 ev
CRYSTAL
PRIMVEC
9.13467962071197 0.00000000000000 0.00000000000000
0.00000000000000 9.13467962071197 0.00000000000000
0.00000000000000 0.00000000000000 13.36952697247970
PRIMCOORD
 96 1
Ni 4.862700596844618 2.959444402696658 9.3219032073989 -0.8924484192250953 -0.10169150090423132 -0.24286923282854306
Ni 4.7954876234264585 0.4566234566362643 6.330056268780947 -0.11435032731882241 -0.9680547930065005 -0.8737670407655082
Ni 2.7663281386258074 1.6303119639584231 4.856561178601299 0.7866611509849355 -0.7998221138469258 1.5639321190042226
Ni 3.77930931207422 2.836409401477686 2.975615526214213 -0.22699267080760263 -0.38952212893481303 -0.8691837922701999
Ni 5.64181569996798 3.1652487369058373 0.6259036874321288 -0.8796728647269818 0.6437774921131105 -0.8013218383209039
Ni 5.288869944744976 4.713896664120804 2.8259173083452995 0.2258744980427594 0.5171884566362512 0.7655881323647202
Ni 5.412544373544713 5.081494445623059 12.03677204126066 -0.18718967987805182 0.6685428719832486 -0.13187856601057288
Ni 5.885245779965335 7.638519667704928 12.672975080082972 -1.3940570191452186 1.450179316060083 -1.2708315008239532
Ni 2.096363323539086 5.775556545824908 11.152405331407383 1.9026387079490652 0.3910051412382427 3.0303057854359814
Ni 0.7802012165426894 7.845940840225471 11.499557872748651 -2.093843165413465 -1.0076716360671742 0.13147490281425098
Ni 7.724321714363908 0.21950818073295253 7.37977803755216 1.1661256385734304 -0.6816997210801808 0.4233573323167032
Ni 8.727629261983314 2.270972726486643 1.6573131637581975 -0.686216892224244 0.6321627906923177 0.21304109372351698
Ni 1.5109034305903633 1.3685668511120042 2.9679679723482595 -0.323253744724882 -1.3347169866240045 -0.8474569421160697
Ni 2.0251584950810053 6.422501968004078 0.8436918079728226 -1.5908001470396604 -0.10417107279297542 -1.618176225059768
Ni 7.608749746480441 4.033399563310906 4.215919598900502 0.5166217854995039 -0.8443096547363395 -1.62842618492255
Ni 7.730341468302828 4.199349289878955 12.639564075520013 1.6805072218885058 -1.2799002958944408 -0.6801434323366544
Ni 6.755451909308577 1.1112703272917666 9.48073245112114 0.6774414600244592 0.569366167081071 0.9620731215017689
Ni 6.813265297289487 0.6890352859490609 0.6988815572248741 0.41657964727323743 0.4986346048934638 -1.8587841726579601
Ni 1.9512223973850844 7.068131996302817 9.258624540538392 -0.3095451368895379 1.0884749806684868 0.8181489371805716
Ni 0.08821086170252028 4.670598282223267 1.3324656833699668 0.24688118220141356 0.787895537612669 0.18709403484045198
Ni 6.541398959307526 2.2680313596151227 7.386329429851088 -0.6741075105552197 0.9314291713636669 -0.43071660089525177
Ni 3.616063450704835 4.644957236234578 1.0960528643375245 0.17104109514264737 -0.8988597220680777 -1.2517624000076444
Ni 6.577252577229009 5.927968677040183 5.005644632524705 -1.8441545956702434 -0.1832666906745618 0.6718225711757848
Ni 6.44429731382845 2.3496040495613264 11.79190964348239 -0.05702321146257921 -0.3043299112371855 -0.5206345062033227
P 0.3024857844208949 5.898043466260367 12.761053488929477 -0.5775011374833796 0.07404108617681443 -0.7213397040693061
P 3.7523711415645495 6.52448153245642 12.83922442414601 0.6342595253203464 -1.160900385618749 -0.4922616114875844
P 2.4561966272749043 8.37324936204345 1.6022977281771222 -0.6430521839113119 2.3284828112433638 0.5974492984705323
P 6.423945247400662 7.823816645930991 6.111171073205253 -0.19866091374244496 0.18654510431551746 0.7104875918461506
P 4.897713824231381 1.3184448634597286 12.784530529291263 -0.9789179609732496 -0.2248352581449676 1.3246989402663703
P 3.89726543136597 6.9302348711709145 8.317784500219895 0.7608087086982058 -1.0373660778078133 -0.2625163176355092
P 4.875973286485362 0.9212050462491392 3.7965309237601748 -0.29065652751515103 1.0255467165753822 0.9692423855566985
P 0.18583501086187854 5.748801068909741 4.0075155348415255 -0.307048081499297 0.34270491147095816 -0.5402293976161147
Ni 0.34943986514446457 0.10465967948372173 5.213032920198237 1.2261058757818046 0.983383967164403 -0.3712456992231284
Ni 1.9163187861550235 6.762787057127928 4.952567575981321 -1.385180285480879 0.09914225211981635 -1.3844868589582802
Ni 8.285017490577562 7.564958091877741 9.361383293171295 0.025393500372440137 0.9040533504538752 -0.13394059074592415
Ni 8.765739145796926 2.8984156074524714 10.713630125486224 -0.24643458158229814 -0.4388101765366636 -1.5502775043352657
Ni 3.4992674357381874 4.205487794654302 5.003920004992584 -1.029061671707176 1.2670571213831856 -0.0028667800248337724
Ni 1.2933062248559266 1.4191547074302657 7.18736423035218 -1.3090208674094812 1.4033222464972281 -0.03589439990376399
Ni 1.3332339099348578 1.4641521397566937 11.876271151148703 0.6546296043362662 0.003930188292341618 -0.4875613777984377
Ni 4.158681695742281 6.981023690443131 1.710403922321169 1.7223591249272856 0.21430556225823735 -0.3106728227360779
Ni 5.842732980524167 8.247236455234058 8.526375825213238 -1.2521231257811725 -1.153707981635368 -0.8879829272545738
Ni 6.972829882729609 0.7142744060298404 5.2368972709803705 -1.2590897869069928 -3.599544425800252e-05 -0.7625388040154352
Ni 0.6881154237007313 8.087288213245477 7.364617209612215 -0.4179173922480544 -0.6962776188943557 -0.5527403855989319
Ni 4.792738084829168 4.578858693742895 7.150036275123046 1.1167835978051925 0.8546166930893023 -0.4991786503223919
Ni 0.7356239794836218 0.2706066656478539 9.517057418516448 -1.5255013258318502 0.8985036242802398 -0.6227173290087018
Ni 4.590870797581558 0.6102157884720381 10.682947649757185 -0.15140763718243602 -0.29077222715740886 0.08366549664045592
Ni 8.118236508154519 7.603186726527783 4.656031208465461 0.8531596489278016 -0.8716818761017052 0.04512825979720615
Ni 7.17930104855873 6.200474442602911 7.5408014313444 -0.4176908780595452 0.7120762764895091 -1.1359825393311467
Ni 2.011109357663619 5.218560314899967 2.8785659484095705 0.6624616987861752 0.3542851601093899 0.51673028605291
Ni 3.4356900648506645 4.913891342024745 9.056290471156823 -0.5260932153250488 -0.35082239837177 1.0067262414347695
Ni 0.859032589103355 3.4405679838239314 4.07127468585558 0.1296671601815509 -0.016267369701455855 -0.15486088583835908
Ni 0.7125205475225983 0.4419412859139201 0.724528997489371 0.07977747443995938 -0.3877490961947903 -0.20943923530487155
Ni 2.1362636045788412 6.0474868265649455 7.114527034627203 0.13854852183158073 -1.3231326242205148 0.5308399859814148
Ni 5.427598325731874 2.8552725151102627 5.020992721399017 -0.22234463051263 -0.7910793346572892 0.09650661426918218
Ni 3.9765818554200445 7.064057929145369 5.9289177702636335 2.1251175500467143 0.3866327232021599 0.4109687288443632
Ni 0.7125187205866533 7.80937471728542 2.7734952083382143 0.4307592812077291 -0.5551441099444181 0.1550467765969201
P 0.18035237609080218 6.066523499112302 8.305925859000615 0.7160036365683733 -0.9326028799567939 -1.2090658895803823
P 8.627038168849205 2.1325914633293035 8.480438434343085 0.058084048626925774 -0.6414619566060565 -0.217547980454935
P 1.9971424323637592 3.7590029190450585 10.7211041204374 0.15965650745478957 -1.654636524769331 -0.5414293314614869
P 3.902782777920002 6.23117610115937 3.7832819842867176 0.25930192446326955 -1.2240903880136724 0.9166756672035761
P 6.348766833262112 3.8849975564950014 10.344658488153296 1.9965626490927355 1.4502659622366183 0.44428688338051864
P 6.631713537750763 8.295010830196953 10.535160406886789 -0.9978801038980494 -0.6486813571726312 1.3601858203190704
P 2.3679190824103897 8.71890564284573 5.966017358499637 0.040958444690232694 0.2280977309463233 -1.0754466867296189
P 7.172349557287839 4.152387901411605 1.9075504070867861 0.057015498153095354 -0.17664198626919256 -0.9823727522910695
Ni 2.964632900780582 1.700027839621293 0.4822919066641291 -0.06530704873792624 0.7590531594596799 0.140724446436977
Ni 1.403963735047227 3.8238956838130127 8.129019997570138 -0.6527092473851016 0.06501291453627514 0.5951646162014137
Ni 7.993274089513525 0.4304489453516223 11.73769623278119 0.4137879434607132 -2.027819036003856 -0.671109090048528
Ni 2.4870261713475177 1.9928765369320822 9.526242338980154 0.43975120029369424 0.018483403516168166 0.3350201412321908
Ni 6.297393394487481 2.292174318128876 2.662433945303059 0.6537348604361386 -0.9825105634205143 1.4060553291576752
Ni 4.043447711008646 7.1054106242614345 10.705367807674765 0.4400941854554098 1.231669485912511 0.36246923858207897
Ni 7.541564177101456 6.352256280917145 11.283386590519322 -0.6654117825534347 0.6669685855175933 1.3376228474168899
Ni 7.999595287883377 4.319269365311627 8.634829137186843 -0.98069844991244 -1.8162337008902592 -0.33235082193014376
Ni 2.5637300770001796 8.591065800091293 12.75641398509704 1.83100777387564 -0.4049564612120122 1.3514844358903306
Ni 0.11596475911165252 5.193503888413693 10.40206720982238 -0.05815372552259662 -0.025529254619356033 -0.5741661595728756
Ni 8.602164435957434 2.344095837687019 5.841253162408681 0.026385431972064236 1.2923140961777615 1.1957018095686505
Ni 3.9493331057997167 3.3439778804094678 11.864974292732526 -0.7786135980901107 -1.0851873110561505 -0.20279061964010237
Ni 1.5208145580922257 3.6827831514178326 13.005394296495437 -0.1498186954287613 0.5323096285484059 -0.49990627251703584
Ni 2.7692238320987017 9.168934774188358 8.011716094410769 2.1651483407163545 -1.4487760079546534 1.136000794163592
Ni 5.917683027669587 8.084830984399392 3.8615068141136284 -1.4648346040794127 -0.43339826149247296 -0.8035761815727193
Ni 3.345695200197809 8.32812404420087 3.6213369013102037 -0.27565516901031234 1.3456043229604697 0.7621829633379131
Ni 3.727479139313328 2.506409961724432 7.120863761952587 -1.0566696632324317 0.39739021882898007 -0.1045896483876328
Ni 5.772395946639982 5.807692349098228 9.601392435611556 0.20874169501721468 0.25634464160715853 -0.7610113116273152
Ni 7.838852328758701 9.081305791584334 2.6674214804330285 0.08407044538835845 -0.5594723050061268 -0.5181780742430301
Ni 4.682500769905228 0.5334333245737389 1.654411989477468 -0.7433342060625262 -1.181448899194062 0.2848018685065869
Ni 6.851092006031618 5.855092202192388 0.31272667386083774 -0.4530926545976067 0.043885131418724424 2.250897202248401
Ni 8.415442447694238 7.696013341895455 0.46269253784569964 0.417940532176506 -0.4634341457329309 -0.35799294797828024
Ni -0.004454069834016681 5.093935879408807 6.079471907622799 -0.13269386282301662 -0.472561819065812 0.5670259489836685
Ni 7.665275144620094 6.181099786905721 2.5595692303853426 -0.1160174306086002 0.6795232822541523 1.3424215543571136
P 8.360214174075564 1.5436329880458222 3.8637667338776476 1.4735550146715461 1.6988623273569257 -0.636586116570994
P 1.8461827152247938 3.2330920032250368 1.8677095014652443 0.19541875265606345 -0.07981295566358512 -0.6138753052370396
P 4.702706681457411 1.0225543178004417 8.398964398937915 0.5736833063991862 0.8081136644317566 0.6022436345353822
P 8.590983587973765 2.1246991000467146 12.702922214094132 0.0016262227495133284 0.6582371191818663 2.4001101457723633
P 6.380738212300377 7.728313569403829 1.43122161934728 0.1349415212066128 0.6949025929237 0.9216661784396321
P 1.7189274919727708 3.313705551800093 6.074739230057164 0.3188723278277347 0.13876603715902552 -0.29551745515187816
P 6.818243697739732 4.080954705960394 6.2165496519833505 0.18665180509671078 0.8467583733871481 1.2974105368640623
P 2.4051611716501067 -0.15697033639815966 10.701210614931815 1.3990493301534874 0.4260060827934599 -1.6822817972904252
