# total energy = -381165.26711157593 ev
CRYSTAL
PRIMVEC
9.35302588475716 0.00000000000000 0.00000000000000
0.00000000000000 9.35302588475716 0.00000000000000
0.00000000000000 0.00000000000000 13.68909880069564
PRIMCOORD
 96 1
Ni 0.6949354176004617 0.6539878713053469 6.2785738824475015 1.5711651464175522 -1.8364762531893792 0.8509988938310569
Ni 8.251921999184558 3.567440396397684 5.132152951886949 -0.8148751515253063 -0.683555543341997 -0.8988777197902067
Ni 3.1096846150419237 1.1971966362085462 9.471322718285888 -0.9857241852618056 -1.3033754961982456 0.584034310616207
Ni 1.101879951810758 6.600261846649006 8.335524954258455 -0.6073099933146959 -0.5114104165018935 2.730041816738053
Ni 7.85072396393354 6.992976687635594 4.589188300953212 1.8038391838806482 -0.8252660078413271 -1.041920272837399
Ni 0.5087821480911713 1.1880867892255764 9.264507679813478 0.5581404735685807 0.07303218529632584 -0.4361305728219715
Ni 1.7806103171702612 4.511141978417902 1.5082651750871923 0.64922668815314 -0.6094427233869827 -1.111321289139041
Ni 8.951677966204961 6.858087351713222 12.331126288250593 1.193648783694364 1.1397687458464563 0.06711324870872958
Ni 6.89395620508046 3.8323554949044993 13.019208743957396 0.04031001247295638 -1.3449800591129095 1.1917155712273928
Ni 9.228714585954004 2.5870188356760906 11.302390738232049 -0.8675321155993898 -0.04217689047836608 0.2461113939149245
Ni 3.50541113028777 7.858075442094336 4.307110400378892 -0.3484394999618903 0.36677712192881345 0.7612290840650762
Ni 7.756183580664691 8.950396601690931 6.012539226770397 -0.277811810341999 0.49114703826716705 -0.022909300498005707
Ni 4.512170811239387 9.203994539161407 2.7061707706399982 0.41057843538448 0.006182217551311933 0.15410806683273462
Ni 1.1216054829063262 2.8416643120193528 5.704480491545879 0.19184929013725022 0.2943108364382867 1.1321181712797341
Ni 8.367198040319161 1.9403412892186793 7.129543021056989 -0.812845008469155 0.5793186503080926 0.2374290356495782
Ni 4.720425280359311 6.391474255067039 8.664213658158884 1.439361913729605 -0.25884812475530256 -0.540971675098778
Ni 4.459242039086793 2.994165395240424 13.369499195898756 0.3542386231421706 -1.015923077442689 1.5486039732875847
Ni 2.2633760891137644 8.966801808680795 13.475575601004152 -1.4745310054315701 0.1464135264019543 0.10740372079766018
Ni 8.651586138229 1.331683792027975 4.672445194078062 1.0170415073178483 0.6289725658897942 -1.0081051240601673
Ni 3.7587565360657007 5.164534997291916 12.86984653614442 -0.42100888668918457 1.4174651136565137 -0.694792549708397
Ni 0.6962672884530028 3.6429099603664556 3.4861205148849206 -0.5492449708511637 0.7395454284440554 1.7230774911505486
Ni 4.050589642392832 2.032861418947158 4.2455918094694605 0.2106862203380952 -2.852461551328571 1.237619532848359
Ni 4.80803507162161 5.80270129040795 3.688418041968445 -0.3138630475386014 1.0031395525247757 -0.5708144694918234
Ni 5.843686248805664 4.497926153174641 1.7240189001731798 0.6058267239009502 -0.9506931617996014 -0.820599198493277
P 2.3589733642810486 8.355890232308473 2.041646715940077 0.14888435653995005 -0.455666328862054 0.3477568720725689
Ni 6.396581007071865 1.7441428701614323 5.341048103263891 -0.9164679220681442 0.10664807357855827 1.050513413823049
P 5.237610186694323 1.5965708314578406 1.5016666154912115 -1.6428063649036222 2.8930201894772236 0.22533585193046998
Ni 7.01431093914294 9.371544640653115 3.851482432358476 -0.1516027839123776 -1.465931179577701 -0.8138659935345015
P 3.756343455448035 0.4613931730309933 11.501621408204983 1.1380111397254014 -1.3829657943280633 -0.18865135202524283
P 4.479369750285306 0.22822972600034439 5.639086942109707 0.6934784588826638 0.1587774472839459 -1.6627396134924395
P 1.649667958072132 8.877620709109319 8.036554554057911 0.8123181894314075 0.14975158963625176 0.5816876647609015
Ni 7.442118332367829 6.68950841740003 0.624714771626395 0.16196741497615333 -0.5320293783038257 0.5200259260850463
Ni 1.7537110154012456 2.732299383095465 13.02697081994422 0.13849350022392923 -0.2505843420846136 1.8002638078245643
Ni 4.110767009424071 0.32844365462840275 7.678626421370869 -0.2639170546377777 0.5571593406022339 0.2696562711144001
Ni 6.647307565667833 0.1893398453482 1.371305079285939 1.0811380806874413 -1.4922474488747266 -0.8265284194935185
Ni 5.608167709916379 5.081470776495454 10.387547916854494 0.3957742804921119 -1.2204358219802207 0.4136892130993197
Ni 9.117320050464095 8.700203165557005 0.2532677756650367 -0.08388326907821682 -0.36995320566394996 1.1985495634300904
Ni 9.1974848333091 4.930260410814064 0.21512987827514155 -0.39470470157701704 0.60049579860634 -0.7881678174374491
Ni 0.9395862507342767 8.293215607428719 10.161240237625197 0.45812558903582395 -1.4095959953210822 -0.7924379055677127
Ni 0.9067739661494154 7.618853105047703 3.838505109269286 -1.0732609919322098 3.1177981120216947 0.41160919064183954
Ni 5.834623166950943 7.630104794904493 5.255532454444597 -1.7534468474710252 0.4464067579369989 0.3459275321733139
Ni 3.8038381196980566 3.3592701045086075 2.4057356866226858 0.18527163691973256 0.32502549191332414 -0.7492050630210064
Ni 8.781864432505989 8.336716529726248 7.876528961701522 0.536662763310779 -0.3259528888235999 0.7663031561538738
Ni 6.963542715915466 2.1742885197987873 3.036858216121804 -1.593442983979146 1.6735202490477112 -0.14505701237405985
Ni 5.623291552392213 3.6601008215109103 7.152717948012228 -0.3912144290355714 -0.36354910190981904 -1.1670306668862032
Ni 0.02951814895097829 5.805376255743812 2.5574791747661174 -0.9845587041987948 0.6101006686859557 -0.6673113135689926
Ni 5.211861307080241 2.2247387401541663 11.052633153093407 -1.157255332666994 0.9341329434480752 0.5028010775663276
Ni 4.00445116686204 5.677118215007194 1.3814624651416938 -0.5956053032832581 0.547207885816477 0.43614959898536493
Ni 1.8213895090036787 6.649393290387754 13.652260802648083 -0.485236586320003 -0.6179957551633163 1.5541884093538976
Ni 7.676355506743082 0.31106573297095097 9.416744072408658 -0.45008754922269584 0.35454664130089264 1.3753676702658313
Ni 2.552674525489781 5.679138468547565 10.358294458529405 0.582692708986648 -0.6011444879339325 -1.28253361975223
Ni 8.243261097432782 4.85496855433264 11.54027933382101 -0.5044596962156731 -1.0575466665207465 -0.6898215788563667
Ni 8.922618115510828 4.938855841386291 6.79170892867612 -0.024301809970158145 1.1297476141650284 0.5224414775050744
Ni 1.9533326418463437 4.964969489000718 7.049775741802104 0.7919385973337909 -1.268389467041364 -0.36520489234568715
Ni 1.9002074561551028 3.2496994090204234 9.866185013961688 0.06168564993525505 0.5084539049767308 -0.17037877896830014
Ni 6.6299764091386315 5.048314300566678 5.836429236203934 0.5730014498408132 2.297161118311947 -2.2413969760674495
P 1.1164052006450005 2.4001921483200097 1.942948912769862 1.3540622239198359 -1.3801686911989006 -1.7111365167385888
Ni 5.18527065515767 3.813602678476517 4.474774608783526 1.8589147846985532 -0.03920700921676473 0.6212096341149237
P 6.7434005511945605 5.6140414100244955 7.824373684770173 0.28979495084580414 0.021199516895750586 0.9751770058735787
Ni 6.311749064427577 7.968197966095862 7.685867533828996 -0.14245274198199337 -0.2480453777128438 0.48968716589218897
P 0.6937372950147139 5.663696623199635 4.6953470126843255 -0.05721218754493373 -0.7385231578271281 1.2710521014751917
P 9.019665109653841 6.1545621153559225 10.095107799162685 1.3822692824816711 1.0876725393718492 -0.6114342998957147
P 0.6805560759663573 2.994866872164164 7.973201834818541 0.7902910344280389 0.4548777715224876 -1.2286471541464195
Ni 4.004310871477292 5.615435010846325 5.909542773011503 1.2742731795156506 -0.660407644470624 0.7590351617375508
Ni 6.244884284056683 1.163067445612184 7.826304149264304 -0.2820433319248433 0.1589394267831069 -0.3992529830693318
Ni 7.349345670946804 7.469195341624192 10.640426606652497 0.5874505353866077 0.5560766490610164 -0.8624711561367145
Ni 8.633057794416615 4.060185846709594 9.20138785091279 1.4818956733267574 1.2264961692416876 0.18553903164850627
Ni 7.902764198649397 1.6323368015429298 13.250266824914261 0.6704298045933164 -0.6907312351548298 1.2548978603128322
Ni 6.870723289366191 8.556400396190309 12.892817567140492 0.41800480975553816 0.7239704568239339 -1.1706708347419517
Ni 6.622858756619083 3.286194915106202 9.08524946081327 1.46382930274335 -0.5087853201742205 1.3045769727055145
Ni 9.183230822218704 9.292034569603599 11.724561998200327 -1.8772238674203863 1.3101369832917953 0.4849087706669391
Ni 5.299358862034741 9.300508410842378 10.005142916041752 0.2400903845318252 -0.08156413402673696 -0.30076867624848846
Ni 1.9757237852521239 1.3167750691420879 3.8186701477736142 -1.830343143708448 -0.16903460623557987 0.04104869041119382
Ni 3.2782916084320646 7.877295909804812 9.382822518981722 -1.024880800856609 1.3143034559646591 -0.0023844410717765384
Ni 7.394230841040513 4.784259680419649 3.295691977351076 -0.3613747199663196 0.162286745988785 0.9019129070721047
Ni 8.478863813552918 3.329443305711184 1.6259224965522512 -0.4828377470705234 0.3449921648432381 -0.6313297532680612
Ni 4.54485028286002 2.788314653712515 8.87655914069806 -1.6275828630856484 -0.831350009251878 0.4090092911251472
Ni 5.109146379393408 7.243319772179919 13.67132975134303 -0.6268388073762431 -0.06273106048063389 0.6350838209938546
Ni 2.868928381788713 7.377189628306456 11.796977799294417 0.15445310887697916 1.6176077541508076 -0.05216125538458759
Ni 8.720611467525012 1.0496339505306045 2.0800998102943726 1.2527975261403779 -1.2555627475903408 0.3935880714740705
Ni 1.341186466088239 4.749784427874243 12.089294457047647 -0.6064293904819557 0.7718971053018835 -0.20334083571661754
Ni 3.449676450440216 2.8628769741932496 6.765070576322736 -0.4601269357365689 -0.14309371800010195 -0.6090688849873317
Ni 5.150019101483324 7.187304501562869 11.231303066780239 -0.7549833602656805 0.6044151882654042 0.12506257153000397
Ni 1.841666868612589 1.1371034464081549 11.439678189931048 -1.3976118263760124 -0.493642293885195 -0.018587790304516374
Ni 2.4126877905882314 6.280248074038828 2.9927240939877793 1.2264156937127395 -1.3705540509272718 -0.7832503255311736
Ni 3.8014250390803914 7.66181155185754 6.707562562811968 -0.4294593314493829 0.3914404290034484 0.6929948343780258
Ni 1.2887253452181386 7.550379604265032 6.3480734101439635 0.14131451461249211 -0.16861320242744512 -2.12767605480251
Ni 2.990536421288276 1.09263916246869 1.622021349553692 -1.6185336083991866 1.6222935896622512 -0.7433619739766681
P 8.25470920082822 7.911939516811916 2.4174952457722623 0.020734147223557837 0.10758524068084696 -0.09483025500802378
Ni 4.405387317394863 0.3153634482570646 13.518176762234162 2.0802528283235397 -0.0021574126626349942 -0.1106762209013449
P 7.1263508334026895 1.538245363505274 11.33629826212051 1.8428435901683038 -0.8653934719898322 -0.919456829493139
Ni 6.041633683659436 7.532795916043283 2.6959993552457684 0.5844896529860709 -1.7678452822845423 -0.4455444099367037
P 3.3408727030553207 3.550062474740232 11.582497020999377 -0.8322612082122376 -0.5858122284522363 -0.6472055439580531
P 5.9201472334933225 5.5541913988910006 12.568317148126074 -0.2460828546698343 1.3165608845402679 -0.042591866528597616
P 3.6040855508938603 4.638184125820037 8.668881753260733 -1.4707643393002865 -0.10762586411079528 -0.9880502622918208
Ni 2.82991691180312 4.142258646787172 4.696099931249139 -0.8514822612253786 0.13066629087002657 -1.0379826283458897
