# total energy = -381163.99836910225 ev
CRYSTAL
PRIMVEC
9.30351173243003 0.00000000000000 0.00000000000000

0.00000000000000 9.30351173243003 0.00000000000000

0.00000000000000 0.00000000000000 13.61662983379425

PRIMCOORD
 96 1
Ni 4.24648552974784 5.187154283792246 1.8412133232739802 -0.509624014025432 0.27444443653166284 0.7772146608600551
Ni 5.89276981734261 3.7733740545139822 7.174819765218966 0.4374693462380531 1.5227492170080097 -0.050989346563673474
Ni 2.028444633457968 7.146520343643712 1.6412808590579926 1.339310519531958 -0.19802456571002672 -0.7585746771613645
Ni 7.734418544959323 4.1313266632022145 4.838451226333586 0.6779983609691936 -0.5970962860064878 0.6539143234367965
Ni 2.029812249662703 3.5492524601462234 9.43104134275109 -0.8060094736045603 -0.46295437788303495 0.6608413895739328
Ni 7.139812511782394 4.586314897845438 9.828278959508118 0.9800790711608863 -0.7053430715307336 -0.9930446301826187
Ni 0.6714390836993913 5.636290609641059 -0.1536949419308764 0.24101726722146877 0.3925614299817691 0.4728626381356824
Ni 6.582336793388436 0.11499884614615995 0.895902116942754 0.728145671247546 -0.09022386658426397 -0.19493589948237394
Ni 1.4128033605605956 1.7366958132928147 12.34016568747707 -1.170086165883075 -0.853502119868885 0.2599704112852039
Ni 1.0438819116996945 4.141895452376219 5.077640788083579 -0.26505476778664677 0.9377224605715463 -0.27891507070850674
Ni 8.649186322718139 3.7828915468775444 2.6183421594157386 -0.2247128736344904 0.029096403145324082 0.6349753204404484
Ni 4.0885770274147575 1.0795701821851542 10.891207020148855 0.2683774044019765 2.214839023073263 1.2854767615409537
Ni 3.1565512356438115 1.9172490628525947 8.26044653345366 -0.8510035218167472 -0.6980015435639979 -0.8501946527622068
Ni 0.5489667266874937 3.3518319440613813 0.7443832663743774 -0.26710650810935294 -1.8710323938976938 -1.171679221401808
Ni 1.7256618485389683 9.104639732941205 0.43043533718801547 -0.6807718099492727 0.9985365065351255 0.4224775008149111
Ni 7.623111332214787 5.763776629052492 7.0679977754152645 0.28318695861098325 0.27973988060264726 0.034401360298005265
Ni 7.51392532011433 5.22679654670636 1.0869497275837638 0.4169768827116561 1.134365315442698 -1.2377910254292164
Ni 6.979429275364553 1.6389996380144487 9.535589554320524 -0.525629902535385 0.03512821116170079 0.014725736245948832
Ni 2.8797252480799815 2.320016686902782 5.444554539141884 -0.2291274577624183 -0.8776756317912948 -1.1938619281464342
Ni 5.318398921888799 5.255442058913015 5.095233728513195 -0.05419936886053891 -0.385179278585085 -0.584354155849471
Ni 7.164838957977881 2.9329041203674913 0.3691140315509556 1.8295766978560684 -0.961761503798621 0.728233602975662
Ni 2.7450569177157926 7.408535140745381 8.072196488749817 1.0600540063236326 -0.5077741053008867 -0.2283926364789228
Ni 6.562780812011887 7.438213342739286 5.823151640063494 0.48929918642515086 -1.0554404188110211 0.9376761807146431
Ni 4.388978113364967 9.056298686684048 2.0266034685129544 0.6206437343091247 -2.3327968652376856 -1.151047146973753
P 6.236078698777425 7.229489060064288 1.919005565842077 1.2720756576436996 0.09439728123566324 -0.410964357968989
Ni 5.636234788571478 1.5385961408614037 12.727122923919595 -1.2480445848364248 -1.1723993873972842 0.45177830666155744
P 1.6574298944877792 7.522307784063078 9.896538824094097 -1.675745024613172 0.31401911350049144 0.23248891803548344
Ni 2.836063868156034 5.684082748714001 4.189687591449162 1.515493563886861 -0.7202909510898176 0.12677261224257522
P 6.567897743390147 4.756978514577782 12.617740607724446 -0.7783089223654983 -0.05609067234598081 0.8947338728251623
P 3.3485850185140857 7.742577724629747 -0.18059604571312526 -0.4261284673039371 0.2718018567024932 0.1324894601216944
P 9.10438853812809 6.141322433163659 5.260580388367948 -0.6609974555358229 -0.8487008418254995 0.5505405497341357
Ni 2.768622712590576 1.2240444137724071 2.4691984953580337 0.5451998542475126 -0.63922561107637 -0.5178502585899663
Ni 1.1106066968721962 5.503027109527993 10.99525098138974 1.2580554321052075 -0.27244668937534366 -0.7591680877709893
Ni 7.305963925390273 6.176526921046083 4.018961641189119 0.1968727114937706 1.0694097365069195 -1.6140688877596137
Ni 1.9161884625305554 1.0113382281339651 10.147071227182952 -1.3189934052411607 0.6187866264957279 -1.4977236414979496
Ni 2.981347505252212 8.519160444640772 4.033940294860024 -0.0059837283872606626 1.2199120882662668 0.6072750263117025
Ni 8.839070994409544 1.3617549924287613 8.487966700607743 0.7721148777396444 2.069653969761771 -0.5267131082972349
Ni 9.136671723369108 8.083942172140823 13.017919994848393 -0.02412311830044878 -0.0729617370697066 0.03943352340527402
Ni 6.770063050389376 7.2751599984931525 13.376732248008175 0.04532366363746388 -1.731318133892786 0.4547150206923782
Ni 8.58060083522627 3.609074039713873 7.107975895098025 -1.7830836965008516 -0.17468049166744753 0.39267301585896885
Ni 8.780021606304432 8.189248619905399 10.485826039691116 1.7312425434598442 0.28224284953015905 -0.0989638175604231
Ni 0.9905727902498291 0.6361471428079568 4.552243577675508 1.4104922818831063 1.5359464324245742 0.7751366952851038
Ni 5.853090340382109 2.819364064839715 5.101592678689632 -0.3160230313043977 -1.1071476173773256 -0.8019008507528254
Ni 6.904247598150529 6.85247355611414 10.526839640214604 0.7218240999048924 1.633032316235994 2.109205763912464
Ni 5.012815779979151 3.6012311794377414 13.797458440493731 -1.6603713703705794 1.9611644720990995 -1.6069906407565935
Ni 1.3658671445545623 2.67201504816904 3.1772906236954768 -0.9179226522367998 2.2193793341457777 0.7653323076001722
Ni 0.9526051594231448 9.150440920532423 8.06045917851925 3.1237754126510526 -1.0414245641479032 -0.12535362040786152
Ni 1.2983050433383456 7.175091427757594 6.42073107554677 -0.9608204800415904 0.3945859166109656 -1.7252102212228355
Ni 6.978787333064372 2.6354150335470905 11.49246227306404 0.11029415497157778 2.420797756028702 0.3134838098223117
Ni 3.1453870217276094 4.254505156744312 6.638434177263872 -0.2839485193673561 -0.09012822154666414 -0.223090507539719
Ni 8.191118625736364 8.28990331187156 8.101744441581367 -1.2222049980655016 -0.8282479732877865 -0.684645433972066
Ni 5.0880160642163705 5.090695475556259 10.941955815207269 0.3365944276978461 -0.08795821047853884 1.7125328828654827
Ni 4.929121389654022 7.425151212457329 3.5928840688330608 1.2521053851693595 -1.948269875524619 -0.22976149180199137
Ni 3.318981244612956 6.555338002734421 10.821626056916124 0.3622872044782599 0.8099512318611278 0.6763340858928932
Ni 9.201898643174518 1.005877066826623 2.103265334422036 -1.35358708405563 1.3830971776996053 -0.8600520051722608
Ni 1.2413954629005048 2.7112944741308778 6.904175961111234 0.463684314070524 -1.4252491284773066 1.2466060526176854
P 9.157874426298296 3.4787411457538098 9.805716083183473 -0.18725807122214203 -0.07315662668933208 -0.540193659282173
Ni 3.4047968355821636 5.293595759971637 8.871193228899937 -0.10906516766048314 -0.6785380355227475 -0.1889161756508553
P 8.566366462483114 1.123492060433813 13.557370159523485 0.42477452437920393 -0.20388153871143594 -0.8923306627003085
Ni 6.379241135229524 4.269279133160086 2.7274928181721276 -1.5655889378813554 -0.9336094668444371 1.115112380750357
P 5.81213628233284 9.28185302183772 10.138561305125327 1.791934204912946 -0.9749574336636048 0.43899375330237944
P 8.761963490294976 1.6519966437152276 5.807302177707125 0.9522705335890503 1.7474579768774423 0.5543144149542711
P 4.052256118140713 3.195933000233215 11.490297345915456 0.13594836520457232 -0.3752674187880118 -0.07311574614906761
Ni 5.353528981678449 1.7541864150948647 8.113823190687539 -1.9249579402715558 -1.1250728343971783 -0.13200686405832104
Ni 2.3397401314880724 8.727931244873751 11.680127126888442 -0.09478886024712707 -0.8499588826023168 0.6474505700893236
Ni 1.1668092104286774 7.058388178286894 3.794355333867165 -2.05266437718231 -0.3757273891435658 1.1071501884804869
Ni 4.996516027661497 8.180801031375474 11.965517927228317 -0.8883842764580506 -0.011056257814161604 0.021548158484420956
Ni 3.9465496193774716 3.3569023578816566 3.662573883151474 -0.12847365409408198 0.6925991416015039 -1.0244216018320036
Ni 1.0945581393676558 5.135119743431146 7.798938397883375 0.2398088487356644 -0.2854274179057278 -0.3767622581659834
Ni 4.379339675350646 5.91167455290738 13.109341881905854 0.12853356079773992 0.08360044773047537 -0.12607198663112482
Ni 7.438808767481483 8.900353225297899 3.0781068169127765 0.7513192811505319 -2.253688134729977 0.12815303752986965
Ni 3.9995052073866573 8.808462441255957 9.350362220534494 -1.203507164545682 -0.9451691466575786 -0.88837502048667
Ni 5.092100305807381 3.468209570626192 9.400131355821765 -1.3507339308775512 -0.18102391738697213 0.7392978312096236
Ni 5.975766444297977 -0.03750710700264092 4.8293282028617295 1.216213299258441 0.7785192386040914 -1.2900342990046492
Ni 5.875735087608806 8.77314631123437 7.7005714394188765 -0.6264546845639469 -1.1145436527310806 0.7687693583061792
Ni 8.766001214328002 7.027454002227416 2.1156427262504653 -0.06593696901244128 0.15394865843673486 -0.901645512343331
Ni 5.044829163383861 1.8282981884752536 1.425075622707981 -0.5288286119783407 0.6126275488728674 1.003626262353207
Ni 9.1966607661455 3.4599015347702187 11.984990177000494 0.8252546949874174 -0.6969785016161222 0.4445280528570474
Ni 8.82382253890233 6.168116546562544 9.132455371913421 0.19794717550487198 0.1431932196924437 0.37096390631665144
Ni 5.421835363822412 6.438895251588431 9.106202722889472 -1.2214889458350835 0.45600597158965983 -3.0685679142409734
Ni 6.991830856323135 1.2765813437597355 6.858451062315108 1.4737774150949974 -0.23149724354617549 -1.5816825010091082
Ni 8.58809946557332 8.881820630197002 5.454181812942289 -1.9015745283506087 -1.8109518836660294 0.7212826255791255
Ni 7.137868077858656 9.124232928364139 12.084051177430114 0.7257694577058855 0.9101257819002003 -1.2123707855838992
Ni 4.180672488711829 7.460653412710852 5.78285999203992 -0.6705678728330774 0.14343156095549492 1.5076095331530937
Ni 2.4797858915552315 3.839568539525464 12.795152061417975 0.1288138110423201 0.5125856677569173 0.3528422570152762
Ni 8.786227048539521 1.2697990838056425 10.950697394703656 1.1661780890779205 -0.3772903627553115 0.3826901936146441
Ni 3.360707494124762 1.3585545844394498 -0.2358170387961403 0.7146178119644403 0.3457280145679981 0.37034144224130416
Ni 1.6248489968756625 4.912114570455008 1.8947541021626069 0.71997599095256 -0.09354547475832921 1.7691241489969662
P 2.6632418367332247 9.183589332351948 6.52655945031193 -0.5192545951366606 -0.31610042150955237 -0.16386411777823393
Ni 4.520101805810762 0.8704839929090407 6.055573827477948 -1.2415836597024295 0.3397057196333182 1.6532116193973465
P 4.713661364582918 1.2898481512968223 3.623644269225677 -0.052581373641141696 0.0659110008705123 0.7300464878146846
Ni 6.758117341499038 1.6814422579192108 2.9146255111331896 0.8880253504567351 1.9715203614121273 0.5933800134971653
P 4.6020471359556865 5.707806703285931 7.050173177546888 0.840781586978423 0.6582312056445954 1.1272305041701296
P 2.980714866463627 3.1323062844224587 1.4129429132345483 -0.0811051921124474 1.1510062664334886 -0.4089766381149989
P 1.2295148785913463 8.929147593690102 2.752056879841252 0.5505752596268131 -1.801167807696072 -1.5606485631569444
Ni 8.368462163795236 5.452081080023723 11.84863325928148 -1.7276792515886181 2.63839664432623 -0.1057471590308437
