# total energy = -340871.31366583664 ev
CRYSTAL
PRIMVEC
9.24141830425066 0.00000000000000 0.00000000000000
0.00000000000000 9.24141830425066 0.00000000000000
0.00000000000000 0.00000000000000 13.52574982514881
PRIMCOORD
 96 1
Ni 4.6374177207901495 6.18707421875036 8.61419877995421 1.8910684866129623 0.9764512446003119 0.21634239018260806
Ni 5.1501316176380225 6.610534495991946 0.6703660269938162 0.821214977700405 0.0357640449734868 -0.9314888209570087
Ni 1.01893107650966 -0.6787757178036857 13.143701684816786 1.8239850627009038 0.9306210736400747 0.5213770407963021
Ni 5.412366108210395 3.2001553542910757 10.256941313761203 0.7688176950456114 0.08668011509706362 -1.5570600744747378
Ni 6.0971829412694785 3.4195466288254757 12.713190205280771 1.4111201452750923 1.1850078201899141 -0.1368968451607707
Ni 4.078441283069521 3.974678636461592 8.279557775650705 0.6527740391847662 -0.6771002746349565 -1.3331020767284008
Ni 5.354949175241473 0.6706072280159454 3.8198072491339894 0.5461395924529626 -0.20402269227499056 0.2568920294701963
Ni 3.6843687165701158 0.7261601668789882 10.385503306839775 0.6870504438691328 -0.04104071999139384 -0.7991777953947076
Ni 1.4113032220101467 9.196043107684751 10.132869725918361 -0.6028678983829424 -0.2871086622628926 0.8788148876020607
Ni 1.4282519834884992 4.298618078174074 11.809860032442163 1.246655417798382 -0.38797920992772533 0.526829579270441
Ni 9.521248623727951 7.553334767126106 4.317148970494899 -1.7058050772233462 1.6331187053022134 -0.6865202823972757
Ni 4.316038151994518 7.569211524061662 11.451874280935572 1.0005861899753024 0.6541066419532605 -0.6378086761241855
Ni 0.440143810009782 5.478525423054194 1.9864188729509467 -2.9465209896088416 2.5814343680085736 -1.7112589012490658
Ni 7.271868884712701 4.273647765461692 5.559732539596576 -0.04127597593065149 -0.5441480159442307 -0.279417464266222
Ni 0.22508214002969407 5.965372589597863 12.915617007925414 0.26976245767496126 1.3080885854031987 1.2913859279365374
Ni 4.893534392333804 5.628679990393492 5.621004068210329 0.01935346482594731 -0.9586813222114005 -1.2420207472398481
Ni 6.045153755269956 2.440492273024153 2.1888447514537437 0.1332880447635898 2.0716866839210835 0.07705904706753179
Ni 9.228157036876286 1.4032354636837554 12.120681280633097 -0.9960237674156008 0.3561319835101415 0.48065770870006896
Ni 8.082461423180932 1.9525915847746316 6.259148965558331 0.6908109393528296 0.7290437575817831 -0.776272865772076
Ni 3.271175655251348 0.44102544133204746 2.412534209719649 -0.9171744612168656 0.6506256253831956 0.137707256877208
Ni 8.242975620627773 8.976614867476462 10.704427430747293 -0.43077496493701295 1.6217397740413104 -2.3019662530100744
Ni 7.60711058121691 4.740367122572509 10.482510476544391 0.2921534237756517 -0.20613459641167078 0.34792553643994917
Ni 2.150487319942266 6.7541091733789065 11.971451779282885 0.6602574920460048 0.31382679498402727 -0.7069844637888985
Ni 1.7690847381684993 4.316675809869112 3.1100838691499835 2.042444242116199 -0.9772441728152524 1.5828639229117192
P 5.3036593027197405 5.371639177002598 10.73298064140142 -0.14238023687284512 -0.618667070198728 -0.4319278475945335
P 7.434453159897356 2.5768216783287645 10.9319982847716 -0.4451374043062721 -1.041827970233909 0.34330757805196355
P 6.145839009526581 5.071542594948868 7.288052456741541 0.4581728973339916 -0.39381947075858625 1.012247428363315
P 4.637962964480019 1.952000133992399 0.7538141875157507 -0.4595129563016538 -0.3864833421084892 -1.3327961154522079
P 2.774514102290006 4.905594443440266 6.566453854020521 -0.16103950384524524 -0.7032851605604404 -0.025946030441800477
P 5.239542341358339 7.847332012988063 4.59467061550429 0.6395706531206147 -0.1786775286419826 0.9357172572160595
P 6.080151007024874 8.114482938187743 12.877420377095357 -2.1280591491735414 0.2764180153182659 -0.28222639446992687
P 1.7886303382375919 4.2179035292362705 0.7365188728446836 -0.7133407450242296 -0.4766200482955856 -1.189871061819486
Ni 6.773238909616741 0.9622719398554728 7.819168790193473 -1.2542630549423106 -0.5937283979755194 0.7738884247002994
Ni 4.79219299736564 0.40739499536919427 6.4969047868810526 -0.619368724251443 -1.2632521458147985 -0.37803469712050375
Ni 8.99610501903472 2.988295835811669 2.751813481954442 -1.066231595889254 1.4022673228701528 -0.6243690056795118
Ni 2.8182999430121622 5.964753414560214 1.3489689302720684 -0.30346730612657413 0.15261965521266616 -0.7328466762676411
Ni 5.305803311805334 8.644228769280222 9.043262129215602 -1.1925866609784364 0.5463162272401431 -0.25665317398651283
Ni 1.7236354421213143 6.353059335932851 7.832653868028375 -1.195748603646186 0.48405233620391475 0.2030346173301084
Ni 6.106830982154648 0.5452196621826371 11.144270894656724 -0.8327923981253593 0.3410966864435739 -0.08440006081363528
Ni 1.0552128854322405 3.3819987455721785 5.47585927382491 -0.1786335627779246 1.0695670880203902 0.2595860313625916
Ni 4.116636065615885 7.42698609377167 2.5807261776333466 0.960163563183882 -0.2723844686788406 2.3876840041938685
Ni 0.06585342389236228 5.842286136964179 5.6633805926154475 1.835888241896393 -3.2168560319578217 1.6256229111458003
Ni 0.7290333238820526 0.9934986928736589 1.735380360857867 0.33945606551635726 -1.052653085873871 0.0709724745538197
Ni 5.065655811381959 3.4446278385595264 4.142802217878593 2.6394597954834222 1.7808188117260748 1.7825890162526203
Ni 6.5354941779961875 7.015789178842936 10.2298362333817 0.08945947761441367 0.4183786481551891 1.0489108452226195
Ni 7.212187804218044 6.666814734488765 5.0797304917154 -1.3094736386761834 0.17138870829005323 -0.03562083452740317
Ni 8.685602599781085 3.89547968015326 13.124170871017249 -1.1960566218049078 -0.8222295350078485 0.23449797804571226
Ni 3.682178500392161 1.9407810519669246 5.0686666655202615 -2.0628048080504215 -0.6348261964570938 0.41667272120767596
Ni 4.113059636667073 2.7933665959736698 11.969017589657257 -2.471398608904705 -1.2627340685277997 2.08505513480819
Ni 6.089161390035449 7.730418827893931 6.967804037566928 0.29780702251700325 -1.2097467176974908 0.0920182394805254
Ni 7.346724374339013 9.169206028440948 5.502072557321829 -0.71048630629457 -0.6185778529190314 -0.7720804249572832
Ni 4.587366198343717 4.360831307330164 1.3004792075474687 -0.09648270300978223 -1.1054504321805607 -0.7569615670379738
Ni 3.657901294065208 7.139744324813025 6.735484942731511 -0.9664144291896001 2.006753730693125 -0.10772793690629832
Ni 8.120360480336181 8.058230423946341 12.774448795908663 -0.6234215541645779 0.7984036362328443 1.7716818824218135
Ni 2.5401147641564545 2.1598766011102084 0.5208195449900013 -0.5625082636189731 0.3738779946396529 -0.9956422157064659
Ni 6.035838405449792 5.465430333078825 2.8852586405538214 0.9600028692363014 0.2850741483313671 0.2169769384428134
P 6.7907791218773275 4.620699994773607 0.8903829455587965 -0.17677902606768908 0.959479906853296 0.18970216188726038
P 0.1810504775761725 7.427124715048755 11.248852330941306 2.245212493158798 -1.5187303256566036 0.276374306564524
P 8.945998048077454 7.742700673043729 1.314734095541121 0.05106210878313786 -0.017841656167111208 1.1740929730496232
P 0.1325524375749477 2.765254200980677 7.684235763220038 1.2710801264996496 0.0904264695133733 0.15191260184331257
P 7.553076007408879 8.330556543490559 8.711502599191789 -2.0262984855942716 1.0610585363287468 -0.7478392930217315
P 4.153269048440416 1.6367106599700687 8.197578076524033 0.801741956577458 0.289060900893257 1.2046137673462995
P 1.6124611778985327 2.1775369518109344 3.638467515159631 -0.013376935527538254 -1.460163938076621 0.5936222114149583
P 0.8766696046876257 4.809345070050385 9.736565356857877 -0.8504641043735095 1.6398732504172273 -0.7672470081243818
Ni 8.702458947074714 6.716357978919218 9.342831026274562 1.8658883878029093 0.6954247839757571 1.9965914454481424
Ni 3.5927770180903167 0.24660725193557126 12.777735968459291 0.16299508490971928 0.17601463709783882 0.6278623635447509
Ni 7.261647875882245 7.661440880416055 2.9829690822041863 0.1519210864837448 0.6903244866347144 -0.9773426460663296
Ni 1.612618282012563 7.7469886912149155 2.642728702448266 0.38763622476600984 0.31677045099338347 -1.3965869846559238
Ni 2.5295056157501574 9.40526882189953 7.957279940979559 -0.03031536315408973 -1.032178620069603 -0.5781557403482429
Ni 7.494429965783129 3.3033450329537173 8.501853628010977 -2.5711823512632623 -2.4937119276899247 0.4043666501468133
Ni 8.819094889614673 0.9956796676331416 3.954969463285538 1.3454677973826052 -0.5173326955235993 1.6609185011233008
Ni 2.8622428878483492 5.345744722442978 9.68146155093259 0.18816129976270174 0.8244784789430253 2.383095613492238
Ni 6.613695061109502 1.202668958577602 -0.22022392633876173 -0.4924014794995584 -0.8780008763411975 0.13393364876738867
Ni 8.67686021790621 7.488912838955115 7.039530382898492 -1.3476550348419112 0.5571786238759436 0.27777272957394744
Ni 7.142803234327385 5.913195540902783 12.584817661280882 -1.8682327196653696 -0.43926783289937255 0.36988172899606625
Ni 1.3984299260781157 1.045176704971231 5.858380991375683 -0.5443871285382302 -1.2035567868366948 -0.6339502216100437
Ni 8.567488030285544 5.064029321730819 8.041613429391148 1.0036365467658521 0.016623467489293952 -2.6174670932624147
Ni 3.1082124819093258 8.660336561677587 4.742047212450788 -0.152329377665757 -0.15491102235000417 0.1828601992647625
Ni 2.7233813338823043 2.9533263083121675 10.047454991545505 -0.24222028639063445 -0.2673859870229846 -0.554246023610181
Ni 3.5922872229112803 2.7429454167883422 2.804171662451582 -1.424131727043412 -0.7149222305787364 -1.4609296125980518
Ni -0.17740011727958077 0.4811914184385707 8.14301581772123 1.7145661112454278 0.954075190897957 -0.17735315340360425
Ni 5.393753891407014 2.6323163962554315 6.667992091202147 1.1902294736001695 1.5199060911322597 -0.45386424265630865
Ni 0.24142281617256375 2.9011307767801418 10.167536134891968 -0.7144450338320019 -1.535058373392666 -0.7615311886865271
Ni 2.287029277871742 2.5529233701591787 7.482783006082384 -0.01781414536328545 0.8410001307471323 -0.07434833300458808
Ni 5.4886632591183995 9.016510071021743 1.381601303039904 -0.5092656022447487 0.12268815776055644 -0.49016461974923975
Ni 3.9827833604618728 5.34679824414883 12.364307250969476 -0.09625104661495036 -1.1726405568738127 0.5154480769063768
Ni 7.459303334169597 0.8301325936862407 2.23224892159299 1.070138130032512 -1.6158185234608688 -1.030565252835896
Ni 2.4743343474700237 6.11606315920856 4.700995907454611 -0.25498864179989633 0.43226337655708136 0.1500945747979673
P 1.2167528803295153 7.981720720413473 6.129112042091566 2.641907485692966 1.0692117615635006 0.2996746718533613
P 2.0373169093294496 1.6212867325396596 11.692848888312225 1.2232804905178676 0.14532414999251747 -0.04286080391926812
P 8.477365717342852 5.2685788781985705 3.809514157239448 -0.5412809788090807 -0.36239827613482745 -0.5316573396763876
P 8.367457527450787 2.006820228370582 0.5486408353011137 1.272366963631873 -0.2017387813368203 1.8912487209445688
P 3.14357939040314 7.852387068892457 9.451848343425887 0.3613029861881197 -0.6132099037388988 0.2343604240265835
P 2.8519294648331686 8.209660307034829 0.8872122148809215 0.15775517666701863 -0.3738517693874078 -0.7484746126128852
P 3.891404214606938 5.170222461396986 3.357835208692436 -0.12853381790805607 -0.22742975834502122 -0.4306572084122261
P 6.931756960673548 2.263269590979242 4.461509168452012 0.05059133979430641 -0.7071148187191758 -0.7144257505582922
