# total energy = -340897.18430604297 ev
CRYSTAL
PRIMVEC
9.03310425632797 0.00000000000000 0.00000000000000

0.00000000000000 9.03310425632797 0.00000000000000

0.00000000000000 0.00000000000000 13.22086115931310

PRIMCOORD
 96 1
Ni 6.354228724155068 1.9236356633046812 11.393698170915332 0.45908821005940936 0.050072234066042796 0.2333875185903529
Ni 4.651768616209831 0.33319688666937053 6.014051054590791 -0.13194901423719213 -0.24608825398647294 -0.16577547586833385
Ni 2.7415290463745414 1.6110721931577547 4.916349140368854 0.32026329463799036 -0.28857573372672235 -0.2111618744229331
Ni 3.1859216386336073 4.4516943921683225 4.68124273177374 0.9755832401730619 -0.2170288747266714 0.37799381658023934
Ni 5.077607212524103 4.556451301112716 2.860729888870895 -1.0964317736217182 -0.15088544613037885 -0.7620670065853391
Ni 7.2232043112501545 6.246662519816891 2.6755720297289196 0.3688607439307196 -1.123500347703736 -0.33620182024511774
Ni 5.039948201280748 4.59761515677018 11.44594745199804 0.2878722799017946 -0.0032915262670782023 0.032451949881118304
Ni 5.5474460592021 7.996952914289727 12.261714442348618 0.12287250585722066 -0.4900417210181302 0.9836505905622285
Ni 1.7883378291950731 6.598547092372626 0.44409178989053527 0.3727379674979387 -0.8295499799286616 -0.8412261307150094
Ni 2.8793651827531312 1.633040702475058 0.5179708388845433 -1.2118910177340032 -0.3060715765186406 -0.7603088862436519
Ni 0.6478650700855946 9.179621109551748 4.644104930640424 0.06619742176267954 -0.5553024898991533 0.4932993087234795
Ni 8.357870591005536 2.3527442433248997 1.3273351650064606 0.9169327775197048 0.527305490465595 0.39003146447106374
Ni 6.790310860586865 0.8005073674929634 4.758994272521173 -0.3819857113484518 -0.2840670472230914 -0.13325307776059633
Ni 0.7089053681368875 7.29343669609474 2.6083828976758636 -0.4107591839367184 0.3958593840067505 -0.37132180387670244
Ni 7.637408269406248 3.8103078643863344 3.9824137913274176 0.1754122276271495 0.1946224820070132 -0.7458209770401221
Ni 7.524747394321788 3.7604722287351984 12.592064094586734 0.6421139883677587 -0.05658638103547674 0.8071016782274745
Ni 7.856181019059113 8.888104772097797 6.783240649960773 0.37140176518501844 0.010517868812188337 0.5938037312981451
Ni 6.765966644875461 0.6838014683656223 0.3868968842801863 0.2576541044472014 0.06557212947385481 -0.6444426365009353
Ni 2.003244410267425 6.295956169218422 9.16644632713428 -0.40742009226115644 0.6737624685109751 0.33690758806289073
Ni 0.1652127651565297 4.831093799995647 1.404385736871071 -0.7112776918476137 -0.2195339005367122 0.2702350264360055
Ni 6.413467821236842 1.9721163333318052 6.976331381176127 0.15651770471549173 0.14958163971729077 -0.028118869723403186
Ni 3.354470329156453 4.302024889340035 0.4598735261686029 0.3657039434692927 0.22432026618176207 -0.14947442471546515
Ni 5.826704474310829 5.6892025627861615 4.744715644775343 0.3876853328363904 0.6417067256270109 0.9258961573605796
Ni 5.48976968914002 2.7603359692358187 9.251390025413963 -0.04234298374258514 -0.11270070753054139 -0.10214915726694021
P 0.18661038229091614 5.513517719976857 12.449027600143188 -0.03953456775951256 0.3051644913233389 -0.8216628638711011
P 3.8556630803740726 6.204803115139101 12.610176371738099 0.49527005929660506 0.338009819988134 0.4042080130817619
P 2.254581500417361 8.418798878565244 1.3827171266118823 0.25127674016594786 1.631794072953519 0.13691432866226744
P 6.26457516536632 7.711669418706228 5.715562967346094 0.06717546940523268 0.470468426871893 0.009909288693911967
P 4.663800710951051 1.2192703333186474 12.596995266147719 0.39068375334308203 -1.3912501458240427 -0.9179421926208255
P 3.9959200886675617 6.173205316787158 8.243577433999352 0.2115272281821518 -0.8651967825979939 -0.09403398435897353
P 4.653114548729682 1.1375117075658059 3.652025296741414 0.5045103469479505 0.36564557942753156 1.4630163199237514
P 0.2250480471128687 5.346893080640108 3.644462781938599 0.20785337887499042 1.1743703950807258 -0.4311799136849155
Ni 1.3775483844114873 1.1077747286708377 2.616976992973759 -0.07692920635788686 -0.01572203872094712 -1.6367588731579616
Ni 1.7206527797236286 6.7048757614408725 4.705793805570409 1.2886916689338257 -0.44897246178164607 0.18911800724901623
Ni 5.915346325433648 5.410260306323036 9.09181391725332 0.08740439485759785 0.3891009822369944 0.5824232573753453
Ni 8.65803160914068 2.2666587606793813 10.210841183776363 0.314773989388645 0.48071890095530756 0.212147378264654
Ni 2.393908098982363 5.214549071590844 6.943450882033454 -0.3293282330537361 0.3250362905466015 0.36885380195218415
Ni 0.5372727758537923 -0.09766953542039847 9.152405270027858 0.10820024855702655 0.768814866832134 -0.017612313765124506
Ni 1.577749071911237 1.1083528473370825 11.444387434909594 -0.5566158093939382 0.347805208812001 -0.16723072025762165
Ni 4.017093684818779 6.885555910850699 1.6936058592475312 0.46159786385514046 0.5186544996588165 -0.991723340268034
Ni 5.974928680473505 7.737287302104201 8.153265361917335 -1.478369148230738 0.6850215863645621 -0.5608095357603117
Ni 5.221811687335545 2.985865480800419 4.8824379640415145 -0.17786248893985498 -0.2723656996257632 -0.08945819206283302
Ni 0.7615204899380783 7.4747852952124125 6.815922420811925 -0.0793820387737536 -0.5177319878445471 0.8750793318190283
Ni 4.9574217616743 4.565845729439195 6.9533005788096 0.42512650840198396 0.3970778297948839 -0.2365998548800635
Ni 8.261478336513372 7.0230668554795255 9.173069399104447 -0.4839695466821214 0.10309660878187404 0.2966094026644763
Ni 4.758332145986239 0.27527300955330347 10.314095887498937 -0.49783293492777486 -0.22541992700384403 0.07231947550001738
Ni 8.235869486219558 7.329749774818243 4.713183788083767 -0.6718765643421719 -0.559546609887488 -0.07134991249789649
Ni 7.26944477144558 6.149249524554638 6.879435079471832 0.33897526922519683 -0.9742804622012382 0.3043257974721275
Ni 2.359419707299195 5.309116639042673 2.5900330498850863 -1.022631599811116 -0.7768678190435975 -0.20928728310803957
Ni 2.3505943645348015 5.236824706449589 11.421223845911914 -0.5902594655903125 -0.33431591607631456 -0.3014718729631002
Ni 1.1352172991091467 3.1642241224411065 3.8323838676431423 -0.7387136765713793 1.1019671016176507 -0.16324293925446726
Ni 3.4276655721655436 2.7358833562744946 2.7219506964179945 0.5337723291368615 0.3752913300474117 0.09111115428522373
Ni 1.1773838293283783 3.283135905604338 8.203054928737254 -0.2769926568748133 0.5275507737071817 -0.254901995623361
Ni 3.823487163355884 2.5596926596322254 7.046111207502293 -0.7892973030562019 -0.39066344162810784 0.017377572046499104
Ni 4.116719790600249 6.922401942719646 6.221671533847627 0.23231459724114828 0.04454179116611684 -1.2900219577094751
Ni 0.9133100623127361 7.47934701281325 11.375321223812074 -0.12613574998952473 -0.8790324029295054 -0.19684854312405456
P 0.2542150371353359 5.5142494014138235 8.008668850385344 0.23172864283069122 0.11049212991499681 -0.791432861341966
P 8.530375781150495 1.7597390214242745 7.943000893072845 -0.42866331791064877 -1.2838068300376988 0.8641380023161762
P 1.9013780946542558 3.1621916740050895 10.334958744867048 -1.2847974760857421 0.1311601997873096 -0.3236669210029007
P 3.8845419143738336 6.333488717003536 3.8054661205565337 0.13109875042175484 0.07286789180431967 0.4898776846364402
P 6.997412839664912 3.9610613397138312 10.461601058570471 -0.2579801203280525 -0.5720105466824537 -0.5977740287998028
P 6.402411301744909 7.521929065823845 10.278531653110306 -0.2283173031562971 0.7467337186623786 -0.19685779909543516
P 2.4509160193365984 8.515561490327972 5.760646286898614 0.24720925496479362 0.5400391359821796 0.48274852979082666
P 6.78979597364974 4.196464034125395 1.7289180700300975 1.7707285173696083 -1.136854914633771 -0.2792950797557448
Ni 5.373640102058091 2.8667007707207053 0.57488120171385 -0.3798632656888103 0.6292289048749744 -0.19710436788860247
Ni 1.420907284379849 1.0209123990675533 7.116538707396737 0.2629456918634439 0.24917254933875152 -0.7553924227786409
Ni 7.066082497489805 0.5841979453445516 9.300624959638455 -0.23445529773323492 0.05683474960085696 -0.6890816153665487
Ni 2.821435885774568 1.4776713109217623 9.134755487809487 0.08094938326087349 -0.04847172234814232 0.3717514352149533
Ni 6.3729543490789045 2.106285029421404 2.6613728932996974 -0.2190752157327388 0.018990682169889878 0.12769229584336717
Ni 4.174603922058012 6.689212358827302 10.402411643561578 0.16045534920700108 1.079794422175353 0.18302809230119446
Ni 8.16535707514601 7.08365188508115 0.3772404959330658 -1.505467804219743 -1.5206319135546909 0.26509744809912406
Ni 7.545406103535881 3.779640475762878 8.220506885974519 1.0551833084948925 0.438039102698594 -0.15556973897992563
Ni 3.1296905652371385 8.458300643057253 12.316355689412914 0.12777302848263156 -0.38436115355916384 0.5504554462194972
Ni 0.18212454276502274 4.83753440326178 10.103620044017102 -0.23537112467928495 -0.5427279956682525 0.9775521909739746
Ni 8.66282818744968 2.1217587368476134 5.7284667566387615 0.21790484957372153 1.2728297622009048 0.21263305965182092
Ni 3.636465774825685 2.8526994592725887 11.434008398229667 0.2627217487780959 -1.2045142656539578 0.5941552011002929
Ni 1.103881460777845 3.4295986564557994 12.532411281334427 -0.4771553519737653 -0.3182228671691939 0.022421048007677514
Ni 3.0529362791889785 8.294530464635088 7.991362326125056 0.6817177188023097 0.02049554885019051 -0.1511746952360235
Ni 5.638888172614543 8.05127800270842 3.500408256656214 -0.6974456710605278 -0.34424885891931034 0.5163770164785494
Ni 3.1227531412422005 8.56935362560122 3.4652541251964486 -0.2622566362162193 -0.7774283195327579 0.5502975804853942
Ni 3.5625298172754682 4.058700162580085 9.133882889947625 -0.5411753064691518 0.9347996304977966 0.1165092826433542
Ni 7.049027996835582 5.884525374039471 11.525232813831852 1.5141115959376699 0.8878731411495869 -0.40268052069364196
Ni 0.3292214175285214 8.872649130879909 0.25763497037034044 1.890615972456576 1.8976386836313122 0.433526302429905
Ni 4.662734804660162 0.491904010209814 1.5828807783845757 -0.18051535318166975 -1.0454367706310899 -0.09757079386763841
Ni 5.866025576719636 5.570959229330777 0.40858175412686315 -0.6143095645609807 1.0776892029068923 -0.041933664119308434
Ni 7.925600424529292 8.704217870711144 11.49253749332446 -0.30580109646607334 0.34909230305454075 -0.30129806638939727
Ni 0.1590016027360619 4.975849294160853 5.80752719417899 -0.38508620465064647 -0.9145758472517539 0.22693456387615754
Ni 7.826425973955824 8.776329141221026 2.391521552863271 0.5635667867904746 0.4827408164813428 0.6714379341428566
P 8.424074211394728 1.6135201643851351 3.537056463544056 -0.12040990324934102 0.0983925184379854 -0.35411623863169334
P 1.7105808685851447 3.23180980776679 1.473438398312351 -0.3046962934376688 -0.250313090701098 0.5591761139219467
P 4.855880637810893 0.9102026744816702 8.190839461981582 0.040290214978614486 -0.05482183293588623 -0.07461469929209731
P 8.602649647535259 1.6523444460651389 12.473102629350622 -0.5429902481907035 -0.39799391385125005 -0.6958158487665888
P 6.158409092172955 7.733339835586248 1.3573458469574788 0.4236715211230122 -0.1659989047330496 -0.7264711117586005
P 1.8822279138348958 3.348382016952562 5.990438520316355 -0.2561224982940234 -1.2923603760346647 0.4788808193053043
P 6.91094796664467 4.01968618571272 6.0086962304446985 -0.2892161955241987 0.1819870526311898 0.4049621176389671
P 2.4345841670151818 8.438346515967648 10.094008821190782 0.2522355045347914 0.22902564207723136 0.967483493884063
