# total energy = -381162.05916044355 ev
CRYSTAL
PRIMVEC
9.38541532210672 0.00000000000000 0.00000000000000
0.00000000000000 9.38541532210672 0.00000000000000
0.00000000000000 0.00000000000000 13.73650401622768
PRIMCOORD
 96 1
Ni 2.2669532667382577 9.170733533637852 3.80832193605629 0.06616785407632476 -1.228720430586516 0.027767657031571535
Ni 7.30016390632753 4.306450988144887 9.613053150828161 1.8035921008668485 -1.51393624670207 -3.625894376548691
Ni 2.011078683186527 1.5577161860854607 7.21029104431034 1.1179267102707005 0.037949739770895934 -0.05975500857144548
Ni 8.510141061668936 2.9047485643886057 3.577548646335359 0.7780554115937955 1.3730511063175128 -0.6613550959855578
Ni 4.927746725296246 5.129692711221588 1.3378421794177016 0.5066657027280564 0.2853567125687924 2.8903755527655255
Ni 4.736959998434213 8.594102988986318 3.607453395833612 -0.6931773827024772 0.2713179750875392 0.46256794107789373
Ni -0.11201868849808647 2.058672125331222 6.4120623921584725 2.234827807490364 -0.3615115026545 -2.032551922703151
Ni 1.637548530570331 1.9689287820483239 4.474968939582601 1.5389181134583885 1.3199105177387913 0.4404793367089704
Ni 9.316601661780794 6.761929096602824 7.849766331340278 0.09854755595861092 1.7116268261114458 1.775402011585878
Ni 8.680505124341092 5.077171925924463 12.672090438171821 0.6917447640210086 -0.44284269473482446 0.13228248631721087
Ni 7.469983614899038 8.53374538172295 7.340004995245739 0.03620807448944087 0.06859960344626895 1.1915366224473674
Ni 4.323598142315338 6.979295320241385 5.190228641379995 -0.09112503824229468 -0.022012499715349184 -0.20414764788862907
Ni 2.099686391190484 6.45419070684096 4.299594942101365 -0.2293704270111598 -0.09048123401070868 -0.3760287224340685
Ni 3.8153966622816244 8.137220961062088 8.530808685204104 0.1897965213732796 1.6008662730264107 0.5070192294127333
Ni 8.350588997685536 0.243470818389351 12.851200769574927 0.2714552719963519 1.0590471623256728 0.2168913207075426
Ni 7.994731582509384 2.744398740085289 12.446192871817914 0.28594266697924947 0.0434362168067639 0.6518142463746581
Ni 8.386901170365052 7.362361055034471 12.867299572830852 -0.8487442934689254 -0.5039735006078739 0.2088669077411693
Ni 9.077902388646098 6.5953473563886265 10.591284687399892 -0.2788932163316358 -0.03616256596348611 0.2653887540872978
Ni 3.8672135414141153 4.370994490733937 9.469547331773729 -0.398519704447733 1.8464878717891104 -0.4894727358885377
Ni 3.640368048091835 4.513136608912088 13.421855620159509 -0.3490221119382376 -0.1870896639650778 -2.6050643487226877
Ni 3.9342535645337287 2.5262722977889247 0.6942551418447561 -0.7472733932159324 0.20213061745860028 1.097421134118181
Ni 3.6730574503773745 5.191476901645277 6.640034135344164 -0.7163088265136179 0.6988605491301835 -0.3049793718957264
Ni 2.369704795943567 5.2957676389972494 11.523169165009099 0.5414666124573255 1.2528466342107583 0.6601153100411857
Ni 6.751548827028374 5.410738979220582 11.201405210281541 -0.40827652672418074 3.1099266796934186 2.579139658437126
P 4.576835424103579 5.607447903281057 3.5757353840552653 1.3221021260734716 1.4645983196988905 -0.5643617718879442
Ni 3.8133037146187836 9.163929107379737 6.29886020276225 -0.7490649378987164 -0.11038080114811313 -1.2013903753129955
P 1.7011441061910084 8.347182091848714 8.109289964449465 -1.4553888852854808 3.5587898695907096 0.0543592914771709
Ni 5.434362070105654 4.108465647572544 4.984881380867148 -0.4999674647722745 0.770486340997286 0.9825337033489661
P 1.281522177914667 3.6652018575800747 2.2904656097200937 0.09634309210812439 -0.40511921204212165 0.8664895332674885
P 8.982809358511993 3.874130592658572 10.808513883971736 0.9803660062736858 0.0019149576345257346 0.02654175504427042
P 3.731857078663022 1.823689476745788 5.277743887016443 0.17933007462431694 0.0528161153597671 0.38188235300136814
Ni 9.306521725503254 9.542527384381287 8.421123211006385 -0.06089220749968224 -0.3419351231844692 -0.5771746073818963
Ni 9.319464213516966 0.7825765946750963 3.830534398987438 -1.6324679590920919 -1.8182152500966622 -0.8902652955308474
Ni 5.964760057864116 6.5150457411273335 13.185093496789882 -0.46630246841966144 0.8548192960184117 -0.7169624009372169
Ni 4.099699669468985 0.1303906393949985 1.1086362540900192 0.00986120906479592 -1.1829859046638789 -0.5626455605277858
Ni 8.783585143089898 3.7097919667556707 1.0068955341371224 -0.9662514212491747 -0.13284684346111317 0.9603342844337913
Ni 2.9484282882579436 8.543665765936506 11.455447760722121 -1.3807952690393057 0.18858038957799136 1.6231240559833466
Ni 5.934510863615969 1.7139739692183795 0.18407709330075403 1.0652409498412105 -1.0352271770879398 -0.12303037159132361
Ni 5.9626107977081055 4.179419388967515 13.357898706040986 1.5318905171876456 -1.8204156001820906 -0.6231793562467849
Ni 7.303411260100369 5.5123548731469505 0.9467641153879902 1.5827587647924226 1.4180366698892675 -0.025065941829692313
Ni 5.249150280067512 3.694127708238712 11.252642070734376 -1.2317918704229884 -0.9021049684782528 1.1865679655881824
Ni 7.566249821974199 8.577931918030824 1.2245527056570649 0.2056167762349878 -1.7202168817733021 -1.1675184051558989
Ni 0.24208271543269544 2.5765875104368665 8.626222696549283 -0.14976135982826466 1.715725935881484 -0.3398882679577695
Ni 3.4750721098050326 6.989910225204045 13.296661685342603 2.2094317360147624 0.028635404348505523 0.3865293648550762
Ni 7.592998256230239 8.510366311641619 10.66388181505389 -0.2989053977875046 0.4490267120583493 -0.3969531312915615
Ni 2.2242496260838776 1.3880091025002936 1.9940732487905548 -1.0190752499184255 0.9540659349265764 0.03892444497933941
Ni 1.214716790183265 5.187516256292278 9.579947974634713 -0.5445799612753267 -2.4295857866339774 -1.580825809435768
Ni 7.265419098041263 7.321496955823664 3.4475606412665303 0.4878845654658113 0.02372562575171398 -0.7456682535123417
Ni 8.168033280241941 1.4515671364588574 1.539779718469068 0.5325184021251023 0.503359778283275 -0.6443894146654967
Ni 9.332631951503362 1.4923936940075508 10.712508591448264 -0.3946463375352558 -0.21956012578895737 1.105642750697025
Ni 2.0492303973096164 7.274982836464738 9.772767582500204 -0.6993932817052019 -1.056360102411813 1.8047796934170464
Ni 5.905153283843024 4.712999032590118 7.6467823184574915 0.36082501811043666 0.029996032141458014 -0.027749145088810274
Ni 1.5114273166992176 3.163560783000737 11.781057858733233 -1.3685879283398366 -0.4202259857765731 -0.7136960714811192
Ni 1.7908686786428498 0.4339412567480751 9.728329517056169 0.5834540126327048 -0.20250471296856737 0.37886902009634105
Ni 7.643454250111108 1.6766763279083776 9.043976927135464 -2.4387160310700193 -0.7189616907554327 0.21308968757326527
Ni 3.3943669216760175 3.965525769074475 3.5141135613202175 -1.8601669119380995 -1.6937165214899281 -0.4695533712567913
P 2.4251162892234492 7.871238284986233 1.3151519988361564 -0.10790894256885288 0.2908627299886862 -0.04566150659285685
Ni 3.3374443764960575 1.9486844407534891 12.224939209067474 0.6775327341866848 -0.2930299128433341 0.027678182641558784
P 0.3483396973378755 7.771058359635714 3.631053023179863 0.24711540969940668 0.8036782543682223 -0.7228147459529357
Ni 4.200189313531943 3.1266667145584583 7.266212165653416 -0.35420622724233836 -2.0935004373620654 -0.4423516140310188
P 6.340392543558682 2.701554318197982 2.0951738834044127 0.28572952252717887 0.1724994248557287 0.5851771659713986
P 0.2964693213368722 8.657341918816915 11.212929562008906 1.11854171814688 -0.20617136318687718 0.7420417125033478
P 7.4057404456069 0.870349939238576 5.922479699450069 0.3585555053499696 0.5564530585638288 0.23247503407841255
Ni 0.4152961902592856 4.844798422855935 6.821781768510761 -1.6666034673232202 -0.14851925989104742 1.998357021988997
Ni 9.027681030153442 5.606087018029434 3.5594582579043 1.6712815895251798 -1.2023018313836715 -0.7280374278044558
Ni 5.447229474795138 0.9767120377976745 7.412891193698014 1.2746223353249533 -0.07491860368576128 0.6137174395029366
Ni 9.009360699041936 6.9872541526094984 5.419119216745922 -0.5240311905896975 -0.18226704576545386 1.544042322058831
Ni 6.631490591588631 0.2816628897992127 2.8423027021701617 -0.8792095519373181 0.75078346325172 1.3723623077806042
Ni 6.4320692824404375 2.175426694504957 4.368785163918542 0.20418184356067415 -0.4575887426957474 0.6329495482596712
Ni 0.43181639867243743 9.02583210329434 1.6816093023101233 1.456357676956653 1.2408717212370695 0.05123308714336337
Ni 2.235624749704341 2.789655213763404 9.572241609944314 1.3465018950740746 -0.8665041885555077 0.6886859225900268
Ni 1.434570148936861 3.9433855738428965 0.12916208850232636 0.6046319322619006 0.16569859988381141 0.21030878239401846
Ni 7.953388827106625 4.544699761334217 5.448831565225842 -0.5132166164726969 2.377077432322616 -2.1236152544695748
Ni 6.934845992298715 4.927164829533483 3.0142425761095435 -1.8761190643919816 -1.5265729616294743 1.0470293119291905
Ni 5.17094161246906 6.88785321674784 7.396503319643814 0.6738791965944975 0.1606918906978394 -1.8232672106982726
Ni 5.60808611153699 2.892444284630827 9.258376420925487 -0.34431416493960704 -2.151431248240579 -1.3016860243109647
Ni 0.08217869836697932 6.846200742632644 1.4984050526535138 -0.2851150288716316 -1.7483023271556082 -0.3781259712827294
Ni 6.481924609727486 8.367736151855988 5.341013788718283 -1.2644207122016031 0.26201263852621326 -0.9046935551410356
Ni 6.474988787651973 1.1545375058149376 11.67209975423897 -1.2589046674793802 -0.4643576859884648 -1.3028018830829629
Ni 7.574124185602557 3.069903721442482 6.825518102432632 -4.354296386781417 -0.9326962110015485 2.9043379284828887
Ni 2.6371140551797456 5.511050300388498 1.503652438475462 -1.202861303431567 0.983367769214487 1.3009853986995141
Ni 4.919187226334312 7.721756771864843 10.642343224957685 0.6199297389612356 -0.21112819297152025 0.38339339032925585
Ni 0.8524397507856629 1.495565964456162 13.658769787260693 -0.019938905015772113 0.6666112021781746 -0.1178611686855583
Ni 4.012875190415431 0.7293190542589904 10.234492484837107 1.2567670523110872 1.5262037512155133 -0.23405163453691308
Ni 0.5128031492673054 9.355607448716972 5.955158777778527 0.5084832155527693 -2.0048338879625924 0.28194871532850796
Ni 1.6793042442563395 4.168644931940872 5.329914596314357 1.5642547924509642 -0.458733654933468 -1.716996060843159
Ni 1.342302128876814 7.4129015176550945 13.14253814570085 -1.6600163010240057 0.49096346150145126 -0.7080252463485871
Ni 2.156346144735648 7.127556729344078 6.719952825651897 0.9511695872153876 -2.1262411221281963 -3.073267633709488
P 5.903144804919939 9.427556044157956 9.557461457570135 0.8200435831001232 0.5145044820461848 -1.0426491805836238
Ni 6.687042866101439 6.92876424303629 9.084252560792638 1.210080961108458 -0.6115883089750758 0.6186601282201926
P 4.522296774467842 5.8375595212072335 11.601233297208411 -0.2674896024803845 -1.2771497297324972 -0.22025740896629808
Ni 5.340207581524391 7.424145245458161 1.7375717194815243 0.4482630944194474 -0.23569919744266504 -0.2846756273413678
P 7.430255150967172 6.216739693971547 7.031716620133908 -0.5182873461273848 -0.06437888049670204 -0.37548159168134687
P 5.928982853869722 8.579827771967567 13.546844014376338 -0.2734414491884452 1.9111698853485277 0.15481691997430114
P 2.136355209660081 4.049149821432834 7.780164089781402 0.6300092346844247 -0.4495103365629871 0.09843057076477242
Ni 4.401093518333628 1.5522726450789681 3.0407122635243895 0.11097524019900241 0.6150757533030439 0.6705203074245936
