# total energy = -381171.683225001 ev
CRYSTAL
PRIMVEC
9.23127878424211 0.00000000000000 0.00000000000000

0.00000000000000 9.23127878424211 0.00000000000000

0.00000000000000 0.00000000000000 13.51090961269778

PRIMCOORD
 96 1
Ni 1.4489599999409983 7.396432987046073 12.482026695787653 1.0647570682262566 -1.0150483881472199 0.4653424184992373
Ni 3.2344739663060293 8.117543570215192 7.9935001061461355 -0.5729302302832456 0.3193703505100758 -0.5371119350330555
Ni 5.681205978285756 2.422619911472305 1.6994969095012658 0.9451663184441012 0.16735181921651823 -0.20006705006135223
Ni 1.5728622254427638 3.7793040474499855 10.674550593772848 -0.8567568793607566 -0.7020934542451843 1.5695322387998194
Ni 7.534329831372207 4.717552773090608 4.936142995734323 -0.11174708536802046 0.3084123088366753 -0.45519401721132574
Ni 2.9793768049652614 4.359074519260324 9.067711723181686 1.314593219290936 1.1642014249675239 -1.581705898047876
Ni 0.03237501825787818 2.9475658178486555 5.5688317738841695 -0.5355715871291292 -0.6593221247159291 0.5626815559720438
Ni 5.5276159598162 7.838518933945161 8.52277640545818 1.449573564155284 -0.06366514225912906 -0.0844622815101384
Ni 8.649366779377925 8.555835461483133 3.520308517026414 -0.021995016213852442 0.20993494399436746 -1.197542462321815
Ni 8.379425721553261 8.258495967859838 13.05016114053459 -1.2323942798936776 -1.4719812424265228 -0.31136007861108955
Ni 2.779002664990495 1.986525064584442 4.635579939516391 -0.173137829770676 0.7242375944423914 1.4518998982956155
Ni 4.244994374516559 6.195498988802396 7.228552948827097 -0.5890890994312952 -0.37982392781044266 0.3710492669416061
Ni 1.0370418725129125 8.725460211415703 8.534355198592353 -0.6174838485239044 -0.8443945011406618 0.48987099976822085
Ni 3.3090719311607275 5.73665827068548 3.1711187760332558 -0.030959424495991844 0.08903473137216925 -1.3545353069015122
Ni 8.227801965491087 4.289858390008929 0.6853624555982947 -0.020472666032055067 -0.6695826261016726 -0.9367135596910576
Ni 7.942721610257478 7.082449497551845 5.3380119529432735 0.7866788915967484 0.46258208214528074 0.3861755810600833
Ni 2.833624142288509 6.799436948793604 5.151925986462148 0.8387789547260974 -0.41203599376661293 1.6920383624565571
Ni 6.042767479271275 2.7632356406158105 7.820938886392966 0.10941406635946964 0.24955127283440892 1.6379865749174756
Ni 2.647004607886506 2.0183360517010476 9.129240966486478 -1.174079346202868 -1.7703387381303575 0.993918805257456
Ni 6.632323106723982 5.98441656529447 -0.10942758017418608 0.14480761536741513 0.49632961090937106 0.8562184903587835
Ni 0.42518809085818493 9.265157701486869 1.2729075105048626 -0.19706837244434447 -1.18825100971756 0.9546817141337043
Ni 2.4076929334782387 2.7721438247619288 2.5146096057894773 0.4849776762316615 -0.043435445475815515 -0.03194955632340304
Ni 4.089225774224741 3.8074502168401576 11.261762399510841 1.1684709988771553 -0.4664184251722354 0.26359360986008795
Ni 6.544072080364507 5.980585584547694 6.766114801319775 0.17066340008825448 0.6232053243887138 1.0584599223636353
P 0.8081966221304164 3.4964207365964546 8.617204080534927 0.07104292278043894 -1.064689705323431 -0.7900501220618266
Ni 5.456581268619948 0.555717451487928 0.264505680803694 -1.8940789913045122 -0.46223858276293295 -0.802201926933012
P 5.031194705265244 6.506648475671901 1.5958139541914629 -0.11278632526581221 0.33665639128403313 0.24525444523126796
Ni 1.212565409667626 6.224097490859053 10.108173784529974 1.1961977753684625 0.1775992079761393 -0.32921690428685235
P 7.210791968208308 7.221952584407953 9.764820981190278 -0.3877095012061064 0.24377014737625763 1.2229272209435067
P 5.128012358451246 7.717146078864158 5.785506506154496 -0.5478540040409081 -1.45638775886364 -0.752505331038833
P 2.7140421553156386 4.615057883376251 5.89285058667917 0.020374449891293944 0.44606865787128985 -0.021818638536988226
Ni 6.480745507056349 2.920795109015761 4.065189370204364 -0.6325003765373945 -1.089231142108221 -0.3990946031145965
Ni 0.44738931663167214 2.3429724370549874 1.2982473711070341 -0.8657580544181026 0.7301128222762459 -0.0019442682105643935
Ni 6.364514474327043 1.0356294868400044 9.400661798320078 -0.030896689578856468 -0.4220406703878086 0.39249972350589823
Ni 6.034330090349458 3.4469872380446773 12.810990704693612 0.5929529532620756 -0.07738120629364093 0.9136929304261684
Ni 3.8550743847259867 6.739387479497747 9.934085711245437 -0.34055804033128445 -1.315560725410528 0.38906087302767833
Ni 3.157180468010225 2.756256793761442 7.0026100125332436 0.1428900866297281 0.8924988128470565 -1.056838327599812
Ni 5.078726560361995 4.209093930843756 6.39018758409779 -0.8431284899440448 -0.8272311019874979 -0.805835409920541
Ni 2.209358906142117 5.7551300597801776 1.03325058626544 -0.14372800914999118 1.061922684101255 0.4606013042698261
Ni 1.8088967958387283 6.009470256250498 7.603993677650636 0.18599308846678936 0.4075861855253755 0.2724168645786728
Ni 8.754344883118506 4.607543622345223 9.977806894409012 -1.4597877856841248 0.017408939505066792 -1.4824140077240728
Ni 8.655496348572767 5.597949073815451 2.6739977905410814 1.3963607275777306 1.6488623412897152 -0.8585535662498632
Ni 4.991860225838704 1.739809904492043 5.542134915282538 0.5931727825823656 0.38283726071546975 0.9800862702497378
Ni 5.842402570575416 5.804877421814823 11.23613175362307 1.0936626955170132 0.07092156671122625 -0.6296191983348576
Ni 9.182703918281552 8.026550854020071 10.745334194182806 -1.2273263784524668 0.5078869767296673 -0.7774015800598805
Ni 2.3224882291583686 1.1033316863505058 0.6449045295286637 1.1110500377555252 -0.33111874929525553 1.126233944584815
Ni 1.8482497378230844 0.7816040769804437 6.904426130068874 -0.5715739733656673 1.3715724648894572 -0.06843505284394666
Ni 7.639732573942552 0.5853812431305574 11.253817960882706 0.607122045673606 0.7702829667372283 0.48782877252721146
Ni 0.8109336963266073 4.83357148640503 12.949436810114767 0.5069418392075785 0.9961520654633488 -1.5008164214906603
Ni 3.42390904077494 9.065208200341866 12.500888044852262 -0.07097864520140679 -0.15468476527181102 -2.2788165543664882
Ni 5.238916943250695 5.734747395951545 4.680219634931299 -0.10998947924696542 0.6973204583365732 -0.4138100549479002
Ni 4.41522838885705 3.736997096215103 3.225783640342137 0.05771046733759093 -0.3348293653776233 0.6412392990722892
Ni 5.629926223952398 4.894451770802597 9.109433411333809 -0.3889832257122075 0.06930280016088064 -1.4742618109305836
Ni 2.473373482907911 2.087081385728141 12.049826525471032 0.2982770201748863 -0.3699637471869112 -1.9379119293290628
Ni 8.59900092165645 6.427997979376636 8.348553555501589 0.24563471138882212 0.5330372507430498 -0.8607634294169886
Ni 6.91982205703146 6.867148379583012 3.31530673693512 -1.486127194909602 -0.5962105409674248 -0.24870229457055232
P 7.973812557619269 4.620993595714027 11.840420502212778 -1.5850778998439023 -0.23272108865094757 2.774997555513137
Ni 9.037966696284668 2.7013122217016514 12.53952925523282 -0.19331456182886708 0.0678454988890638 -1.1370829714841773
P 7.0478414329261465 2.4260631785049496 6.0993515264651075 1.908484882317197 -0.27481518960752027 -1.4985445947373484
Ni 0.7311791390739586 1.648457168419515 3.781298003694091 -1.3778477563752076 -0.5106845940794624 -1.5942554525781125
P 0.3336304203939018 7.075009086752082 0.9017934821054535 0.18377268377670286 -1.4070202641741059 0.6494835413589524
P 7.713453567301001 0.9224789318822645 2.2855058795975602 -0.02025335093239738 0.5976698991217707 0.9255323462632576
P 2.566083216979899 0.10180715943571884 2.792988975663847 -0.1733592017528627 0.5423654701225111 0.5964509391130051
Ni 3.3879347468708736 8.220463098759312 1.031198472964215 0.10524322281123166 -1.3745549445565486 1.5471302169555354
Ni 6.649068646662903 3.203853814168542 10.57343578025522 0.5996398783639479 -0.044949053906864524 -0.449476140890942
Ni 1.0287152589379913 6.782368314092906 3.8513117154431287 -0.416206837314851 -0.2265131600680228 -0.683963577413693
Ni 6.554558813203875 4.675430447433882 2.087949125945483 -2.115770561614175 0.7773409020252742 1.0003925859072575
Ni 4.2454836322986775 6.650508726172535 12.817868007479994 -0.8340563524394473 -0.10236795814596564 -0.10005473663175671
Ni 6.628935227364785 8.250667843345944 1.4708113602438766 0.2323822172542901 -0.2707801003061982 -0.07420666522040123
Ni 6.431228926994399 9.185399451722658 4.1548343196789315 0.4585025127592684 0.5766125642308392 -0.5202190159324589
Ni 5.849501424055587 8.386727663169406 11.750208752213267 0.14095687416275723 -1.4505428700470888 -0.11418012028954529
Ni 1.2725225661744033 4.317459913943535 3.923068292649978 0.5547535593742188 -0.2645366904996476 0.2780285543384954
Ni 3.511596959121034 9.121962103067604 5.663002819407278 1.2405958418678635 -0.20753430497267486 -0.2879800091242524
Ni 0.8256769718704063 0.5196850005267418 12.290361344334594 -0.35468188132717626 -0.6315439261613962 0.2751203795527649
Ni 1.3101307964451672 8.904667028854666 4.880924254690968 3.9372693675581156 -1.0577191875428686 -2.236953595584115
Ni 4.358409867178956 4.596235305683052 0.6896208445585066 1.426699744880904 0.5245310130442514 0.985540865606406
Ni 4.096463096888531 9.07826122871763 9.998897597329877 -0.9254747535524448 -0.027198157681346705 0.3169221460798994
Ni 6.527206533799783 -0.19777553496219416 6.495450934356625 -0.014422346072917097 1.076416506842056 1.4440868300091
Ni 5.053349774644192 1.3215960448487725 11.431283759119642 0.1869305126793942 1.966399238135478 1.101244621629329
Ni 8.762579183904348 0.06799575417977222 5.8140957769322466 -2.9954580816291765 2.3004590723369285 2.0181113217977886
Ni 8.002161815145413 4.19833025963715 7.594820555799862 0.4982111442028001 0.0458553677712178 -0.22956711640299818
Ni 0.30540855451668547 5.270007890612485 5.917427020515659 0.47637013706830855 1.0009399737702953 0.08822509098668031
Ni 7.594720857987657 1.135447305671072 0.167435090575616 0.7688377496502694 0.9083722895442035 -0.1178107750635971
Ni 8.406796463515171 3.4441716979777692 2.9239365132281168 0.3190530763799731 -1.8754729461675503 0.49304759772398954
Ni 7.9937336575025055 9.02998164002934 8.505765927814602 -0.40505467735277334 -2.0285721121197966 0.20251679715342544
Ni 8.53256340735633 1.8328427333258077 7.722903627519012 0.7568497240504579 0.5963982314981986 -0.004177271306141193
Ni 0.35986940756170227 1.7316586852163718 10.282153851851287 -0.04752375661257622 -0.24838810576424314 -1.1030845030515455
Ni 4.506931913528077 1.1351611360249272 3.3383563172402426 -0.36113303626915866 0.054504301695467425 -0.8146236976361325
P 2.7032507902723095 5.367804059362723 11.474788930356768 -0.02542203961753041 2.4782220595844415 0.9634232077717602
Ni 4.533610309571894 0.9048305728661511 7.926147772106244 -0.696524187687523 -0.40011018886330446 -1.245308159741868
P 1.9544740642162308 -0.1514797481112105 10.447202656829214 0.13186519627413418 0.5188334484388419 0.8922501871713601
Ni 4.511833722628169 7.962522703514912 3.3482199387533287 -0.5316640245446069 -0.5992148750113874 0.03268823426164048
P 4.174836654816558 2.275242543707763 13.49149473820268 1.823861392638846 -0.46132044182403775 -0.599520064956632
P 0.5554091267724042 7.569380997385485 6.519351638577056 0.5744944894465719 -0.8792054381722599 0.49510936534902467
P 4.699348691084238 2.516917425516451 9.504573689346795 -0.213740948004019 0.8222508751640871 0.4754648516452199
Ni 2.5206930185897805 3.4093882390528214 0.3896476670627895 -2.3876025002236556 1.7326972736284998 -0.44839576334256975
