# total energy = -340861.5784937975 ev
CRYSTAL
PRIMVEC
9.32817547469849 0.00000000000000 0.00000000000000

0.00000000000000 9.32817547469849 0.00000000000000

0.00000000000000 0.00000000000000 13.65272771365123

PRIMCOORD
 96 1
Ni 1.938590758125335 0.7173469560327022 12.478278895710814 0.9562449448557659 -0.5788442817748353 -0.46962433370404283
Ni 4.701503055964066 8.998181952092873 12.708710016342234 1.4569431171464777 0.8302526624226411 -0.37965757743590745
Ni 0.7790696276027731 5.776286107534614 -0.09813054050036761 -2.7694845961147077 -1.0661506061396735 2.656827083117276
Ni 1.575706075284853 1.6520478634799718 3.2492535176299406 -0.30263195470947235 2.1024895282345533 -0.3758520876468882
Ni 2.457862303024854 8.894396671611581 3.27176706917062 1.77584218444709 -1.2765491200340209 1.255831170760379
Ni 4.380623147346777 5.62906884198044 6.966605142248892 -0.5139619792791535 4.328883603135266 3.022931090238465
Ni 2.0400160102081215 5.381079296627651 5.9626378677142755 -0.5956510689195289 -0.012431540895133427 0.23637051247807678
Ni 6.563033756381693 4.496656322244027 6.638925926518283 0.3703707528173428 0.09583761322661559 -0.13654974623399707
Ni 6.9181853817424885 0.7070551800166128 3.574161332423017 -0.2953637031828333 1.3432476498028352 0.039256117287145294
Ni 7.373381689213823 1.0308007041438643 0.32246476563272664 0.8908090838494592 1.2905312932457258 -2.6355823148058866
Ni 3.339720029149234 5.735036915525962 3.0870178895398253 -1.4320720649364111 -1.8121027094410211 1.0477348226366472
Ni 3.7294325446936702 4.482943904276428 10.82795114779086 0.6523755181947668 1.5886797582625478 -0.5530476324267055
Ni 1.1440540827456402 7.1379385398926125 4.388942014247121 0.08336879133564352 -0.042171491161727366 0.4043039152296779
Ni 8.895945148742616 7.987455481599534 6.70492276809703 -0.9279900637751308 -0.656651005641669 -0.5467934239868777
Ni 0.3499903458631954 0.04558772642819698 4.709002909056548 -1.065981941772293 0.1452981818505885 -0.9798553851858544
Ni 5.598537723607686 7.866450389167095 4.08815872690153 1.227664478518176 -0.08172148554020765 -0.893725486165306
Ni 3.751932103971117 6.88407224398228 4.890202717914097 -0.6109257356904124 0.5657221425705805 1.2539064429338405
Ni 5.916516569648155 2.7755892883271436 4.57248972487504 0.33321754080581323 -0.7314053158354242 0.5825569547397321
Ni 7.772916773547294 2.018234720443263 5.954719179542374 0.8770467399580444 -0.875934223620156 -1.1689101432971032
Ni 9.238652988002205 6.616689421789602 9.010199440574272 -1.249546623303248 -0.9950223227342798 -0.2618419172763039
Ni 4.759710871010197 6.756938540254119 1.7687787859037345 1.2023578814325873 0.3429080286206998 -1.291435036006918
Ni 6.353252417828416 8.66104303359972 1.2297193823411767 -0.5664312528224632 -1.1389855878235287 0.760998970332141
Ni 4.306202963302221 4.313385658428105 5.428269603604714 0.09334364316016827 -2.7008523396582906 -2.795691593527379
Ni 3.850260401791834 1.2056480254939745 8.21600697487009 -0.6090578292437382 -0.26765441019302294 0.3304914001239018
P 7.563172747695969 4.522178210379638 0.4048456146388814 -1.0169211796899003 2.183961616768116 2.144749979565661
P 3.6525683786712144 4.917720835604175 1.0273446151255001 0.8178434901250108 0.6342173592285013 0.5610926142183692
P 0.13916331883769503 6.310603999496538 1.9528591353520275 -0.5764672969022266 -1.829128040354424 0.517187942415619
P 2.467694199989377 3.735747719499156 4.660604603353768 -1.404616796938936 -0.23300493843995357 -1.3559224170570259
P 7.04379859286608 6.991206339463822 9.523747216994256 1.0934593212569557 0.2418081385538803 -0.624753128491808
P 2.9389816101777906 8.020691770863856 12.872433488422711 -2.2900998405897917 -0.572141415833363 -0.3424282607708038
P 9.21791645389202 4.658425541559733 10.999675395987532 -0.934712470100629 2.492433060977501 -0.8070484563920358
P 4.165347513430973 2.846576703792057 12.546910946864966 0.9589122072752841 -0.10792102675371092 0.4561520102492208
Ni 1.069410022489367 1.1534475554622194 6.613312622262887 0.5967479015281336 0.24208118970960893 1.7567507150332777
Ni 3.58671145972479 7.2102692126278205 10.383322730330063 0.9966189777974385 -0.28231843996310085 3.410633906576352
Ni 0.48532631429809747 2.7876226347068727 5.0287914211417215 0.4443506467389186 0.18289028117174955 -0.35136233003564005
Ni 5.639077974279238 2.088401256465218 6.886135636400262 -0.8908412226389755 1.1155872635042463 0.2782992915013788
Ni -0.029260620871266862 3.5920938169814596 7.339678991175093 1.5630103785209017 -0.54915755334368 -1.8588024274904054
Ni 6.064787919032492 7.026000434034667 11.479841363605576 -0.8952138977853744 -0.40892315916924415 -0.9790442021384688
Ni 0.5199553001628017 2.7903931028268567 0.7506047001006464 -0.27482316002732027 -0.3055910373377963 -0.14153691503594334
Ni 2.226859365236008 7.140569085380274 1.1311597457683538 0.5727597661436523 0.3874680746192617 0.3620061829027314
Ni 7.218804493199489 5.987643907745391 2.413870627422682 -0.5392842600940262 -1.8977186449396284 -0.9932081523436765
Ni 5.07629981890293 7.704914374238593 8.832714111196111 0.22680138073240294 1.344955376522561 -0.38631519196174113
Ni 7.958174338742193 8.08066261107725 2.9141472085756566 0.275884511412299 0.7244635944102684 -0.6570870647378232
Ni 2.8002809688443087 9.5068100487604 10.242413177040984 0.09615283047418925 -0.6873049830821002 -0.5954854898759421
Ni 3.84748993367185 6.00587116264926 12.621755562894233 -0.5671892140344102 2.620240028021861 0.33144605072768724
Ni 6.9444908366191065 0.19924050025165418 7.828036962506843 -0.3134020487417828 -1.8244576314619485 -0.15752223472060614
Ni 2.0994364880677137 0.6743972376325573 1.2140200629946 -0.236484926568754 -0.9632123773125346 -0.9461160839518802
Ni 6.5985274641141505 4.123613256296936 11.065918501399166 -0.2550907145953994 1.5582314690750196 0.8949051082957039
Ni 7.98067389801964 2.0638588267558635 10.771524081445417 0.17503247569022756 0.19917179194059245 -1.7972892985772726
Ni 5.847851869879793 2.757697847740848 9.448165675101421 -0.5288676927463924 -1.106487100975191 -1.0183697392109687
Ni 7.937475117333961 4.231642856625341 4.5275447097379775 -1.6228438057387662 -1.0001221058546903 0.029535290454955586
Ni 0.03943392905865644 8.398053782061965 0.24870501641273135 -0.24457644532763687 0.26747854673679095 -0.6634556872683284
Ni 4.991198873924428 1.9798865910114283 0.6162472572744525 3.5624763173033616 -2.188181054166102 -0.5961953714587732
Ni 6.603462068947389 6.381889916577074 -0.04642166531683867 1.1043399727252015 1.579184417177603 0.9160999972057642
Ni 2.4750821149760016 4.060246960205851 12.999021493884815 -1.3215166858836465 -0.43456759921022575 -0.2483446541208175
Ni 1.588065907806668 6.120337204064496 11.706149430671232 1.275263568453378 0.35270701698899254 -3.480613678199599
P 4.519109240644032 8.821562277400012 2.29525541355031 -1.3823662130708514 -0.8436943897498438 -0.4335846664716661
P 4.8051670701640115 1.3275299664223004 3.291495227510534 -0.13759181434526624 2.707268270486963 0.8469596907646767
P 8.898986133951757 2.7882476224645796 2.864014795049627 0.452445250821595 1.0665745810509697 0.9941381203571137
P 2.138969295786545 6.808999087653552 9.142521475508948 -1.7830307317757292 -1.5291924015301923 -0.8018527711237093
P 3.775551044307144 7.826796315166918 6.888211155446378 0.8017368143711354 -1.124270393100541 1.8130527320591159
P 6.997941282166275 8.56987877455391 12.803569165698903 0.6705347056022968 -0.4136131084457457 -0.9707212840950701
P 7.575532580217784 2.117206662372663 8.016021153396933 0.8242725335798062 2.178284878098313 1.7053818736429982
P 0.6151465325668494 8.404658130307585 2.362304473324122 1.8447930005851905 0.8925075545978047 0.3442907679008393
Ni 0.9647945343896293 2.9179652308029613 10.986295061067311 1.7221981738693888 -1.504476386840751 -0.037852809181715456
Ni 6.121316662490754 7.3385036410635855 6.762250936194627 0.9155292123039588 -0.05564612860939449 -1.168644548340542
Ni 2.8865386075833435 3.170516253969462 7.066788814174204 -2.9026299446528463 -0.47796319258704134 -0.1921771057903142
Ni 1.4716222931879404 4.589173166735618 9.288196793654931 0.14877637020717602 0.07901977033832844 -0.21266417000007246
Ni 7.810742525151791 6.648992893505108 4.570292006730029 0.36876021379711327 -1.6673925388834185 2.909106296405809
Ni 6.978408082694063 2.934392147837615 1.6900984241137338 0.9765044664357505 0.024490271831880402 0.7896261471505305
Ni 3.475846094047984 2.2988169109516905 10.718524186774326 -0.8819593467683133 -0.4198125523882383 -1.2196174398439834
Ni 5.006273205513298 3.656635463184053 2.676125751549517 -0.6972050158046315 1.0365299550597633 -0.41543524925614905
Ni 8.81842801043599 0.8491857914770923 1.9744715851405503 0.7765721421800497 0.3685087599079395 0.860184416985067
Ni 1.7674280660930486 4.454381030931676 1.894711953446569 -1.064313810041251 0.3243233236399769 -0.5302229212227062
Ni 8.659681119978448 7.1138998316596185 11.892154182722733 -1.122252591339564 -0.46940836103849476 -0.18715445576474218
Ni 6.134236185541859 1.6768234975765302 11.971107860054536 -1.7555065582135316 -0.12362532486284515 0.11804011746558381
Ni 3.229675542915386 2.735599400009393 1.2835541487184579 -3.145156963650622 0.5338610321959257 0.9088479436290412
Ni 5.354307432976626 4.571151131692488 13.273209220096108 1.082561186287213 -2.8936729925698743 0.6582476607048277
Ni 4.869596778260747 0.03938915381631326 5.994803282432556 0.7977310356458519 0.2922012462944516 -0.43350444805303406
Ni 0.2185348984313687 0.8025980846365643 9.725998852293488 -0.05531291363969183 -0.06389936975712221 -1.2137735794686968
Ni 3.3225282017245514 1.737298059266285 5.070295272341201 0.2885623639902837 -0.7698754468861644 -0.4195089051048904
Ni 8.008621111782174 4.27671660058414 8.915872930037978 -0.532491919762541 0.538240135100228 2.3295040534190266
Ni 0.5886974237877146 4.917926055464915 3.78841366548777 0.9102638501399614 0.45678090208247135 -0.09424250082535382
Ni 8.168076943576818 3.420464716174765 12.543552803689227 1.4902173058185755 -0.49089944103273525 -0.025634412738652624
Ni 5.852833115590473 5.238152991798031 9.045956202855496 -1.1220080794289256 0.7152518460040134 0.024881593733028118
Ni 1.2239219212752839 8.440021243583207 8.192947725063354 1.1209937792317983 1.5241011030502138 -0.5337548456353647
Ni 7.124067542941715 9.096426296334197 10.48761546355791 -0.6227669512997145 -0.3883581905336989 -0.06736084594316141
Ni 0.9246712531623976 8.200072585501212 10.556930337157796 0.374168272186562 -0.9778015879806192 1.1709827095554155
P 4.9048292970795355 0.7841357597103938 10.141382506781346 1.0445847070434395 -1.059261335219008 -0.08015671215624905
P 2.3757370460270755 8.962940105098596 5.665008436501231 -0.8747499735040677 0.805381095991942 -0.990035668152966
P 1.5650253143509074 2.200386003200604 8.793872521280953 0.8713630593097057 0.4346976970301868 -0.686326935439547
P 4.561953550661161 3.816137935856137 7.922691824820322 2.186048838314448 -0.937759741567385 1.4289741427373779
P 5.844810884670653 5.410397752186944 4.553607632051902 1.357058073323366 0.6099273763328851 -1.1411679401868282
P 9.241180923559495 5.7278262358736125 6.4199087614141765 -0.6498149565564422 0.23626021215245763 -0.15546586641220966
P 7.483342221868278 8.70579961959192 5.134108388038168 -0.3711752509965091 0.46824905062307104 1.5131489749140843
P 9.391607081481597 1.6294363660966666 12.479016754391926 -0.7525282138569686 -1.21585205926428 0.8348935036287621
