# total energy = -340887.0438462919 ev
CRYSTAL
PRIMVEC
9.07163276169612 0.00000000000000 0.00000000000000

0.00000000000000 9.07163276169612 0.00000000000000

0.00000000000000 0.00000000000000 13.27725152144015

PRIMCOORD
 96 1
Ni 6.514266721068964 2.31471774723567 11.241331124443542 0.22131824613064463 -0.9407296228289862 0.9482974078739153
Ni 4.7321717324688475 0.8815875959350427 6.0090711361165585 -1.510891032117843 0.08013254378653295 -0.897824338825028
Ni 2.6586233350931097 1.797888700772625 4.616168231948483 0.8130715226576642 -2.3619575459620417 0.1785813693837505
Ni 3.859798193658226 5.260757614644455 4.948895754246494 0.489537270577886 -1.058659182858635 -0.3749015508081608
Ni 3.8334451012623973 2.659203919572742 2.473671798963363 0.8461194542515684 0.5199649909401238 0.1331108957557772
Ni 5.120736967095535 4.674149571035553 2.599393739374829 0.3987320775688552 0.404410101790239 -0.5676856940548546
Ni 5.359901486174235 3.1649202162303176 0.40410221959960807 0.779671864151296 -0.7978256522421873 0.011923233800147207
Ni 5.760776926095635 7.90255307146071 12.022989245474804 1.528867928311238 0.37159536925306325 0.43765960787198815
Ni 1.9241386101952571 6.529851785694104 0.3747382523789342 -0.7174719935837838 2.09206961845281 -1.7243951815207075
Ni 0.5838275882494107 0.04724052621386484 0.25206347332229034 0.7077671075911939 0.12121980074514606 -0.04777161095732418
Ni 8.135539808810819 0.1337276560876516 6.766724810404754 -0.6142080059861099 0.45033283246428246 0.9713810291662562
Ni 8.77285827806264 2.2241284251479785 1.2201844644568405 0.19690202206980928 1.4347082170076775 -0.48689237675587105
Ni 7.023566312561772 1.090310437852751 4.597194912586737 -0.5388520576526139 -0.7618340646389267 0.008174051170360117
Ni 0.4845721356399514 7.62643072160039 2.2836074907598514 1.1606018805417238 0.6220886942857673 -0.008075320808966738
Ni 8.024566528508522 4.180716264775207 3.722210557944266 -0.06024120417924464 -0.39934631411408644 -0.45345312326081905
Ni 7.876571915997147 4.114066980839871 12.668927579922672 0.21284029056662054 -0.5658324428961997 -1.0163431956992433
Ni 8.532704951042065 7.368623997745983 9.180555585619725 -0.32713842449126884 -0.8884315847562183 -0.4234007839601289
Ni 7.061549237815244 0.7524374856039953 0.2536981814977562 -0.5757201343235568 0.22816997894515542 -1.930986662964139
Ni 1.9966844552518634 6.562418946348503 8.948574892313228 1.544804397035836 1.355590487638904 -0.15627524968738246
Ni 0.3415424275926845 4.989515803066047 1.110226299830652 -0.9692657825954663 -0.9611575516660351 1.0025026902717251
Ni 6.410605176557042 2.0818217262105043 6.7016394759114295 2.598909641975202 1.5715914353216933 1.954748284160111
Ni 3.468529612548249 4.597131411159276 0.29997711466722937 1.070968082132975 -0.14289805704952807 -0.575358380108764
Ni 6.265078048084105 5.723864453476486 4.583067659303423 0.46658400421582225 0.9522710478096826 -0.17659107842659907
Ni 5.7597246167263005 3.3792828920697078 8.975487704433954 -0.23395701794057772 -0.751349620167835 0.08743859052964296
P 0.6290732624777876 5.693084404423457 12.200160949577471 -2.963153970179832 -1.3332434874022716 1.281667929317825
P 4.416379133711123 6.168564949977661 12.261567737094373 -0.7222984684381496 1.1069552988608615 1.3907559797964437
P 2.5002054168458274 8.558223453248422 1.2396730525442616 -0.9546176936649882 0.596552754798192 -1.2864409252264362
P 6.4816179157221185 8.193226319841825 5.79937037221597 1.2539200697805952 -0.5805013577622842 -2.596184015513922
P 5.028106527696634 1.0961616408115495 12.50998532131722 -0.024497470920732 0.33201966384297016 0.12973272331216365
P 4.082615630982268 6.493030029399899 7.947776066607851 -0.11430507590318378 -1.0236494995526695 -0.3290428406028333
P 4.8161569061007174 1.3106331762408712 3.8358645056486167 0.8813296836041145 -0.34183022217548875 -0.9386051202868158
P 0.6183651074815617 5.880649477874801 3.527459844394219 -1.0588679564353312 -1.3032878215804458 -0.1840058828334315
Ni 0.4926731034573266 0.3504952217012708 4.936242641243499 1.5568662132963769 -1.2221844292402113 -1.0528184078071416
Ni 1.9466271871485306 7.123190980613749 4.69984134142255 0.15242605114462135 -0.275534584272048 -1.1570522155172525
Ni 5.920854953089366 5.836724633337589 8.977253951280586 0.19944304332410812 -0.061113065261236686 0.4666323409552544
Ni 0.29611078489817527 2.357136700778835 9.979566832449256 -1.4331946085766283 -0.03309061190638172 0.7575107546732245
Ni 2.38163010851334 5.7749196011541875 6.555271407106273 0.10785829183657554 -0.989881916183921 2.0747992614081365
Ni 0.7731743303226267 0.022075817674784462 8.829611318109988 1.76566910056883 1.6115165536514053 0.3552048437101818
Ni 1.8853664529147849 1.220687940060272 11.468318791225196 -0.6575403502251579 -0.1743102528122224 -0.21926599158730625
Ni 4.019585928412141 6.947319241447508 1.0896863095371458 2.370277892902279 0.7354146941051335 0.7082268208364318
Ni 5.84751987600576 8.31343452202328 7.755202544856427 -0.8729466017467417 0.5377369702115643 1.3997592117363182
Ni 5.616664972291802 3.288875002631902 4.753998987413289 -1.104103431234363 -0.05349745769750786 -0.48186869828903467
Ni 0.8489941275464119 7.713799614152619 6.831000048116343 0.11903950526437564 0.2784072778341528 -0.2316833914150526
Ni 5.47193614747836 5.165169823052426 6.689172331374565 -1.0621491982897642 -0.46526065741870837 0.9825301038045401
Ni 1.4639256221288957 7.315618449082016 11.200835356989161 -0.8770184578232704 2.068851014244501 -0.14131065795775016
Ni 4.972579065199262 0.12237995100058036 10.046285060791549 -0.5782323592224493 1.630254753490857 -0.015946753137243506
Ni 8.210934146470622 7.431508554196201 4.344475560235111 -0.15217408303481536 0.4409390499542083 1.2827210531726876
Ni 7.400973439220518 6.429537673572566 7.076376821127114 1.0617537626235587 0.6200955751151386 -0.7338409218601104
Ni 2.476836891540611 5.404651849268426 2.2174471678159553 0.10823315867749102 0.017713101009046914 3.1246187344879544
Ni 2.580081140957797 5.3358616600644435 11.372761843183646 0.743809345926732 -1.3017202199830096 1.142161157338033
Ni 1.3751869130700334 3.6210691129392503 3.5365550631329654 -0.2316916189451687 0.9198121559500289 0.5201380261828783
Ni 1.7047774648515288 1.4861420501073412 2.530232520401832 0.2231609557663382 -2.2096029714853045 -1.2402217463578964
Ni 1.5091749250102704 3.7159583888292214 8.432329151819564 0.45125251606507444 -0.08072389751362871 -2.1422796636482975
Ni 4.059101959557143 3.2769185910044656 7.239779601429992 -0.9368750249695865 -0.1610878405846774 -0.7345592880833737
Ni 4.357232089848541 7.7177729891851055 5.7762150302743684 -0.03145744717833292 -3.1266079970038407 -0.888706692794476
Ni 8.31707224665348 7.1565383016626525 0.2280417904774869 0.19156621167919266 0.024022845277158627 -1.2752859370508811
P 0.44509964833092236 5.869881450104113 7.788820200553659 -1.2814948940750703 -1.6125275114144229 -0.4399910842186422
P 9.081248424705048 1.8945923031614487 7.785540805406984 -0.4632253721562345 -0.12829521953468873 0.38567935814995513
P 2.0452267607286547 3.4158687859190633 10.558893076655016 1.305753252401803 -0.41427748150262206 -0.7259417216176917
P 4.172052855743188 6.506873340586141 3.376896145560468 -0.13969471962088198 0.7593087271139116 -0.8391844176946321
P 7.458587377191571 3.9207867789171438 10.17933688025838 -0.010823572978065231 1.5150785878366295 0.6179733865658131
P 6.489528379257114 7.773953609222065 9.757359008828828 1.4323016644487139 -0.017098350243183458 1.517579242771296
P 2.5707282878562134 8.88771421707248 5.780424267751705 -1.3094875226332543 1.4074390968790793 -0.4580070611800886
P 7.093925894187262 4.252037439445089 1.4994528564661707 0.35740647934719094 -0.3796236388741785 -0.36521903341307427
Ni 2.853790436574643 1.563259997941055 0.3979761461762335 0.672520625684074 -1.0414307347954903 -0.43897395580803755
Ni 2.0574099631684475 1.6396975733376993 7.147144626214844 0.038189366585527774 -0.1109587851387702 -1.3010887570465979
Ni 7.5357597548202495 0.9067949411468461 9.4380148659496 -1.075181348883374 -0.5260464212475134 -1.3418831653551406
Ni 3.183172340808771 1.9322395780126322 9.246516332648746 -0.32951232404008407 -0.6217025145909422 0.9823251868825856
Ni 6.580643856029472 2.427804717909129 2.5364992041288676 -0.6718002025782818 0.05947244433402016 0.027357308967030307
Ni 3.978545863008104 6.894703772980793 10.30203161690651 0.8172397951027408 0.9680069704877007 -0.682447912100115
Ni 7.503419384978209 6.273015726516583 11.037233000771408 0.27493140347041034 -1.1324624419930303 0.7833644825115348
Ni 8.070087980364725 3.9934505551961754 8.040106234971192 0.3933983240607677 -0.049105242167083174 -0.5312238516833947
Ni 3.485566138372471 8.528758790907062 12.27151296779783 -0.3960277912638147 -0.13903985964570248 0.829612714845797
Ni 0.5861499261679416 5.123521958271272 10.020354706469952 -2.386492812099245 -0.5912354563503366 0.9258203098173217
Ni 8.89018170111092 2.455727202726465 5.563353709612778 -0.24870229457055232 1.6277106469127645 1.1413934259340728
Ni 3.7491333488607346 2.8664272206391495 11.85043772380146 0.6408263799045867 0.05935237381638811 -1.0711537157812197
Ni 1.2720424516102844 3.3299604261984106 12.654123582855286 -0.752017592769137 0.1642526114659042 -0.4875058419701539
Ni 3.2252919304796257 8.508492763914882 7.811856704109586 0.009718512839344553 0.5684464834802792 1.4919044637130112
Ni 5.853516225084467 7.875737325807675 3.432806430949098 -0.20793822527931283 1.2171841478121426 0.19192848011461786
Ni 3.1640674827758573 8.590872258595267 3.1870450207205714 1.1065534354367523 0.09791557880156686 1.5347914928845245
Ni 3.5799927610052356 4.649792237788462 9.363529505865722 1.1336477205503832 -0.5070372271348622 -0.8505376379239223
Ni 5.477007190042652 4.62249569561323 11.447247203267526 0.582186458774191 -1.4464671573158188 -1.7141182250747318
Ni 7.778761574444022 0.36478576436948035 2.3793231923700495 0.43746523247299496 -1.4398761343618622 0.9394885513330337
Ni 4.860662335117562 0.4835842348613264 1.5059191161080798 0.3597567247469224 -0.3244428799369767 -0.004263403262044271
Ni 6.271110683692789 5.7755183288988095 0.049844991902967206 -0.17166793009336886 0.9115560865888237 1.5875140200892208
Ni 8.53637896220224 8.622795333342573 11.258870218707946 -0.5615222455566201 0.6011802262678743 0.55088096379269
Ni 0.09118442117931519 5.119784445683638 5.704345021838584 0.4560507087846662 0.16053145386057513 -0.19184131971745025
Ni 7.461399583264791 6.244902737416868 2.362527064806925 -0.013983201652969466 -0.9109999569750376 0.45437846328856585
P 8.981279034618291 1.8562283693432182 3.443680596819969 -1.9471326765963821 0.49877318735385706 0.9165872212548278
P 2.102822555434719 3.325841905046016 1.3897432545703245 -1.2611986057198794 0.6659578848648917 0.3790294569336053
P 4.942942041840511 1.3888850781363675 8.169346154463932 0.45281034747049753 0.216372214979279 0.38866132359641453
P 8.789912947151851 1.5800515896879324 12.159691489857321 -0.7218122728303504 0.31076692511178095 0.28469079685001936
P 6.564587066514631 7.881878821006289 1.3053026849872433 -0.8214317216969015 0.20821461886915107 -1.0143331072477497
P 2.6224728796034786 3.59786387701893 5.501694730712535 -0.81088351386741 1.576137917041795 1.7205966337102239
P 7.222135276228655 4.088194684966238 5.935887555295606 0.28886781104584447 0.18015719851130266 -0.33477023000491374
P 2.701686374543367 8.7490543143977 10.20116413520282 -0.0780257818561753 0.8615242188424131 -1.7202757600356953
