# total energy = -340887.1495791172 ev
CRYSTAL
PRIMVEC
9.12873225176027 0.00000000000000 0.00000000000000

0.00000000000000 9.12873225176027 0.00000000000000

0.00000000000000 0.00000000000000 13.36082239685100

PRIMCOORD
 96 1
Ni 6.61157565746232 1.8460761473526532 11.159359466521746 0.9885716820129298 0.4800748396134055 1.71256296477247
Ni 4.974985658989138 0.48041779488756736 5.984005436476949 -0.1547133045169013 -0.6773789822176398 0.038514096914798186
Ni 2.586188118783849 1.8316892652437964 4.782492645290909 1.1286430682469402 -1.6221748046962001 0.9255089492244899
Ni 3.6878070181292815 4.312184921428442 4.8112718867480035 -0.9817274053975866 0.5521585449535329 0.3680225643001404
Ni 3.7490242969503433 2.4523152595666 2.653779991371798 -0.22960645428136586 0.7808453156341068 -0.37548390567419204
Ni 5.0138192862042885 4.654558026436484 2.7244455081260246 1.79573275272343 -1.908782616063274 -1.8532652997222596
Ni 5.253685856186725 4.732982965647898 11.13613871016369 -0.515664563792557 -0.44299438982134026 0.09341280583520686
Ni 5.5835708554048455 7.977215752462802 12.481586962184105 0.826775245397002 -0.07309774842693863 0.7952226674017014
Ni 1.903632804520383 6.87095945710766 0.09130192899742515 0.35403781998527417 -0.6560311126694831 0.8224915304199835
Ni 2.7021869201526583 1.6369642764975885 0.17161560292224187 -0.11406699175044872 0.23944349497644568 1.126455573677318
Ni 7.830325320982081 9.009127651945779 7.3497486861524495 1.360982605188753 0.5358160990397675 -1.7621068371388686
Ni 8.835928213969039 2.236612443989076 1.298270050607484 -0.037593384872741706 0.8043657673535503 -0.6990929768559637
Ni 7.149540980785314 1.0159731328826824 5.180979154889643 0.32474909832348586 0.09177655578336452 -1.7496439287851673
Ni 1.1517995408126824 7.706512324762269 2.6185074826278822 -0.7950069518464695 -0.1332294236115125 -0.674916122499444
Ni 7.966042184124451 4.127218547513686 3.5123463931611956 -0.06152469887735856 -0.5221558279438556 -0.6518188743603485
Ni 7.8087997702126115 4.00690185576576 12.66062148584865 0.1534400942314325 -0.12256088815407279 -0.33459796609310766
Ni 8.46558467318591 7.39677443773593 9.226502851281133 -0.7446930340832658 -0.3671206213111613 0.05115364005567965
Ni 6.779681262814222 0.8048337705832157 0.40323253752284277 0.4919862463390108 -0.24699688184367138 -0.16000000683713736
Ni 1.807562025768093 7.225400746219706 8.974491415843351 0.45730077914168343 -1.3710083648558713 -0.3177443848708786
Ni 0.44519092980516417 5.013344592124554 1.0689179544911516 -0.20152589399506585 -0.930313826812301 1.6231374257197855
Ni 6.555169220564715 2.356180579688192 7.050999967071949 1.0109775605119555 -1.0569090329367474 0.5297151283483522
Ni 3.855985653339604 4.154157436538582 0.4975332550816635 -0.9887706853976133 -0.0699139513823183 0.6723082525629518
Ni 6.116186741598531 5.580421442760458 4.818059099214968 0.6516216707478778 0.5315131007890396 0.3336114338101222
Ni 5.245360452326778 2.8452889277278093 9.541137390314573 0.0739320714027759 0.2811619577611545 -1.0313198716137335
P 0.21962999621409088 5.919435174281152 12.56423667870515 -0.7836457611973795 -1.0385968648911208 -1.762561922398416
P 4.070766466954567 5.836098977090953 12.56505187449977 -0.8813032012415531 1.5200590717703564 -0.1125235585227288
P 2.541448201768933 8.696331639598077 1.2890892845307853 -0.21045790637737302 0.13008650710715663 0.7446544675358466
P 6.749008722277574 8.003059193611389 5.708758638709425 0.09880003828904921 -0.10112302999527102 0.35557919633046503
P 4.735265148723542 0.9078496888713039 12.860566283725468 1.5566988344805772 2.47421550952821 -0.2531454179435705
P 4.405809199923642 6.243961607637661 7.740498595124752 -0.5220239303516815 -0.7141868950746088 1.056572218422619
P 4.966514195412349 1.3356156944573145 4.0448819465106185 -0.5709764489909844 -1.5794983488735959 -1.0875802367683591
P 0.4337937075254004 5.652374110769347 3.258637926388365 1.9533840568227325 -0.5264909649840998 -1.350110181250623
Ni 0.21813927422908053 9.063206262106227 4.7328040424947675 0.6694872381743889 0.8106189473521136 -0.23042766463108055
Ni 2.2233757821503435 6.6250587950732225 4.375856003492436 -0.5451574310453514 0.6576059133557707 2.131894720869548
Ni 5.976946187787369 6.01340634460385 9.218499691671466 0.34684387333999617 -1.3684632298365142 -0.9159205342051063
Ni 8.655827454371556 2.554903953182927 10.044185312580222 1.126317505437557 -0.6671495911801478 -0.06880349192695892
Ni 2.457664696695908 5.749001742192094 6.7327723590042154 -0.31954235731156583 -0.5417844008080605 0.9759833038249578
Ni 0.5949313515107477 0.2975136015999624 9.009816871234621 0.15539207575148078 0.16263847290124891 0.4951129648934505
Ni 1.334319414470349 1.1910257035168434 11.231762181033153 1.797817917387233 0.24869560970233298 -0.8111151702622419
Ni 4.025122805441697 6.736949666905874 1.3296500678975822 0.7680314516988901 0.8769256409991478 0.20759832544139084
Ni 5.782851081570038 7.980301263981071 7.923395485426515 -0.8438465990569919 0.6444475215969417 -0.3904065884222954
Ni 5.660279592943376 3.167104127590455 4.723972906865258 0.9796334989830354 0.12413440328877977 0.7303629906138389
Ni 0.7625120547552519 7.88408442551194 6.717140317809288 0.8077177145449186 -0.6459601015867262 0.3247341859251504
Ni 5.456955338368143 4.367715000025001 7.041955219106558 -0.22918222225975368 1.500501718463719 0.22420045277444614
Ni 0.8905553055240771 7.488819445542784 11.246017609396851 -0.2804770158789879 0.840331643925198 -0.26148890481225934
Ni 4.856878120458434 0.24967265422186227 10.755235051852942 -0.48785242667629525 1.565101970942608 -1.5197600524726986
Ni 8.25233748659778 6.831915869049552 4.240791844709701 -1.3351468750725717 2.308004231674038 2.129786930497926
Ni 7.781386187107982 6.578776122299171 6.994390872317226 -0.759215653179473 -1.312471802072559 -0.8110673477434418
Ni 2.5490067921154647 5.250180422982537 2.5858540071815748 -0.09259776613307923 -0.43292954938617056 -1.7910998819371087
Ni 2.250561146947409 5.584027292019974 11.215502083055807 0.6562406575771279 -1.312997592669042 0.3524329373919995
Ni 1.5126857149303443 3.391552268713844 3.5533508329178978 -1.7506813689107465 0.9977371505622818 0.039240947778493705
Ni 1.5744233314926532 1.1345462367608175 2.637252421537988 -0.5686262035912529 -0.31761660104376266 -0.7015951744525272
Ni 1.06217364706601 3.491037193347297 8.108202106525976 0.9094894338677819 0.5166487820826974 -0.3018307989644157
Ni 3.8234691088778354 2.4986344472698603 6.989994474840306 0.9967215648135737 0.7866894331197096 -0.2864239774910422
Ni 4.258471460560096 6.943058184833392 5.768882295400639 0.6994177071852341 1.5845058293905163 -0.33612520137091145
Ni 0.7226569223954434 9.136674299677342 -0.08511356136951018 -0.35497267309471764 -0.05450712990894484 0.728869693897764
P 0.5024171268635407 5.773904923913515 7.750853316175562 -0.0026664910885696013 0.7077768777832069 0.9127863594514988
P 8.719345173732865 1.8744847622782639 7.7994336908701705 -0.596245250860102 -0.41080160713887964 0.07713335194889297
P 1.82162940224636 3.3819214561346285 10.237850455506102 0.3821242938088451 0.5130484663259486 0.8666276015072494
P 4.280124813581802 6.226836105838032 3.7113427157517775 -0.9782307050982378 1.7772753173491909 -0.08697296374713409
P 7.1214701289549 4.01194091599678 10.17819418990878 -1.1886204772418367 0.6779209707640389 0.6655341670639119
P 6.444784589561989 7.74733601561938 10.402976442634444 -0.40842822181069655 1.9089859903233317 -0.6183806493065608
P 2.379321916075217 8.776153274851785 5.471430769180335 -0.6066479342506649 0.12405727019394118 0.845008480575577
P 6.811677469534744 4.215958954227009 1.3036779116235289 -0.16022189303995632 -0.8803639772567354 0.45875165265559703
Ni 5.609450811482643 3.0465135738734506 12.89876546404559 0.06098322455159175 -0.4294428763891507 1.0808046086074226
Ni 1.6892810413236403 1.3716741870524822 7.096480224276602 -0.6640670956000821 -0.6359461689941499 -0.8833834808093495
Ni 7.033505664487296 0.5443645646670989 9.311918573689859 -1.254973193635458 0.4545553551860623 -0.37017509186676895
Ni 3.001317220243406 1.7661814822405248 9.286773480562418 -0.23092105932773135 -0.9411502553061726 -0.17921746030585264
Ni 6.4144498121205356 2.171405909151789 2.612455133111275 0.910792726060238 0.5263241003889323 -0.8498498678282782
Ni 4.112566932168055 7.16338926768832 10.6335180125698 -0.1407655840875576 -1.627235249938243 -0.40690355763605407
Ni 7.967904445514176 7.46458266127945 13.28240774204711 0.3852612967759301 0.841193734815177 0.12254906107953087
Ni 7.8445570146417944 4.2364347007816825 8.140722302480667 -0.528744794015283 -0.038589944458056115 -1.1345422073401945
Ni 3.2238391988509525 8.594564531888981 12.602756277529094 -0.5471713761515867 -0.6942590458024301 -1.5220689031115335
Ni 0.20131502059543646 4.988021488717214 9.888865409691306 0.37377360785130465 0.6569394834163654 0.810849575305681
Ni 9.269771216648873 2.7349955840481095 5.511366234384405 -0.603497047326509 -1.306075668738228 0.35299986563906305
Ni 3.5559607374832036 2.681473826558117 11.564139324169876 0.1754860182878784 0.47179974408880676 -0.44703719243214624
Ni 1.034778321425985 3.546886777574445 12.557610131926713 1.5065687505934053 0.2516896593336504 -0.46068512223288405
Ni 3.299835895269882 8.707386534416493 7.519003598901246 -0.2071841207221077 -0.3569297968210885 0.6448131324664766
Ni 5.698008643549914 8.018148988107543 3.845097814322324 0.5293759998413786 0.2193492953297319 -0.6516579233024519
Ni 3.34334343342395 8.60899705765935 3.55023793520272 0.3099801675444275 0.3289538804334528 -0.21640538221005956
Ni 3.4356257882706718 4.646050047930484 9.05959949997348 0.1119345187884782 -0.0157174107352568 0.06714641593951017
Ni 7.369780776317217 6.074030255825245 11.177783986928032 1.6154613972317662 -0.9159547298771515 1.4864259570969431
Ni 8.1474392237089 -0.18803636658811215 2.5767818730192764 -0.15372034447601265 0.34270851101538397 -0.23024948718200344
Ni 4.702063949339079 0.3689459318676047 1.755692568824867 0.30510741283315845 -0.6676923510574952 -0.5533060282944148
Ni 6.132235052986457 5.901670661220343 13.375920650008219 -0.43093822998775466 -1.4147258603484798 0.9852513593904452
Ni 8.223207701820265 9.043068278646748 11.21834750891452 -0.07409019424719498 0.15050672263472145 0.9697764036832978
Ni 0.4992302864167121 5.150065615820206 5.421768639707871 -0.5415131494245448 -0.3726376944746486 0.5992704108396711
Ni 7.5826171699517335 6.213462513014761 2.1320528570686226 -0.18549609422571278 -0.7948634842900698 -0.6169588292583698
P 8.594518888227467 1.8433101414649733 3.4246731352540434 0.20344933627002382 -0.7349128147680505 1.266294532185548
P 1.9398738717616022 3.2657674663166754 1.4399625819151183 0.19491610198803205 0.11298661420207638 -0.7370139202714533
P 4.994466373722831 1.0914038478988521 8.167804512602713 0.40273965606635154 -0.5713844830626805 0.7589629137387187
P 8.863560886648932 1.8535160641792512 12.39882952662189 -2.73797366999062 -0.8899521351658028 0.5684580534445048
P 6.457126635635069 7.954430436635576 1.646641645611547 -0.7192293425945226 0.5879493293998972 -1.4990994387995535
P 2.148611464592262 3.5324177368748653 6.145217023193947 -0.5729489993363228 0.30649580854025277 -0.5407400187039462
P 7.512846268963159 4.057146398359127 5.682023320414877 -1.2280611997359625 0.5829639603701637 1.1718841383237624
P 2.697211761047755 8.772200533764769 10.122466017821255 -0.4857430936427764 0.9234942327873062 0.30615462315075015
