# total energy = -340878.39133929694 ev
CRYSTAL
PRIMVEC
9.19379538613536 0.00000000000000 0.00000000000000
0.00000000000000 9.19379538613536 0.00000000000000
0.00000000000000 0.00000000000000 13.45604887068591
PRIMCOORD
 96 1
Ni 1.0297050589860586 3.19593788303281 11.69000985103045 0.10389545053408558 -0.6465789661176478 0.28650085347556464
Ni 3.4863606786427255 3.531465437744383 12.57716695467216 0.6437265842705171 0.25967139198754635 0.2870109603427638
Ni 3.5201754572762143 8.67169792943177 10.775227231663372 -1.8379402393294153 0.46390311494954944 -0.3665706623449622
Ni 2.165929428806157 6.923525359333358 1.7559468432937562 -0.5979051550610284 -0.13824538876886514 0.8917521644890191
Ni 4.25825333348515 1.7809116746970661 9.840785520085312 -1.0260370259482394 -0.9959628322706784 0.3870394717222753
Ni 8.90286671517414 7.467494638128252 12.323169975523875 -0.03968369174286714 -0.6973585106633602 -0.7275530319688696
Ni 8.93780313681831 4.046281192056734 7.687750389004404 -0.355773057508826 1.2869183790834868 0.3129346221870611
Ni 1.7717638485033955 3.299294528328535 1.4687409566136544 0.20088826041106692 1.0108960565417429 0.0011629099598496101
Ni 4.828277827790459 4.157627245354771 9.658267540241482 -0.30138908344130677 0.12038393510741202 0.043250583158519054
Ni 7.739603393760488 0.9044368416628197 1.9600353053643098 -0.8490983343742344 -0.35115509912084036 -0.9792524614945328
Ni 3.75505853626707 0.5098216847762688 5.885756422604116 1.4864087307057625 0.8061557693744376 0.7844250625655651
Ni 0.7097324863217934 8.66138249125157 0.6462088779775231 -0.9957810552771754 -0.23689476041266297 1.5471379302650192
Ni 6.715313480129276 3.0169990476484734 6.355829653344489 -0.043559372648189494 -0.20443355456016404 -0.11319333089624377
Ni 2.9425017253898655 8.1656346681208 -0.34182254626414255 0.06811932137574074 0.1941388575023753 0.2653856687635042
Ni 3.2419804092417577 6.121090916937794 6.159048419674668 1.5116718761479255 0.38132133829157555 -0.24167546963075798
Ni -0.292028032246514 5.238118828857249 11.71865771677867 0.08136410220078891 -0.48718599673688995 -0.334812653207075
Ni 7.049176957915166 2.5587159398334904 3.823011715124014 -0.12578942239369947 0.17230633500831616 1.269701243874252
Ni 1.4843198425284034 0.8688568543567836 5.352318636175904 -1.6921365785973181 1.3295698952054262 0.5056539736340904
Ni 5.659663531174837 0.012842812472300224 0.9302088882820136 -0.8963464687279208 -0.6172056551618532 0.5730343599612777
Ni 6.392363037209604 2.2753539789137647 10.752445926612824 0.6275877697271255 -0.24006981570653493 1.644403019966781
Ni 2.6100724796504204 8.182073173883898 4.700681741530298 0.07378988939795678 -1.9333168537592123 -1.4144939468433317
Ni 9.37114347833839 7.936773524965979 5.283221749199873 0.317139404297028 -1.2221432915896309 1.0388236361899463
Ni 0.6505961570324172 1.8067186577379044 7.495193704214977 -0.03804461347754738 -0.39338932519970315 -0.24190815446685437
Ni 5.687336854635086 4.249362933556226 0.4981749850555229 -2.9105623121260455 0.3052963889155129 0.6718320842574818
P 2.713456706331655 8.047806989228253 6.837300431956513 -0.5995486042017223 0.8464305577340842 2.342056950383373
P 6.4976319919005885 2.8241132249919776 8.775563910979887 0.6456939924095331 1.4377380049729367 -1.8574909077678332
P 2.979552719923025 1.6399156319773325 11.691435808661241 -0.804391478385163 -0.8597915524220225 -0.22872610855894154
P 0.7104155853028886 4.411090984383224 9.80970129861717 -1.3087840688083268 -0.5375197119944356 -0.459043472864403
P 5.4755669767004 4.5343430024257865 11.74348372187492 -0.18284014466010448 -0.054706904624576745 0.31350746397139556
P 3.2897973379184227 5.094677236622424 1.5438395530763485 0.7873990575922246 -1.160894214971162 0.09989687089765377
P 5.25222211064729 8.138788786225806 12.516883239745628 -0.3595124699466002 1.0922676149416997 0.0026353807403180418
P 8.07518611124308 1.0516966170315465 5.980473658579045 1.8864890947723962 1.0163992457481592 -0.2420588211121057
Ni 8.42545131961139 8.929850503996677 10.268418353564154 -0.4541933438609532 1.4196369244968519 0.1907303460414586
Ni 4.564746883051384 6.78414742456346 0.60671601144734 0.20889673253784022 -0.8948467442539428 1.2737689861857224
Ni 3.697716835794784 1.9395965793229535 1.130734754724379 1.049081823582845 0.006744774923001288 0.017410996387595818
Ni 4.302760495900788 6.4761828677701025 11.569712718755369 -0.30936798788172526 -1.1622083057968953 0.3348730741313652
Ni 2.796145700086303 4.7565294502875375 4.192272223692067 1.0109217675733557 0.19565863658101143 -1.486317199433221
Ni 5.306961967086603 1.0107842285271897 3.3067700031808704 -0.041030178468432564 -0.42017276394113445 -0.3273160877197137
Ni 1.9846645632439326 5.527852089829452 13.153085591060647 0.16489230193243215 -0.4573635140588188 0.011169129242942053
Ni 0.8151816393981014 8.930457294477865 3.1763808419482102 0.6594514512049418 -0.8662344798338888 -1.1950577482267482
Ni 3.2602484802435905 3.48551484948713 6.2507381389002745 0.21516199672126168 -0.3630806469138328 -0.5729374293720971
Ni 2.5105220655548752 6.725628918309475 8.635176497500375 0.7989715929211724 -0.44185924777563257 -0.1970228639183897
Ni 8.488557529654964 8.633451741526573 7.58325003558959 -0.4232148932015679 -0.26608218060989663 -0.026545611699012348
Ni 5.75750389936885 -0.3656427501688477 10.562406502940808 1.4857142757418993 -0.44273085174730853 0.25918031128374075
Ni 6.064034224115764 7.901441770129519 2.7404588827445298 -0.6293163223824582 0.09009762541904484 0.915811519431068
Ni 6.7134747210953725 6.466961491215075 12.730875257972787 -0.3265678966997795 -0.6560879340493474 -1.016574852094075
Ni 3.5658686192687203 8.624680860934852 2.401850487271651 0.6141686681077422 0.2867217112371191 -0.07712640997035748
Ni 4.883523342964095 5.891558626735598 2.9106507414045866 -0.7904183040345225 0.19616617234504927 0.0820572716130716
Ni 2.3783244848123704 4.203991554394652 8.350810574148138 -0.056408460696715755 0.11689109146280514 0.10392270422759523
Ni 7.719597695471616 -0.034511668307338095 4.098160858818809 -0.10534683826863146 1.6671464843108836 0.6153950843156757
Ni 1.1771919210954722 -0.026865188864849655 11.934303698756825 0.5830822311155829 2.0072872345990915 -1.091551048490649
Ni 4.997287364391715 1.2643399055073372 12.61185606322627 -0.39343689060818693 0.7054546574079334 -1.4218640140551577
Ni 2.5332583210090944 4.961551082567797 10.79232952943771 0.32734822650922973 0.5202159306086653 -0.43249374740033253
Ni 6.912400867178242 5.931588410903681 1.594756629484175 -0.43212762231016544 -0.5205126359134779 0.4370168320816667
Ni 0.1433781550481561 1.9860712139048688 3.175829214238039 1.4229014541807365 0.7086014305670313 0.3474095160354791
Ni 1.412240488399379 8.818164280277367 8.616042370993572 0.5388836822214977 -0.594985153200756 -1.3039444813278382
P 9.235075309829519 4.1858705841155315 0.4031929677797116 -0.016250657530907497 -0.09903066624261656 -0.7412135601750977
P 1.6941038607064738 7.014332474222692 11.49299969186091 2.1344144019676077 0.46147367957245045 0.8698471368858117
P 1.6888082346888311 3.0064077956131885 4.664431526556403 -0.9272166759442162 -0.32726903653186223 -0.3377267415300764
P 4.791236027052469 2.1865603051665565 5.056621360277235 1.1321492816279857 1.8215155181144884 0.35036345645748046
P 1.7861061689678441 1.0860078606041892 1.4403891310698935 -0.1427569034859735 -0.463222286832441 1.146459784713387
P 1.459588533522399 6.4519939926791 3.967206279183223 -1.6027732602411364 0.3959018072089117 -0.63567054673526
P 2.6739233871027253 2.0144432657980027 8.215038445843724 0.6698520777129754 -0.3696382455266924 -0.030924714603314488
P 6.476173673974933 7.564296107468111 7.766212075740108 -0.9064357346431228 0.6634366611049348 -0.313422360456757
Ni 0.38510693392223505 4.430443923215059 3.2340397283538445 -0.5093550766347614 1.116795939100367 0.28692765660033814
Ni 7.457261944104578 -0.08943356189100699 12.837904824438734 -0.7118155666289547 0.4902304399901686 -0.18856496295902364
Ni 4.756354768179317 3.5793467229872347 3.2323443925245856 0.12822991351439206 -1.3753373312485282 -0.5902031584310803
Ni 6.670585666629568 0.726748362421538 8.738774939609058 0.6453947160015595 -0.011357076884032055 -0.324167514788403
Ni 5.295938606678351 5.003529951311818 5.154931531404413 0.20644801388703155 -0.03165619345270032 0.5807371279221739
Ni 8.862083039802156 3.1196201893306377 5.431291497923033 0.9582653177199045 -0.8565141672223313 -0.16355584250919575
Ni 7.3136272821711925 3.5640758292106645 12.64283271729093 1.5698513127021352 -0.5801761132123815 -0.5798480404490013
Ni 8.66079408836072 2.490249747206087 9.546878276106147 -1.0096513855013645 -0.08825748688651253 0.9773840408272265
Ni 6.718614052595133 7.412791556869618 5.291187253334742 -0.7633211907074144 -1.4375546853175372 0.43924109342649514
Ni 8.237134813154144 6.931202178299906 3.3481742597267967 1.4195605627329617 -0.9706958301737734 -0.0014089645323846702
Ni 0.05977437867414069 1.9429247331743191 0.1890281062033657 0.1335901493850409 0.04590936093760481 1.073123437913081
Ni 7.839659466590357 5.3230419148380905 5.471377364241651 1.1362417065298045 -0.5747420866810038 -0.13810629208783956
Ni 7.582775635758844 3.4512311872999963 1.761194661576517 1.025876332000659 0.5701508677658955 -0.38012114733588726
Ni -0.07252249505619487 6.250153413527493 0.8940929027175947 0.2410879725584041 0.25419031426831706 0.3659415134013956
Ni 6.44988861358528 5.292601259031816 7.3250156362476755 0.06768866159622537 0.9067764058119931 0.6101199519596654
Ni 1.4469930341401587 1.3062819990706798 9.997278623942785 1.0659482603208803 1.1342236476585112 0.44291134318923076
Ni 4.8957970595154015 6.639841615582699 9.302569718307502 1.3904124804140956 0.43364045941026613 -0.5999730933336506
Ni 2.924362367520406 1.5827945825891148 3.476464477522256 -0.5555554864502239 0.14368198640340415 0.09782379041870894
Ni 4.543702285908356 8.953781952822933 8.329146315210684 -1.0801695461265848 -0.9979749776047006 -0.21904230561227436
Ni 7.306014819770832 4.754414877398547 9.524514369356293 0.6360263874127821 0.3512337748775758 1.1595330729575772
Ni 6.2567085894833605 0.16006949017841668 6.41813140631073 -1.415520588335633 0.5339934440087319 0.13008933532063402
Ni 4.8454242557816105 2.1793615635488233 7.499567192577117 -0.871027530347158 -0.5362786404984828 0.08633378750123841
Ni 1.2899446250544457 5.144075498068246 6.041752142142918 -2.1685925905112136 -0.44373795285558415 -0.30667989952660085
Ni 0.38485594331410716 6.925943327462941 9.867657144606781 0.6866213267515143 -1.2293950880560376 -1.768301910205987
P 4.775735288396661 7.9489828849511 4.5138049833966 0.01862841373446469 0.1743159092391772 -0.44590205038643854
P 4.3758511674984595 5.178239640918176 7.735128773651483 -1.1503454929210382 -0.09100856726908843 -0.3246269709233248
P 9.004623640110369 6.407027140504986 7.152979502276613 0.10607060380853345 -0.14802997895945472 -0.1413433109678985
P 7.7064229869936955 7.99668029429056 1.3435582415854923 1.3905281800563536 -0.24768927992500567 -0.5839232389596395
P 5.90242569262597 2.1338155022790293 1.2488704257551053 -0.14299575896965697 0.23555701543784593 0.4210662222896813
P 6.9595006798316845 4.8526965477607 3.5488306780605687 -0.3159045034486624 0.09288804367998842 -0.34248173971655854
P 7.54772888857264 6.881684397516881 10.519804294884295 -1.272844160378608 -0.0874416758534365 0.9361672002692843
P 8.316560009623615 1.5963186552834763 11.812957554452902 0.21254924168876296 0.36008942549599277 -2.3182210243060397
