# total energy = -381170.18907689303 ev
CRYSTAL
PRIMVEC
9.17052794450647 0.00000000000000 0.00000000000000
0.00000000000000 9.17052794450647 0.00000000000000
0.00000000000000 0.00000000000000 13.42199461795426
PRIMCOORD
 96 1
Ni 2.5567889968230704 3.342859126270832 6.1782652639044295 0.3985317886325911 -0.31770633254409153 1.4620704110707141
Ni 2.9822281214464303 0.537375503720299 7.470897006689516 0.31776418236522047 -0.09469835741584981 0.38267245300283126
Ni 3.5726817228863266 0.7788859379873816 1.9016822575036443 0.27676022914903303 -0.3778989428735879 -1.892171489869154
Ni 2.5253432570762713 3.4350412714836707 1.5309260729608292 -0.3670910536248065 0.2689559026132658 -1.4822911089929633
Ni 6.299318064664329 2.9830351278907927 9.82346385223893 0.06404875085079292 0.22275857812159702 2.028436614983197
Ni 2.5848324707646597 4.6643688610252 12.742478608666795 0.9656713803759884 0.21710780759372283 0.11824863393196408
Ni 3.301674286025024 5.9693166226145875 10.741340143317718 0.8506983318715027 -1.1469688631393216 1.911504128759495
Ni 4.842964889479243 7.822909549509238 2.3331858521458315 0.9821164133058893 -0.016985221704086877 0.3739967796057043
Ni 4.448384590824964 8.305756178015644 10.859131904400172 -0.09717073021574232 -1.0968488065544788 1.2633218227104694
Ni 1.2290983263471087 6.2088324670902075 0.33647766876574897 -0.6599011371478506 -0.8409466518013775 -1.5153184717615773
Ni 8.302326400627104 1.4514652838800288 0.4504260616569276 -1.2490123480663327 2.239552466659543 -0.10435747777216867
Ni 3.261938389167958 4.361805638083776 4.049160336904491 -0.27404231599723766 0.5413966784513385 -0.8761118868486008
Ni 1.2669726060654756 4.941126218802584 2.659111911651544 -0.11225616379395505 0.08997061292287731 -1.4983057392536647
Ni 8.300794922488372 3.6594807682941575 8.480016380936794 -1.4056465237550309 1.5560041224063976 -0.7768835027728814
Ni 8.924665927147087 8.7693355276629 9.533655916382319 0.23630212113398658 -0.1408694566552735 0.7757923265912315
Ni 4.285928691258167 4.8735485996150185 6.082726705525266 -0.24861719105591373 1.4877876133311603 1.323604678760927
Ni 0.5720850343028769 7.077281447557361 6.577434494658242 -0.716578535235237 1.4591933466332354 0.6272087891211521
Ni 5.079381095566288 0.8928343308785602 3.682794084008451 0.09327628025734258 1.2389511071755888 -1.0448096785700522
Ni 4.564162504007623 8.06502982387348 8.450071856587066 -1.3143368803057558 1.0846170403749773 1.9790716913968236
Ni 5.5046001275230045 6.810006415501234 7.104422541565709 0.15904304224050675 -2.1856279487269457 -2.0764108288696304
Ni 8.65428208617461 6.823322021833212 11.476449649909556 0.6665631225490585 0.7504703028866753 -0.5228880781241898
Ni 8.718026424751455 0.08375351313314115 7.28376780213912 2.3541478201096355 1.3667760719420783 -0.9924591899927939
Ni 5.511872356050041 1.2416986315124927 12.050669583078884 1.4847686239991784 -0.5587925053302828 -0.5767665733102002
Ni 9.099758813990375 5.7815133842725945 4.2373102211964495 -1.9101594418061427 0.5904875224407186 1.3616233240965452
P 7.014820982869274 7.2435797982626555 1.5332618063855914 0.5314873897574266 0.13491066796867732 -1.340522280451872
Ni 7.544849976787543 4.988556188464423 10.362907309972908 0.22830084809606488 0.3101022949445885 0.21572275432073815
P 7.763035173654223 0.3434729473539258 11.911509575223604 -0.7723205659925474 1.009246950974094 -1.5265981584404547
Ni 5.44015882883512 3.8570689597740446 8.054337905538459 -1.6879161127580675 0.6498470953459583 -0.9694889543498657
P 1.7353664827955744 7.98770393365913 8.197134027657256 0.07421514986083348 0.45040610890437915 0.7600042105190394
P 1.5921228389212665 0.14316569438820453 2.8174245667687616 -0.8222732437615902 -0.03519300296136519 -0.178742320441647
P 0.174685715409996 4.665469324358422 11.70412634302527 0.05604902047476799 0.9961726342886391 1.4202815000593865
Ni 3.208584258562278 6.168573850149861 8.602331046318788 -0.9671801037110311 0.6386586828293065 -2.454095341739567
Ni 3.303976088497012 7.550985059870253 6.367246915065748 -0.28278843762098393 -0.5915355040892587 0.13760981206739525
Ni 0.3688835627707836 6.454951091565153 9.128982534856846 -0.18479932526900433 0.8093822467315351 0.9407229379607669
Ni 5.382118558535471 8.047376557903057 4.9336164736061265 -0.12182632398089341 -2.400503267445724 -1.3307744570364888
Ni 3.1998539161187223 9.018993975859708 4.47085330093101 -1.5673092630065717 -1.0682874499770183 -0.7037772697055106
Ni 0.271339409966824 7.388602524525671 1.9227542962292774 -1.8798217100545496 -0.3696611283448279 1.611239902951251
Ni 0.9210969804340167 3.629566506686092 4.596066770143264 -0.18763550916621877 -0.13858811682026456 -0.02712848078567586
Ni 6.741741006730405 8.618480345733811 7.709889214029077 -0.37765751628674316 -0.5254923485162563 0.6678520165638112
Ni 1.400394614690783 1.3813382579705007 0.6701840040373356 1.005390039121849 -0.5060152136282512 -0.16526922565587665
Ni 6.340658803882343 5.508415067078171 5.2206191450158 1.1691258588523348 -0.3422871072072492 2.040885125159195
Ni 7.533680273955347 7.5476836698705885 5.690307900267989 -0.0761481052174882 -0.5720159459990922 1.4959917464085075
Ni 6.553552606221784 3.4283559567343507 0.7691138235883763 0.39819677389067554 -0.6524043145501732 -0.9077346559602043
Ni 6.283792361138133 0.24381957316129202 1.0940412126191899 -0.009136672193945556 0.8976708439662991 0.04640558384773298
Ni 4.649154955443415 3.2706687316115137 2.3993154449974337 0.6191794910587723 -0.934047068602488 -0.609977255734214
Ni 1.814764912287492 0.9649962969017702 9.456506100301283 0.7003173361813682 -0.1372285174685766 0.24923219893209334
Ni 5.379229842285766 3.299858521525209 4.790189419176282 -2.286891875175455 -1.152711936270686 -0.5329421199260822
Ni 8.060609629485043 4.904013092889695 2.0872809009680853 -0.5574976977782592 0.49595500117877167 0.7139876345796091
Ni 0.6669779875265509 2.311954246236882 7.596365416573966 0.7632731110782984 -0.18834641919031436 -0.4169270033103271
Ni 1.6222205110848693 1.1019031060822786 5.844728583396715 -0.7550157561655125 0.6955955052256666 -1.4177283946202293
Ni 4.18435592560184 2.720409553417526 13.333825419512156 -1.3979504406623537 -0.39104653599913947 0.6568235266637913
Ni 7.079271452084935 6.8282282541938235 3.537903413345422 0.8118736456948211 1.2800339932588278 -0.7156192566457611
Ni 7.796791886400786 5.4335927309468985 13.159728451985433 -0.2048395317493311 0.06281487844369182 -0.09391597072387052
Ni 6.936211218766165 3.39386560176564 6.4201966253964695 1.4831776253629745 -0.6902249849423726 1.388341713927996
Ni 2.659682318479263 2.105415619646795 3.346761185839879 -0.9700018894305424 0.2685897775230987 2.5666127296147083
Ni 0.11226284988579466 3.7442072744244217 0.4439865170520275 0.9868436435782294 -0.09430163619806341 -0.23672763870717942
P 5.456335639833473 3.464148526647374 11.865660604550493 1.5331297889113855 1.5282812025698325 -0.4203599402512761
Ni 1.5021599614304242 2.863451445680743 12.00990658711081 0.2894632785379983 -1.2018775993620592 -0.5515659056748564
P 6.493889152505635 1.9967265244356363 2.414858572526407 0.9778298701153934 0.15920322196745484 0.49500729255352166
Ni 0.7982091570659702 0.6782375615309602 11.558712952278961 -0.6276163089722159 -0.47349230129988124 0.3237959903815972
P 8.776671949884374 2.0901558614261257 5.220189047263066 0.09779113740856062 -1.9581660515924082 0.9314697947936151
P 6.70961664792812 1.610592281863831 7.815694178254417 -0.18481475188797203 1.2257994002849792 -0.4356379494562691
P 3.8767947650220362 6.727095673870784 3.9510457772728116 0.43939587383680456 -0.993026889570806 1.020837741135487
Ni 0.4395259723413705 2.5225645871598874 2.4691636868625455 -1.1303106857573502 -0.26678409177292767 0.3995016087450281
Ni 5.413747708837808 5.240122106438815 3.244324556466973 -0.28062022632507155 0.42829050795226237 -1.0253955357094986
Ni 8.09232131453737 9.210878099062397 2.417636325390013 1.7613511899197665 0.12563464198339008 -0.19689816541506736
Ni 5.615856970511678 5.762833019191162 11.7958527130076 -0.3411447660726899 -0.28747915822843395 -0.13197035439343077
Ni 5.660159790201614 5.617351766539304 0.7933496943970204 -0.06449869390401795 0.748250412417221 -0.03780832909702521
Ni 6.778771597893303 7.741071759628681 12.836191314965589 -0.8555230069536557 -0.42689182783252283 -0.7078789505787099
Ni 8.833015672545306 2.0174335761557507 9.754863719204247 0.300573786628863 -1.5028002846899087 0.4893917461389571
Ni 1.8823333609472808 5.77664383402309 5.437692873915926 1.9878970029979377 -1.7725735409981471 0.15973518321152488
Ni 6.62304686571471 0.7675328245996483 9.768487455269527 2.193713811058873 -1.8049578708661236 1.297449617632114
Ni 0.032115188274508676 8.843277493127594 4.922677868073906 1.516248953995647 0.18689605989703295 -1.624186178699274
Ni 6.894879650075928 7.474081013933636 9.698343922409999 0.3567678173219275 -0.1092536295222054 1.5968468674543725
Ni 0.9866204013995691 4.919988152276957 7.610834675300271 0.5552988903547275 -1.3134025414169446 -1.2880578920045687
Ni 1.2579763183163912 4.231822577374786 9.922759575848266 -0.3245495807181701 -0.3452590453513796 0.23274499991034756
Ni 3.7548542571733377 3.3885375251272936 10.314990385286118 0.15973749720437005 -0.5143409598851271 1.1703126800715844
Ni 5.431621067474877 5.801101631603933 9.401946045292947 -1.296442002303206 -0.4640838635017878 0.16173575858132144
Ni -0.2389619445978976 8.582431001043036 -0.060652036610492725 1.93284814165291 -1.9789086834563985 0.49739841849351757
Ni 4.466716475850875 0.8996104338528705 9.422374312968646 -1.771113154402537 2.3172486330904416 0.2391143937718011
Ni 3.5581739479433585 5.766400354496355 1.7481208528276093 -0.8549375667638308 -1.6028871601111814 -0.10593459245130143
Ni 4.475199214044456 8.755854851830938 0.08967492291864951 1.3503300105709133 -1.380445599009371 -1.0826524604494385
Ni 2.5508189832403447 7.7551210081828055 1.4434282333364026 0.2030788403044825 0.8999429278299275 1.3109911037619744
Ni 7.12956262641315 0.45454362862873066 4.303910262123003 0.517249906001806 1.0606286478801799 1.9717612737783397
Ni 5.131084531172136 0.4100729882804797 6.428866442356698 -0.2940149024644227 1.9213185437467557 0.9092032700859309
Ni 8.087745221176725 2.8733739567352887 11.729024325939402 -1.202706780131574 -0.3148169268114385 1.051225095178093
Ni 7.357688675389928 5.820598173657505 8.000354676727287 0.2683072132856734 0.3563754669795153 0.7721130779674316
Ni 1.7792841403188815 7.577414520923117 10.922322343099298 -0.6820882147678511 0.9990098466271183 -0.5281472696406
P 3.3157143640513724 1.1093770862204066 11.732554062080709 -0.3824328261881994 0.26296703201968263 -1.028929517004686
Ni 1.854748413394533 7.083636623306713 3.575176106441628 -0.24938646512177046 1.0394216747852616 0.39764167271815387
P 3.5139536630034156 6.64254340776828 12.90680437884729 0.5088614248277946 0.22116500838223202 0.07601337941183682
Ni 2.4616172595549806 8.691120096254194 12.94158085428264 -3.1516909081143982 0.3984970787399137 -2.637510899287167
P 2.868614452819106 4.054611298615047 8.536146430300526 0.8611555226490847 -0.6531530197907396 -2.2077042118006944
P 8.3376145915124 5.278033068268289 6.300646874139194 0.7823501823144074 -0.3590599557902139 -1.5544740589151163
P 3.831006319832253 1.7143934857699314 5.255731261767782 -0.5165842473933491 1.3877416184501519 1.3018510891339192
Ni 7.50202361206968 3.4487053578711686 4.238746325846304 1.4037945581479565 0.21080706218667564 -2.7735520813158625
