# total energy = -340875.2294231593 ev
CRYSTAL
PRIMVEC
9.17900563932617 0.00000000000000 0.00000000000000

0.00000000000000 9.17900563932617 0.00000000000000

0.00000000000000 0.00000000000000 13.43440258126261

PRIMCOORD
 96 1
Ni 0.25388395514613515 6.911396613603014 1.1809341605426462 -0.6294641608142321 -1.328123906787519 -1.8662750817183666
Ni 2.945065628822496 3.45248106529493 8.859747055179303 -0.40455228379505814 -0.7164864897420629 -1.1696146255632953
Ni 8.33079216387282 9.068068261708182 4.938566681658991 0.7291296324273701 0.7778679781733377 -0.21198514165517682
Ni 2.9226780338594662 5.594622347337583 4.489159807666204 -0.828966596621366 0.4537994508566443 -0.019989041527417185
Ni 1.4398830910477811 1.1511115709424484 9.032217819048443 -0.39378476086590886 0.6233984142361264 -0.6905342886526753
Ni 6.188742671887416 8.870884860725894 8.457185236903538 0.8438573976902694 -0.5270668920922278 -0.778130487806105
Ni 4.575183613518815 1.732261960402999 4.635419920687894 0.6467897965768732 0.26964084449543235 -0.16336352399273157
Ni 5.6371303228495915 8.753219186338411 12.567910242841876 0.7218783501815955 -0.8863698171311832 -1.602146939511047
Ni 7.087596807498181 7.92376751301361 3.2038897248497715 -0.6492086904310109 0.006949948955271902 0.5829117669759897
Ni 8.254441194253108 0.0669066906293636 9.567229018332215 0.5476156627778569 -0.06595085296951222 -0.519743361847621
Ni 1.733629632256009 4.213604220003581 6.668730321353278 0.0811679270295828 -0.13917689944419903 -0.4109018801621697
Ni 3.459760016834775 4.97813278583617 12.946048562684828 0.16333498474764127 -1.0140016920502601 0.11149511725821444
Ni 4.930769116295689 6.655238100838249 5.183019208422792 1.0560898794695617 -0.14733783798843658 -0.08645077269507694
Ni 5.830605405519019 9.029222709480408 1.4770589821341957 0.7952730610236626 -1.8098787052065086 1.725393283767919
Ni 8.658253193108603 9.157930727754946 1.7885219222920519 -0.28771955637401414 0.30600961293245366 -0.20824650054835106
Ni 2.4487476102714645 3.488829927965531 3.352031534045067 -0.12924524215278388 -0.5511714984499153 -0.7186552152586074
Ni 3.5624639118906734 8.951972197299655 5.85378606657668 1.1290873548732103 -2.468335139488033 -0.676133539846313
Ni 1.238954655729735 4.128854460145586 0.5438918873226115 0.1707582737949059 1.5538459384128143 -0.6871967396390101
Ni 0.8998142596095899 0.7180598493502862 11.538633450687161 2.2390685850445893 -0.5835643129583241 -1.4789031663573369
Ni 2.647831065438806 2.52941271258188 12.63402111367489 -0.9152024250921594 -0.12088478600323051 -0.016764363942532418
Ni 1.1956297487082104 9.117607355605465 6.5135225135509565 -0.1296555902173251 1.4887977997632296 -0.2448430687254622
Ni 5.702136041393328 2.190533000224322 2.1376013458111176 3.0284011122141004 2.496466093396294 2.599891289162181
Ni 7.922445736189224 0.1252989355483106 11.868730690367135 -1.01408936666806 -0.8343815969893501 0.42755080157276043
Ni 2.7365186187527835 6.684106073843058 6.8593507332422625 1.656572051229147 0.8221961106667518 0.7475770404992802
P 0.5001493355406039 1.2184212199231352 3.2808823069696547 -0.6293736579829547 -0.1870189586281424 -1.1012263667968842
P 7.256389543773355 7.708657513850594 0.41323975563553966 0.9631920655975605 1.5799894295774015 -0.23700660340017893
P 4.933247447841412 7.505718876278795 7.303304359933888 -1.496650977259061 -0.4673841315196144 -0.6167670249625378
P 0.6379950540142794 5.791300903005 12.248682781741328 0.9998518829124394 -0.5833385701007631 1.5209766984886193
P 5.406728100148894 6.554507692013204 2.7817270577490576 -0.10921197765099257 -0.8002903117325959 0.36730702629035455
P 6.531303165540658 4.482796920897703 5.371343033079406 -1.2904618734603712 1.321301227438731 0.5473215285762058
P 4.634333126410066 1.4869071373764402 8.376188772486454 -0.40674492057100275 1.122972243114408 -0.12713513778831653
P 1.7340059714907297 2.7937772564647054 10.482219846007354 -0.19640348516683595 -0.263701596192862 1.3301234537160513
Ni 5.701897387244481 2.6208080725847025 6.594625454434449 -0.39963299211656983 0.6491837507303465 0.48803111834600466
Ni 8.572613069695292 5.5035666105465815 10.491502574496945 -0.36092837645752035 -1.239399250456601 -0.5316018038481038
Ni 0.9690827084119702 7.981310699903004 8.526090197079213 0.06316969067994928 -1.469995836565378 0.5849125994561023
Ni 2.4302978087644167 7.055846626695755 13.095694810918435 -2.7060153719164686 -0.5212523422929798 -0.8086402263591881
Ni 4.992103232549467 1.4215434376094322 0.2877269492538389 -3.120806816941032 1.897696019231809 -4.384984302783577
Ni 4.414982426602148 8.418231372408211 3.486818807811206 0.2532945419269251 -0.05195685268326536 0.602816990540349
Ni 3.7714056192065564 5.762432930000192 9.007444600497513 1.3584788649302928 1.618679647058748 0.9350940218097638
Ni 0.7779767271201389 6.858195096421498 5.942815078903624 -2.047101795492868 -0.38568861412133576 -1.0578963365506815
Ni 6.5672206149421894 5.801232587199341 0.964370206872807 -0.4612960163440055 0.8424828859402457 0.3748992368153156
Ni 4.25650689276176 4.900487576409247 6.941784629955866 -0.32742047450806194 -1.8480151070669142 -1.7406463532722471
Ni 8.612771219741727 2.439302413380543 10.474172611688333 0.04726947450992504 -1.0120869915260504 1.7073179143234465
Ni 2.331201262958404 1.08762038834332 4.331936290206693 -0.4430028744617725 -0.820572973241032 -0.2802142491359045
Ni 4.483935117607591 6.889027376651434 0.4384801855778678 1.7147571442103116 0.7265384746614262 1.2007599408178482
Ni 1.5756681227362166 2.025549551324982 1.4558187628867787 -0.40173409761997264 -1.1960651064453403 -0.2918374351971296
Ni 0.29122782203731556 4.87145438130139 4.477444642659514 0.4465458546180245 1.2501672876063825 -0.9871902282843709
Ni 3.3741749674558137 8.881449896315255 8.19991606444606 -0.656848723474772 -0.21120198363224918 -0.6748269052197475
Ni 7.405878831009065 3.103853248857529 4.113641176057137 -0.9424972562523702 -1.1253803383352683 -0.8260103422065194
Ni 5.219650784469721 3.8168967715791577 9.195875819521108 -0.10223683188474006 1.3700107768292924 -1.3464396743775715
Ni 9.051977464672433 3.3967920375619656 2.421806310568313 0.2742338631827535 0.3115724517322118 0.3087874327879069
Ni 8.430301764936454 3.693494218613611 6.304913086242314 -1.9809928196789366 2.1124679796035033 2.3715505889671156
Ni 4.111799867508723 2.374691392082977 10.794542859001632 -0.5342839786659573 -0.19069717881067805 -0.43191653474062386
Ni 7.657980223243424 1.4668510098675351 7.044530748438098 1.0421372739442116 -1.0378250197221028 0.4676600108888204
Ni 3.1187691331604905 1.8431718865769573 6.566910364548688 -0.712667887326921 1.3902448444879798 2.0038270439646326
Ni 6.319057016163811 5.840381046616036 7.281191217242032 0.6700140572121364 -0.43353093041559526 0.05404407422959724
P 6.662324293257871 7.798832066092005 10.53646776984151 0.749179866210026 3.167304960502571 0.9998901923495425
P 8.153160045084569 7.966202056479819 7.3309919128024745 -0.09459782728224353 1.2866571550023003 -0.8903619690097118
P 3.8427815677233736 3.2479177437098237 0.9641131947125097 -1.2965147645226704 0.060085909548302965 1.1345432357814589
P 0.13829824345591302 1.9886499483108866 12.941238763684979 0.45588384418949873 1.2435171292797165 1.6357492009465249
P 7.333465654845334 4.102345491612077 8.53183992626529 0.7596486269518337 0.012513559085978449 0.45855881991850056
P 1.7494725961371849 5.558466243787204 8.502432227723856 -1.1524697383528926 0.030244657817154363 -0.29367268863365553
P 0.6306123797097428 2.132852128249055 6.911489321560835 1.0116681588210772 -0.7848138133635516 1.6310790491643652
P 6.007998870158424 2.0988806280612025 11.64139333767798 0.7299858097800782 -2.378460685823388 1.8502473388315426
Ni 4.049456060625206 7.098455571270738 11.434544443667374 0.03938518666584185 -0.5158260290710859 -1.6302444690782119
Ni 6.820368413829188 3.9520209148554004 11.246919141346424 -0.36378024408401866 0.7350884211139663 -1.7836899626262832
Ni 3.6219163319708465 5.381329791308097 2.0826411311327107 -0.907680148573185 -0.45335105046531604 -1.0754934808071541
Ni 8.171683278637415 4.420893706288982 12.980225672600918 1.1247794715264758 0.27039957703832784 -0.2757418151868477
Ni 5.613889080354146 4.044875736768482 13.372322506449724 -0.3427015690368485 -1.707570653764201 -1.039212644098249
Ni 0.3799208827547277 3.7738288767179298 8.9515169186157 0.5258186215074235 0.8039500199723703 -1.6138477728877434
Ni 0.3053249390296159 7.374679390550132 3.400167157967011 -0.6394495541617181 -0.4559095552211116 1.6453018776319666
Ni 0.33746889917764084 7.475767780598448 10.961263893684697 0.9239971405656539 2.00332516462755 0.020754716048848126
Ni 0.49112637291302785 2.6090038712224817 4.862111989274588 1.077448547650996 -1.2989303159426986 -1.1509957249105274
Ni 6.290592919410899 6.022272224060642 9.694426172264436 -0.2949330434033179 -1.511978865865383 -0.7534612671941991
Ni 2.3835766696246794 7.58598928134304 2.3237616788183733 0.518271662398101 -0.2206682712514716 -0.16472158068252274
Ni 8.705451640546034 5.974495499262541 7.863330185619154 0.283694237264705 -0.9663776624143938 0.6934465772034638
Ni 2.3772706926916736 5.168808271759503 10.883975747580472 -1.3475874148287694 -0.48681935742609067 -0.3906852960049788
Ni 5.035171127410694 4.245216715720135 3.4756543831480107 0.9479693351105352 -0.050347084993984256 1.5325001257471866
Ni 3.710842539433671 1.2634258849923163 2.359954498391651 -1.5737915282968058 -0.41316882181947556 -0.3696508439321828
Ni 7.7266300070599465 5.633715732719929 2.8041633014424283 0.8700489684839725 -1.1097292620615726 2.033117308288318
Ni 4.66410982098164 9.13431314602478 10.11000565645925 0.3645839709322366 0.6162106382384355 2.0477875087059827
Ni 6.204888542957514 6.272473562109948 12.203891987505536 0.7804758481098301 -0.09774074378659942 -1.215408029748326
Ni 7.63706126919638 6.421503899059413 5.2698865649015225 0.12174276312815165 0.23902594782305286 -0.04617932676953982
Ni 6.495963993499797 2.040098275398947 9.482928111854168 1.076916843517242 -1.7269570287106129 -0.49569454842853344
Ni 3.248964150362462 0.11839265164089635 12.20886241910557 -0.2606206432746931 0.5323386820141284 -1.1115269773919438
Ni 1.465409905968726 8.935587672080711 0.4598865448289055 -0.9912363733292863 1.5329822075899275 -0.262367964983103
Ni 7.346839466186513 1.522824586777971 0.22658100261742214 0.04601426194658527 1.0045387468651474 0.30757541475767675
Ni 6.23030520980976 8.86772728275653 6.024684466765145 -0.38548446853032964 -0.17331369322690798 -0.5603343958961059
P 2.124535949062296 7.828278316457482 4.580876432869397 0.9275635177606736 0.6251477928270653 -0.056321043189232034
P 3.5714685165068 8.822061729275156 0.8275901709637922 0.4422086606952514 0.36037918882226966 0.7814556955245962
P 6.250847824622085 0.7615132624519594 3.8599187714117607 1.333290281479807 -1.129828603914609 -0.45591932541312447
P 4.757855006450037 4.899964373082928 11.012072444073732 -1.0302166112472257 0.4663405207464485 0.628882063058517
P 7.22904528571888 3.735561601850825 1.3205147110983277 0.14942325976255555 -1.0505103284992552 2.158589456551915
P 1.369213925971781 5.3377937671549 2.4691892560208157 -0.5234776320790726 0.27834968512333996 0.5188707294346806
P 3.5238202977888475 3.531080891317243 5.257768441543511 -0.08351894376026262 1.2065477511442189 0.3833807919237655
P 2.5696259366626637 8.334573914231479 10.152780741037853 -0.9057065697865821 0.10320742332812549 1.107768795901092
