# total energy = -381173.1538490036 ev
CRYSTAL
PRIMVEC
9.19307713808837 0.00000000000000 0.00000000000000

0.00000000000000 9.19307713808837 0.00000000000000

0.00000000000000 0.00000000000000 13.45499764206630

PRIMCOORD
 96 1
Ni 7.690707647970798 5.138985243972531 6.693282687220135 0.6498918325409646 -0.26111095264755035 -0.8251788474441595
Ni 2.9220839001609584 7.440545634577417 9.422588680404104 -0.3528206597487214 -0.5272476406444662 -0.12845102838626266
Ni 8.4256665809695 1.4297349260980023 11.914763846949986 -0.6823427539808185 0.07110000127061948 -0.7721830119734184
Ni 7.372572022677128 7.174865707079669 8.065840351135957 -1.0499747677107596 0.2476815666155218 -1.1567339129458853
Ni 0.8552383955385726 3.2779479137747245 4.75573597305693 1.4320473823460629 0.06558858453408704 -0.34868066943841886
Ni 0.6436827093260492 5.582376544427337 0.07067821517606182 0.7123377576810118 2.0397355849357837 0.41587979299273536
Ni 5.409804101555789 6.903044804095122 5.089622097304991 0.33243746810667907 -0.5976359605600416 -0.19276691685551317
Ni 5.306492301375178 8.118911985095975 2.942177208726074 0.9375653661683918 -0.7400298242796416 0.23302576437555997
Ni 5.825634556936607 2.1564200897282615 11.028590747050515 -0.7943808882266964 -0.804199416979015 0.2849085692877803
Ni 7.700672943521233 5.1652682513329475 9.291011845445478 -0.5615772671642716 -0.9925077838425421 -0.8115638277638861
Ni 3.9889404948361715 1.7070716753281776 4.516089001223131 -1.0006679510558314 0.025750112380910493 1.2958179955659619
Ni 2.52464879200931 7.279473731128003 1.333252662877185 -1.5669732198233919 0.09986113256371189 0.8537728570317683
Ni 8.370820683133804 1.9008341608600128 1.6052620239417914 -1.831589100300407 -1.3431643460604092 0.5214498030157665
Ni 1.915276484946482 2.647385564051609 9.066367975399785 0.5329207797698435 0.6961652616862075 0.006342140167943916
Ni 1.255268709348789 2.177389498538724 0.599254406432931 0.24881053801364245 -2.0731972070283393 -0.1925494015280684
Ni 7.615434732872129 5.033172926827234 0.15742225185022277 -2.1997821287401407 1.0519725148670787 1.4882419272597593
Ni 4.679506058634643 7.749497375872116 11.22462943846638 -2.814939128903081 0.4759248220007739 0.7174629947227191
Ni 8.881082426239773 0.022346531756454183 0.29892393282014795 1.7863399986546205 0.22623573803692004 -1.3134174538152799
Ni 5.247160181926372 8.584844710541246 9.092941483995807 0.6256123911683096 1.438420375751942 0.995106397807654
Ni 3.1177125803392314 0.5359334108408293 9.029648986942641 -0.33855437963769436 0.680050615512532 -0.2706564302441404
Ni 0.7009564988175274 0.6174134915812459 9.817896510520354 1.491885694659934 -0.19121345632546424 0.5079512543086994
Ni 9.014676222308884 3.4948677604611205 12.87203252772477 0.9143267073554254 -0.9949058517610737 -0.6885658520723947
Ni 4.623078951541869 3.1005674915924044 0.9875460801247435 -1.3487315557355417 -0.5145011396120751 -0.061409256345416816
Ni 7.680530911647614 7.408112458653124 12.731683658620181 0.7817115202891439 -0.4852622973516159 0.633768958837173
P 3.2722482059875753 1.223102132659702 0.9151175030734024 1.0453470391307609 0.17233898801846448 0.5252907740284114
Ni 2.3905217974697894 4.413403249591397 2.9612427312740865 -0.12354716332674207 2.612820595629339 -0.33035230344287625
P 9.183231290498199 1.6595618529991685 3.7328333184977107 -0.540365666083663 -0.9523147565634245 -1.0517951087489497
Ni 1.6028497605170369 1.9967731132256357 11.592879284824702 -0.5999849204081925 -0.1834996326209743 0.2252000976835541
P 6.324533656776582 6.787864741409333 1.308966391857685 0.46953743041719137 0.18331862695841977 -0.8660907551671728
P 0.7213816774650879 6.090900795965933 2.408067704377132 2.2332491501493346 -1.9944330043442424 1.2779606556695668
P 3.0632527917407306 3.824384415174937 5.089891454463319 -1.9656590175353434 0.3847187940088987 0.7553042339402088
Ni 6.789850446057759 0.21936520518862507 7.400490478449374 0.0793154472018763 0.7857268120961242 -1.3910326304965979
Ni 1.4346624154107634 8.595591417643146 6.801555071790982 1.731207576456851 0.6396305598242726 1.4454364020584591
Ni 8.90213457274392 3.4581046452340103 7.856049735722035 0.48649668397934925 0.1558448470181832 1.7851788884669837
Ni 6.3419637309127666 5.684171486890401 3.2588814719190036 -0.1733075225793209 0.2835137458227827 0.19319449131123503
Ni 5.167750382143481 4.034915073293481 9.61456495106006 1.0604425000113027 -1.0228437158219221 -0.41013749119231946
Ni 5.22232968074397 0.6080650515026141 12.775211039959846 -0.1879828652033085 2.1791212579566794 1.6310006305179459
Ni 3.580023233416541 0.7557619471140871 11.319662872740013 -0.19971789425204958 0.23966538117926467 -1.1838770490195805
Ni 5.7154831074114165 6.237236196862444 12.463821294624578 -0.04588519256788872 -1.0366621097622535 1.1972858662263186
Ni 0.037212656696129214 3.888055667003636 1.8011260468932109 1.5157033659048218 1.697261301418393 0.02747789370529461
Ni 7.201121135208858 3.9532713557811108 11.489208954638125 -2.1461625436424714 -0.7215777882220411 -0.3219975037202777
Ni 0.7953087260798245 0.025840820353059513 2.218325351450652 0.954703054289943 1.0724012150350757 1.0131005203922294
Ni 2.083951063137786 0.07765208344595081 13.014197948859584 -0.23649958185677336 -1.562785149883973 -0.05442151217367401
Ni 6.66148751084492 -0.22482221574096634 11.408452369063593 0.7769758053763716 2.1680506019648145 0.9501208342358991
Ni 1.3857828245974233 6.844392972349944 11.454656774447804 1.6385411618693655 0.19645465011974553 -0.21478095923275914
Ni 2.4619152340423676 2.2938106266297784 2.691174028780234 0.21952644433754448 -1.8385238797470274 0.0154682708389282
Ni 3.249164389449622 9.152195462289466 2.8879003623613864 -0.5993925382398322 -0.07823764075666526 -0.7205040955418882
Ni 0.005407367936130636 6.989487307841188 6.339282110329684 -1.3285964755485635 -0.936458249147142 -0.39097917309631375
Ni 7.019852041423371 2.0669990290095557 3.994815790395473 0.4690064976143858 1.7271182368788254 -0.3387518403604811
Ni 2.312408221554621 4.091351373463332 0.44855045530988313 1.8028151134915078 0.7038379477401169 0.397749916161244
Ni 3.6958192322664245 3.204798599480621 7.0843929583434635 -1.534256960537293 -0.7843818680324556 0.5810616011411284
Ni 1.3127254410740807 2.008126563414553 6.761701244050904 0.5531846722252022 -0.793708287639704 0.2818798097637855
Ni 4.672114824665503 3.776562028225342 3.8290903513301653 1.537386250194894 0.7583108819770166 -2.00681646561026
Ni 7.475506906697622 8.964822165325483 3.4519195429772465 1.062752379091402 -0.18542178934435163 -0.09482819812549474
Ni 6.954967303420633 2.4637354633034247 8.961324199498048 -0.09570391586222873 0.7562336877330137 -0.8942379070253503
Ni 5.2982461112379635 1.344110606211704 2.619567312819491 0.07842944505249719 -0.22099942933864522 -0.8380443905529179
P 8.978905959405987 0.8385373324145188 7.824753743432049 0.2743156242632824 0.6235915040835389 -0.24548430185388692
Ni 6.591712055837726 3.546762680555404 2.057861110395965 0.9721968401993322 0.36369385501779944 -0.03641633384550502
P 0.15937210349805225 8.50519589075438 11.794677439028712 -0.2553162003426442 0.8020633444726186 -1.1502087102328578
Ni 8.625790675837958 5.591468497655547 11.372150746305701 0.78984931890493 0.6768657900266473 0.21215637712571847
P 1.6293717878814313 6.461133589049559 7.773504177348505 0.1986082061276386 2.23743876275065 -0.8564020671244994
P 5.293934558089297 6.383525632373574 8.995863509380461 -0.8999077037166179 -1.019016371656032 0.5648942473526465
P 6.599158448269324 2.7636687959865225 -0.06364091467434811 -0.041123766623503366 -0.054200397301803434 -0.6196404898555908
Ni 1.5634022667837206 4.515602687445808 6.88093913095806 -0.16470024052628407 -0.5756360592501829 -0.4398751274660682
Ni 3.3647857198350604 6.085504459722294 5.90328572107485 -1.1339418547520341 -1.2464487011042145 -0.23219401250288396
Ni 1.3350830045230262 5.625510462068147 4.7729454133432885 -0.4908127948561999 0.2733033809486841 -0.8576660214385875
Ni 1.7075681014902842 0.6216285174206133 4.646925793477134 0.7622814365889904 -0.053100222259089204 -0.201682217067272
Ni 5.704745593386593 2.5670012980986567 6.397407178758404 1.106506898469533 -0.8112905194978416 -0.14920188778036883
Ni 3.613660702437796 5.25544314437189 10.57761975454651 -0.9761851354231188 2.5755218591788807 0.471450331169188
Ni 1.2003676530506386 5.217880231439163 9.343203701929317 -0.7645267809797414 -0.5197209932501178 0.8688950573851875
Ni 1.7064005807016263 4.352085425494167 11.533395479604145 -0.2075196496846555 0.5102523916380504 0.8727285721986647
Ni 8.522221469499218 7.355325810082464 1.7181493332048139 -1.862057444092593 0.38197234161201316 -0.45566478620015716
Ni 5.4964120806892245 5.016101382697015 7.392955832477846 0.6629540650415615 -0.37268937364819044 -1.511186451871075
Ni 8.12185376976031 2.788545262554305 5.970816226660073 -0.7672763187004205 -0.40328267305401516 -0.7610236529224893
Ni 6.869968112775506 9.151469209200458 1.034036390206019 -1.6484658771822447 -0.24008498521518654 0.7575454645659018
Ni 8.803033201864137 0.36858079713306097 5.656951704975935 -1.725309722915177 -0.10872501071224501 -0.17009621473087477
Ni 4.508671107330469 7.453728507104468 7.244937179168711 0.36773434363576024 -0.0036288550018389112 0.23901874873420123
Ni 3.2353747738355523 6.410075238969196 12.863664069662445 0.4116824670819361 -1.0240791308909203 -0.6704228626147809
Ni 4.689581671109991 8.168444284381714 0.6624935836390559 -1.2058970049340973 -1.136649226380868 0.15774103559963157
Ni -0.11069751830350807 7.306014144646551 9.60600711560997 0.6385090446253197 0.6127252507929964 0.2976172751037003
Ni 3.3808184462556863 6.719780812584132 3.4785472907280153 -0.8149054905426094 0.2399476883063739 1.318346258575465
Ni 9.144188292156228 3.355537484296558 10.189159847544207 -0.8190616788028281 -0.6309042356948683 0.9876106036512411
Ni 5.892937074210344 0.456959362911343 5.143105581118015 -0.967432071820837 -1.323665099685217 0.14222828467601312
Ni 7.711465616008511 0.3628148991909645 9.514526805626229 -1.0699524963842668 -0.8629167283145655 0.5394372407321226
Ni 3.7172482949306893 0.43439403592047887 6.731413732316161 -0.003784663853412837 1.643897283974956 -0.04237203720830767
Ni 4.485605676946668 5.704626083384604 1.7636808053470578 -0.2814416937851024 -0.963874950597198 -1.5450424811885715
Ni 4.622858317692043 4.107264589881968 12.225964214897488 0.31080420610761955 -0.8714257942268411 0.846366537265368
Ni 6.64651198828804 7.141687891912216 10.383248687312241 2.270033923077852 -2.769338814565463 -0.7114761810116649
P 5.016303630392688 1.4508973895270616 8.3062540255979 0.4760181530455287 0.8923383760097922 -0.08306514405229565
Ni 0.43353540252157613 7.675336823099648 3.996752771735396 -0.27750224952138014 -0.19007214363216943 0.029407249517523548
P 7.160653209920101 7.915441610171834 5.586030792565065 1.814267578302824 0.07446763219127175 0.6599469027841215
Ni 8.330472267847036 4.609620286702537 3.7409471283250295 -0.1600084914775696 0.13611625824100426 1.2378769002748036
P 3.3468316403055414 2.957247419976837 10.787772577197229 1.073029592647694 0.1262889877379373 -0.43392842296433015
P 3.751906195507385 8.351404904349193 5.0880749024330925 -0.44575935416098716 -0.2890621864448376 -1.2731485789929042
P 6.341127160898847 4.213573333189371 5.163342301685517 1.3819766909419167 0.7577452392815337 -0.28911592250090856
Ni 3.4055386305131754 5.21218971672909 8.272536576806083 -0.3689905846403645 0.5435512629004963 0.146410955298793
