# total energy = -340863.663678061 ev
CRYSTAL
PRIMVEC
9.33395313512613 0.00000000000000 0.00000000000000

0.00000000000000 9.33395313512613 0.00000000000000

0.00000000000000 0.00000000000000 13.66118390369503

PRIMCOORD
 96 1
Ni 4.426487222259012 3.4071355441760267 3.4227960505947985 -3.6446968539671745 -1.500333568316971 3.7971740700647056
Ni 4.713263595611223 0.39691048551516994 1.3870608914971139 1.3515543698963175 -0.9155505524601975 -0.07589767976957897
Ni 4.361056211414102 7.30436896088182 8.086833311242403 0.20766594545453265 0.2504917823708073 1.0375925919963227
Ni 2.9750668577265458 0.7101430153779107 2.830310313534054 -0.8105564695452944 -0.15787756117749585 1.3678263675834639
Ni 7.56097799799284 6.262858478270188 12.383425509347047 0.32162392243094284 -0.5254139298698371 -0.4662942408895453
Ni 9.061270940668523 2.764866235154882 8.770589241362316 1.104323517664969 -0.36230700197260185 0.9431204916586661
Ni 7.6712586532186045 7.25831523655817 4.839132885817312 -0.24756201031852199 -2.0965991308920473 -0.37185633622393377
Ni 7.4324214627051175 0.7916078907633887 8.728308300859425 -1.6084818805901395 -2.318249820661446 0.8087104174754911
Ni 5.326065614869546 5.668519018134722 13.184367353155361 -0.7595794642767951 0.13960704500308216 -0.28091076098229684
Ni 3.192463958095845 2.371281437109618 11.976227140785765 -1.4939564611460336 0.30527607720053873 -2.9074319940271796
Ni 4.867087141791552 4.196890645259998 7.984880408923319 1.3251221438467178 -0.10814625539063956 1.0559890922256394
Ni -0.06765249166960118 4.734619680178007 0.7886098250453595 1.0000624562613487 -0.08576223126848456 -1.2557596940924953
Ni 2.2359391179582357 8.362531215725594 7.685700145369709 0.48583359647405366 -1.1721818720698394 1.0279938925642942
Ni 7.311714781928174 5.595751520196503 7.251301704240216 -0.2579094149911171 -1.380927423741796 -0.10752816219066642
Ni 6.34251443355556 8.965532584286748 12.041185853606601 0.9236904079585124 -1.4672200735924539 -0.40208402476022365
Ni 9.138145377946508 3.279979101845042 12.344150101724622 -2.0883014096596293 1.57446798553854 0.6621163996316146
Ni 9.486843195798738 9.369795424615404 8.275016071976397 -0.4648402820518382 -1.60759125045507 1.91202580559092
Ni 3.2919265617425433 5.534343443113955 6.990687467877619 -1.9848574448406653 0.3730634691581575 -1.0502167085182363
Ni 6.837269948654742 2.790021238610949 9.13373041815626 -1.8930541495844233 3.010406989629525 0.6073483027517992
Ni 5.138901188412753 4.048919487638836 5.531714068541201 0.6083361205863652 -0.9890211108455225 1.3777215152099886
Ni 9.226985943028083 6.869621429908446 7.276466041649327 0.33282956133877517 0.7504389354281076 0.050569228307119365
Ni 2.8694998487884673 5.4391091201966075 4.234064980052013 -1.6931501074634971 -1.4559763823578344 1.7982254372382966
Ni 7.17972335191992 1.2819717809549356 2.8348867507119797 0.013420901391596239 1.4385072790387936 -0.9804038014901568
Ni 0.4028851488592251 5.747838951110477 11.163072752813477 0.4786265372026532 0.707027401211692 1.0805662673443712
P 8.977088018156364 -0.03365730128468748 11.294437874572417 -1.3054030681512356 0.19577047956852736 0.03638419505598895
P 5.35644763203077 5.972721881821805 6.564567309703667 -0.5089352154885235 1.4310212550743935 -0.7741784451368925
P 3.604287300390888 5.132311417563036 9.582268864753507 0.02955354528740072 -1.0695177228396937 -0.4010728098868899
P 1.3478788234051364 3.794718610413405 5.0806759893185225 0.5314596218432847 -0.5103264394090954 0.18244702298674387
P 0.7304658313426212 0.1790541546560605 3.3956650492791205 -0.27310437756400063 1.2294732495921405 -0.02696367307303743
P 6.984485056079267 7.442931493833701 0.42901741719909575 -0.6128833736374154 0.838636515610962 0.06490492820350112
P 1.6710576136325468 7.013849672358595 6.016631597131036 1.342462177787062 -0.9287660227092069 1.0527284191964967
P 0.5996607467663763 7.353194869259812 9.41342978830981 0.598714024115569 -0.5822401948302618 -0.25905921232484413
Ni 4.99690376074034 4.019041503942037 11.096842755587922 -0.17544128109287205 -0.7931081921618599 0.12129873361219753
Ni 7.1502373942510085 5.203221458845316 1.1818427330608299 -0.12439177071522448 -0.2610387046487182 0.8561369863885706
Ni 1.9008595375985486 1.6888947979013944 5.065375773487285 1.3512324677805245 -0.5834668681485113 -2.1471161658049924
Ni 5.256266313999613 2.8326587361201567 1.5627025529199503 2.3069377380827367 -1.0707163711334848 -2.931630188539938
Ni 3.3800764142987947 6.81346836839019 0.5498622404811035 -1.3348378284725848 0.30725505530378056 -0.1122890739144195
Ni 4.276257248000977 7.595793642850403 11.999574157537031 -0.5219542534560108 0.8468789581254124 -0.18537242416365496
Ni 1.317300793229969 3.4760107836945124 10.769042725207969 1.0150566156773357 -0.5567003986879444 -1.0104178313537437
Ni 7.999944475742519 9.51904533380372 4.666196203986894 -0.48717545521392874 -1.4148009365607892 -0.4184678654348858
Ni 1.7334270878787215 7.71654699339257 4.077671796598416 0.08363541473346887 0.48807097044500464 -1.8916341293084455
Ni 1.8460879011309412 4.087926077413568 8.440070230460378 1.0362221940113572 -0.0112028106943549 0.5072699119709586
Ni 3.1154401775691407 2.070056104443866 0.5441778630767455 -1.1533433992070976 -0.7848698634124677 2.03552463217823
Ni 3.1679156615876978 2.9495478301017264 6.640537286931599 0.041557254616496175 0.8016614810485096 -0.33223512228788593
Ni 1.6404329136921547 8.248955675074972 11.737443153804634 -0.37618838794038434 -0.7716752190990647 0.5263703802458354
Ni 6.4162153267982704 1.9899521194123377 5.032958021166964 0.06111692191597861 0.3512119205007048 -0.47775287634844815
Ni 8.342397879007695 1.6059719590502994 6.773160625560994 -1.2681639812941192 0.25740650721276953 -0.6840057435055381
Ni 7.925758216941472 7.671165313688156 10.183633991345886 1.6992078836218025 0.3104707340276008 2.6698525488426665
Ni 5.66692291216404 8.986216624234297 6.967517796234206 -0.34784608935226546 -0.09206400511679629 -1.2732732774962268
Ni 0.17811795916565473 4.169308814012251 6.8934062090575186 -1.1437578124011916 0.06776502336011556 -0.915039931372366
Ni 4.064031157618565 7.900285859081878 5.180649160196779 -0.14572601341662644 -0.5213734412518762 0.31944465539143696
Ni 7.515633654100605 1.7110256005709068 11.845530330064841 0.5213472159996312 -0.9411674816973532 -1.261648034552472
Ni 3.0841714348686495 5.498949093167608 11.742443352450799 -0.4336630851180854 -0.46939550552268844 0.7375474241774201
Ni 6.68203697556463 7.651069312782436 8.479018949726232 0.27174400688136424 -0.8460598046582267 -2.530067069280191
Ni 9.103815098647281 1.999118061302452 4.537767543855887 -0.1804796148477279 2.394181181882438 -0.6784238785423864
Ni 7.176708485086409 0.5933360601831364 0.5998940955924993 0.085767116364491 -0.20813671444336412 -0.8085291547026204
P 2.499837972397341 2.7939788347019965 2.6419362067626384 -0.33978002451467937 0.34757766618222724 -0.8157773516246014
P 4.35708928137001 3.6014217768060965 13.237072452418822 0.3480741462026715 1.8264206687255897 0.6963395824805427
P 6.057838199638456 4.387909994324345 3.0441353100730613 2.580128504712956 1.7109933062925047 -0.9701106470942648
P 3.5970908225932527 0.6267992152444896 7.865767967326448 0.6590318471690199 0.7909685201110378 -0.7356170399239266
P 7.859860508444317 2.7536281556887947 0.9288758044279384 0.3572118468378816 -0.4647353810428577 0.06805375824512797
P 7.567446427452972 4.393305019184311 10.913905676465172 1.6366603999068845 -1.5986607807346596 1.3830023039929538
P 2.933176076460932 0.33584216432345737 12.684859922561007 0.9138227711358132 -0.4196888823261804 0.7006119846036516
P 7.3711533949182435 3.5910517549731877 6.214090440401074 0.049988158992668744 -0.7455708087025289 0.5135158928806705
Ni 6.98047145626995 8.1697570834888 2.601430584128891 0.1825722357106985 -0.3304890861310566 -0.3866041839570697
Ni 1.2858920412338033 1.6625357145025321 7.20060527167202 1.4593252442254092 1.4759014034165356 1.6797464324630813
Ni 6.611798978901586 3.6126785241782735 12.981417345308992 0.7896989093699948 0.31218077474017203 0.04121632633730966
Ni 9.176302577994154 5.1698805785688515 9.144864890743548 -1.6058009913238667 -0.21543504787699028 -1.5073591077051847
Ni 4.106649987221683 0.8872874432409799 5.244869557331762 0.38616889619186395 0.767711092244994 -0.5040971706699318
Ni 5.398730439324271 6.410745630313946 1.8786176608878018 -0.9828802880551073 0.9590464188603032 -0.13826801447668444
Ni 2.6938628543421532 7.069414694835021 9.932609458341643 0.03534932603357138 0.5333812643460297 -0.6620462085153115
Ni 5.2443655238673355 1.5812929871995234 12.654900733472719 -0.03314691906561388 -0.24273630679510452 0.4440683396118094
Ni 0.7973296039799265 9.051460956018309 6.079964335331446 -1.358535429199841 -0.2956953754906391 -2.6820328929589423
Ni 3.526871493836298 4.630396760478397 1.4875931661627602 -0.16951437408547582 -0.5845359328429739 -0.014632919421826412
Ni 4.959754627621547 5.929757695956024 4.233819497086931 3.114424567563772 0.7011724850928118 0.07583725884528875
Ni 8.972495713258262 8.318614966649232 13.354777333896518 -0.38987565561948984 0.10663110429769376 -0.7715276377776067
Ni 8.61801084451818 3.74144974038603 2.8559525493390665 -0.8357419676719866 -0.5633898948929781 0.21887749789963595
Ni 5.24325478345499 1.8348498216648539 7.089253078636699 0.5208800465552256 1.905529656343615 1.2216905203229285
Ni 3.6049966808223024 2.6857796510052503 9.516203145101542 -0.30823798804234015 0.05637143681119324 -0.7866966322085612
Ni 1.1482535696333702 5.444000111592146 2.7365535553837175 2.601284312854965 -2.0370120153570337 -1.3525763834029285
Ni 0.3235736164412107 5.697752959071421 4.833463442737827 -0.4182174399869765 -0.14344621624351425 2.2293536717496703
Ni 1.7581620634477673 3.975031915335226 13.257523143540249 1.211044867683624 0.4324518384188036 0.04848380653300037
Ni 6.276112691593978 5.500815883776593 9.83939966983974 -0.4824399974114724 2.138185438974266 -1.5296258895231851
Ni 0.8163297987981715 1.2158593915377467 12.577387853806458 0.8861186203523256 -0.15930760875580305 -0.3565155921018054
Ni 0.3612043815371219 7.144357003832707 1.5721429130295852 -0.3312375342613069 1.0114694125467096 -0.5669251617397463
Ni 2.0960418297209316 8.850155590698456 0.948468705264536 0.0763440232783782 0.25063499281689094 -0.3897496715645868
Ni 0.3032993370323337 1.1689656114400542 1.1843918356373981 -0.6823849200726635 0.3998566780916017 1.464161746382104
Ni 3.7439605737551145 0.4050963623355674 10.096188852244527 -0.9033671230201281 -1.9918966110756342 0.4083001808732646
P 7.7642248255460355 8.541379090019362 6.55150724260321 0.6060858910996078 0.27460307359671415 1.6245037099396926
P 1.0458227689183863 6.246822746939011 13.092045223588027 0.7020134929368684 0.27949228336821547 1.7396978733160489
P 5.496466261657658 7.820368553111247 10.202950607172353 -0.40493717793830264 -0.02648004856839956 0.8407638463666102
P 5.55435543844227 0.05990064366579271 3.74413418528175 -0.45792889964398553 0.2715529739164807 -0.023807643942558996
P 5.533372711997283 1.5083388102004058 10.360327589276885 1.2058877489627167 0.7092544907699978 0.6995884284351436
P 3.528486267713069 7.020607454363119 2.9104880367946375 -0.3801432588230743 0.6042159277704046 -1.1877709847573479
P 8.530598374252476 5.946754824450829 3.048370124569543 -2.2813177235217874 1.2749432089994817 -0.4717616917620198
P 1.4345165755681106 1.4607729854834788 9.603703354525868 0.25450835972936814 1.1692287029787862 0.1363602559310103
