# total energy = -381171.73493084806 ev
CRYSTAL
PRIMVEC
9.21572724139919 0.00000000000000 0.00000000000000

0.00000000000000 9.21572724139919 0.00000000000000

0.00000000000000 0.00000000000000 13.48814835777048

PRIMCOORD
 96 1
Ni 4.84481850819334 7.735312990833692 10.480979551908984 0.5044118736968732 -0.996794069922722 -1.2235980217582862
Ni 8.599720578282733 4.907808005301074 5.978622083550608 -0.350140541813397 -0.4541506635484759 -0.18709557750234876
Ni 6.5208275648138345 2.9132665451645967 5.675165688566965 -1.0551411424030472 -0.12761207742473507 -1.6745564036217095
Ni 6.531960163571134 0.41677205811268453 6.2312417612123205 1.353716667654959 -0.12760127879145766 -0.3836060205606942
Ni 3.5347567728092812 8.692412364955683 4.325325187225945 0.8533077444698917 -0.7374137268130333 -2.2407657702413535
Ni 7.659532064028 1.6214427344003195 8.769211629644388 0.07579689252565656 0.08872285655870527 0.9134021386586268
Ni 7.012624860081467 2.9618242130886134 1.5422750277574526 2.1369171137848038 -0.08535676829994977 -0.3288536074101627
Ni 1.7645445502143513 2.140454072822179 5.732827573636955 -0.503951646231003 0.124016903874309 -0.01865283921449691
Ni 2.337781228940806 4.725170718734712 5.645842165399869 -1.8297942131835132 -1.2424354661797634 -0.8089230477069295
Ni 6.038255212721746 5.205909141064629 5.163546285131224 0.406877589494125 -0.25113404394049654 0.4750277641078013
Ni 5.711788067872952 0.9232131442953413 10.08972860781831 1.8435323887052122 -0.647639289061362 -1.0812866904501635
Ni 3.1379920589864128 7.284304505251332 7.570924687760049 -0.636912132451845 0.46551313974914665 -1.355990294180484
Ni 3.766366435034825 6.419555935886709 5.280772181416491 0.2319857531468198 0.9099853996675942 0.14726661843086897
Ni 2.5332928867521587 4.941187370118078 7.941228283361199 2.868544830043679 -1.0163799624744494 -0.0053314395152424315
Ni 7.786782828631306 6.043839943555293 3.7291625433268623 1.0049115568235338 1.8919958835232382 1.1634843442958416
Ni 7.521627918494695 8.66469145679181 3.5040859102892736 1.754993623132855 -1.5817935726656756 1.038028908202793
Ni 2.7077558230720604 8.055402852288404 12.73778955634533 0.7876106593823984 0.019723189460540226 0.5653441904058715
Ni 3.9501649032596475 1.8459747179457258 10.973202613784718 -3.043304511688494 2.631028633996933 0.7567491939168516
Ni 1.0543898087915369 6.70722486817902 4.458844489639446 -0.20316445803975336 0.12169365505777106 0.6013092956465708
Ni 5.009586499237845 4.35712221164011 0.43987127896133665 -0.41268314043230864 0.24033206822898612 0.111374275409634
Ni 0.8416355249247972 0.7832188717768075 9.518371015918522 -0.8268202397023245 0.008116972680179569 1.2026687278047867
Ni 2.1109545292608245 0.6659717793184087 7.710648939464353 0.5990678079105618 -0.546344252264601 -1.5122452321528923
Ni 8.162379016505898 3.738627095416057 3.8396176446560144 -0.2007100829619898 -0.29698272684349497 -0.4893701488724023
Ni 1.5488320178367727 0.9631356756004923 11.998881745284457 0.35171688516158134 -0.6519916524927868 0.263469682687714
P 2.605212423757098 6.165395388595677 2.9892566689833604 1.2802386530704661 -0.31874840065536075 0.2414538405382551
Ni 5.210083865598618 6.9394335526886906 12.574259237497104 -0.5697322921712382 -0.15339072905073584 1.2402649408910058
P 4.678548353574795 5.565718787820634 9.306539226369338 -0.5756278317200667 0.7442016962691441 0.036159223529376436
Ni 0.7825396726638829 0.23615578057568934 3.264644722878338 -1.2069496145683276 -0.4857346090023441 0.7270683790229672
P 5.023585189231502 8.885269893261983 8.380847972963204 0.2751450621431132 -0.2025185969256383 0.7620230407212812
P 3.5579158958863464 3.065326048058177 6.62524359994625 -0.20665884434625698 -0.6923325182036786 -0.1349165815059483
P 4.117015648707422 2.565723031642008 13.003802450707362 -0.2677611109742163 0.808796292321078 0.19236633898298483
Ni 4.846210083038002 6.204663603252012 3.195854846914772 0.2669491565958822 -0.8816510714992751 0.7708144137606661
Ni 4.247593290919491 4.896555602086949 11.6862133091437 0.17133060135860814 -1.0537956841187466 -0.306842136136078
Ni 2.5667275459338503 1.6365104487779565 0.7310431092566683 1.3448628168087549 0.8544786248495414 -0.3899823564006832
Ni 8.320963254432732 1.689980099431808 4.95301022686124 2.29903442407526 -1.5433290980418906 1.2613531290198727
Ni 6.73432832260387 1.5601857940528268 3.442863068133339 -1.6132363645559895 1.1454657962312336 0.13954045343120483
Ni 0.25417160616397183 8.088745354195614 13.08061738213273 -0.4348103113486512 -0.03953251087698353 0.8026724388115273
Ni 0.49176043235784006 2.512833971817386 2.0656831897447985 -0.0443795545566397 -0.25540104674696656 0.389250106220349
Ni 3.1087229086112607 9.005175723089158 9.67193360395889 -0.22638460490995851 0.3417050094515341 0.28157282004632794
Ni 6.10057196172577 1.6579185836398829 13.28520560990771 1.4473786133864943 0.6268310940667592 -0.2697012654197226
Ni 7.811057054729591 3.964329476347371 9.689036150957065 -0.37645886799295164 -0.5771496676812319 2.778933143122117
Ni 7.922585788306447 7.133083633555528 6.622033762076078 -0.04486086506843242 0.1452542159865305 -1.614205413337478
Ni 7.190589772831645 3.560689829848223 7.638432656035585 0.8283384761190637 1.0890650488440017 -0.43021369311690427
Ni 4.2006115123890995 1.6241982369073003 5.019479582653376 0.791818783926475 0.5371075641576815 0.5171048957835095
Ni 5.190196325765627 3.4839504673879294 9.572754866735226 0.858142961075006 0.018654381876393678 0.9784160816361666
Ni 0.41886771453438154 7.619296197989614 8.21130162723686 0.998335960488545 -0.7284794004378808 1.4689511973509475
Ni 2.403839563288757 6.694746773214299 9.517790425089293 0.4175093581763584 -1.4097692876741525 1.747215264739017
Ni 3.426969624576353 2.0355514472805045 8.79187218186651 -0.4385553802133802 1.541474304221339 -0.3477303897100076
Ni 4.753389276180782 9.162276228896845 1.0554662057574744 0.2975715094674294 -0.8254112751699397 -0.304764684781759
Ni 5.483145869885695 6.609722471778167 7.230402636980164 0.09157420996457132 2.2266208461995394 0.2622124132418452
Ni 1.8750226908621237 3.4765594539745566 12.318470271165992 1.2694942700697684 -0.9908900457334613 1.7636327868650916
Ni 4.3240838287386865 8.88049614644387 6.42524111814944 -0.06458585430118555 0.25039408045067846 0.08511534171310502
Ni 7.316799160233317 5.859470100228688 8.599180536654275 0.3295804582738582 1.1508345167423149 -0.7059513945386939
Ni 7.5319956118738025 6.440733677562434 12.879441738231776 1.0525844374194646 -2.3255026455691175 1.1447757121427444
Ni 5.428395233116559 1.9281421438729478 7.632201902707927 -0.5584320366670705 -0.34322298875795726 -0.1673011684842409
Ni 7.2397280315848915 8.407443640805663 8.470718825464289 -1.1844673743054115 0.25962665479253993 0.6462704337382934
P 0.4598537407870428 2.2084384942067814 7.846581840896511 0.43669672973808665 2.0529507980744772 0.4824690508771948
Ni 6.047102311071918 7.55538512813707 4.996442107178626 -0.6995778869121824 0.10589602590388215 -0.07491269014849034
P 0.8158259586336601 0.5534053548308977 0.874895085284975 -0.5401882599655342 -1.1036198067297252 0.15238877014878272
Ni 6.828780313219404 5.175635476397635 1.900008371119401 -0.05521521171956297 -0.6386525121817195 -1.690080724509554
P 5.850282019962936 3.8697300340926675 3.2983245204101492 1.6735516165062791 -0.7765564584507658 -0.15511388238942966
P 0.11675773733090496 6.255967557955562 10.270240747635142 -1.1430425315017216 -1.150311297248993 -0.9826504314324882
P 7.027978262009995 2.5234965684748327 11.071004521327636 0.23120002402073087 -0.8108320918041841 0.5389109359150074
Ni 8.992688412396987 4.332580729445831 0.6088186024035529 -1.0107872988780204 0.27403717379091513 0.15874273739126854
Ni 8.3479745515831 0.5003983336949402 11.427091935767354 -0.3971896727823998 0.5826094052442224 -0.20508172966712424
Ni 0.7678654698482799 4.910922921178532 2.5816312203629113 0.29784276085094513 1.0279116172631328 0.8533941335361109
Ni 4.054302623423131 4.0117628255227205 4.199697312226248 -1.1225649803736601 -0.5729510562188519 0.7365930306839508
Ni 0.19419749507725398 2.5474390283849857 10.982361203722636 -0.6493254185145334 0.753544828046941 -0.7604125017010516
Ni 4.809909332619954 0.25570418163859016 12.076007246724826 -0.46320506044126036 -2.639791210680912 1.6318750627030993
Ni 2.674348811072713 1.574055463862211 3.108748712648115 0.3319895819359831 1.850847948530019 1.3491606728531602
Ni 1.1441970727732305 7.296045342020206 1.8518552736303555 0.18669885628456234 0.02010165584588151 -0.5916838567416649
Ni 4.98788346109758 2.127966762130009 1.912214602124404 -2.2844033044256467 0.04806831626213657 0.44303064237591444
Ni 6.386370101346117 5.71809162544745 10.760332211752132 -0.7228157743942002 -1.1574597353683163 0.4232598875068904
Ni 1.0216094662586601 7.953071414704747 10.88567808549192 0.31022262257253674 1.934126237034385 0.18894111535151975
Ni 3.9075329480847567 6.70601760788332 1.2059286230843003 -1.0888187371611506 0.14173283309683332 -1.5682580000730864
Ni 7.970691885585508 0.589706105248947 1.5504622800223409 -0.4670390894753698 -0.28885624108161867 -0.6685328446809196
Ni 7.499261347978166 7.663411885283649 10.73029446970781 0.8791280479671054 -0.10784183677634332 -0.3264437124170894
Ni 1.8535592616355085 8.87724299465469 5.684391553315253 -0.5173278104275929 -0.27692683663388434 0.28245059466559097
Ni 8.6872423418573 2.0826161673579295 13.372420489758257 0.3167660801180093 0.30995779894692427 -1.2466806146093627
Ni 8.921413976313415 0.3894170143285018 7.273632692866437 -0.6758561178152102 -0.9487576353397853 -2.14788672542243
Ni 1.7907540790767356 5.379339915910345 0.331896129888467 0.6079640819589271 0.30835651589807533 1.2924583350651098
Ni 9.23176281385549 4.802398514749756 11.84390269993532 -0.25414814817647197 0.6450684430103923 -0.8202824385838066
Ni 6.256686384696513 7.347736357276575 1.7056975225945354 0.6091776426510541 1.902280810389014 -0.6060936044090917
Ni 3.1674086610007346 3.821504132356782 1.9495226315525302 -1.0652705175275654 0.7491837228647678 -0.23446172549113814
Ni 6.942189055195671 8.472276283403017 12.93227550369171 -0.7293885425157116 2.8412304584994423 0.7588384723457124
Ni 2.2460202307401165 5.899659887629833 11.76189470609295 -0.6174630225882979 1.001660653986404 -0.774743316501427
Ni 2.214511658595077 4.0888523856260415 10.172545742530623 0.5143263045971077 -0.19487265034460635 -0.729103664285441
Ni 2.710022892024292 8.780007854349833 2.0782672655751733 1.3731706626145124 -0.037983164111992644 -0.9504437647929566
P 5.406673763521396 9.00515729163426 3.2441019448237878 -0.4972516085030082 0.0293231744441495 -0.6646638486438166
Ni 4.966235717322002 4.480290408983911 7.3063955255171615 0.1997351206432302 -0.9019995532486401 -0.07596195734861111
P 0.9851796956563373 5.984472227334659 6.924937213412836 -0.10217666807076596 0.6326541285064394 -0.98557711816098
Ni 7.072011007756997 4.055869297089306 12.783420309231833 -0.48879010799921624 -0.6944791322330363 -1.157893223361309
P 1.371659657647131 3.35840461236252 3.9149755695718387 0.11815915954195134 -0.7359571968721648 0.43621773321913904
P 8.450683833992128 6.729886341973889 1.6771296890781833 -2.297966644932378 -0.8207971734366961 -0.670537276705458
P 9.029680342373643 8.619838511301927 5.287003856316894 -1.231520876149789 0.20309298137186957 -1.1314864512330063
Ni 0.42578411798417737 4.7013664947362805 8.625199299958483 -0.8830536082737566 -0.20713861219615293 -0.0031524295860526352
