# total energy = -340883.9766963837 ev
CRYSTAL
PRIMVEC
9.11578703294389 0.00000000000000 0.00000000000000

0.00000000000000 9.11578703294389 0.00000000000000

0.00000000000000 0.00000000000000 13.34187576059045

PRIMCOORD
 96 1
Ni 6.588006641549372 2.3527572877986787 11.55014156128199 0.3114996895127474 1.2671049439019855 0.7378364161727486
Ni 4.617738662184131 0.7694799925074854 5.996799538299936 0.005826376873789965 0.6734619065514208 0.277358010634032
Ni 2.7530953072574653 1.9252359913850423 5.046351118306517 -0.19287516029860333 -0.9468136242395371 -0.04837067799390379
Ni 3.4777639138311325 4.66312616585891 4.7160724801476945 -0.6675650814510116 0.9967871279441866 8.253241147727722e-05
Ni 3.3981557456062177 3.0374258208385165 2.643212698692259 1.9062107415710399 -0.596870800259243 1.4002199534228206
Ni 4.916617971881862 5.180520006705093 2.2786587012610573 0.4637974426096205 -0.7549321953127709 0.5169346887542323
Ni 5.841077283022741 3.6254943586098993 0.377520292917646 -0.44972142413252875 -0.14978295709481945 -0.3190384210919538
Ni 6.113010326228675 8.15607698089956 12.38541018886095 0.39594011664601486 0.983179564463081 0.3871672555493913
Ni 2.40129885378948 5.581532594404879 11.454413946833311 0.3760287224340685 0.048542941905709944 0.45451241776326884
Ni 0.38006633223806496 0.30253747503709405 0.3909487588070451 0.16896081557485096 0.6831192271355268 0.4506735036331529
Ni 8.465904350832961 9.195732492871565 6.834255954768625 -0.8272149040375818 -1.6200341042041133 -1.393866243290651
Ni 8.848913259127709 2.6299866032751598 1.7108016865159295 -0.5788720496889773 -0.05231912111869054 -0.07707575923808016
Ni 0.8350042697547874 -0.011773038962839525 4.535317362078509 0.9987046566818736 1.0903991942743931 1.4632387203472024
Ni 1.9118995949447526 6.747459988462256 0.570386645648874 0.5142879951600046 -0.5011031210386144 -1.1745519149639128
Ni 8.131856334732882 4.154756954182847 3.6774616373705307 -0.3440220876204849 -0.2223510582705332 0.43970312066457823
Ni 7.9730228613387535 4.703381481429873 13.033531708497913 -0.7116425313862002 -1.8412402502369258 -0.16461230879816813
Ni 8.369267892416344 7.335063621094571 8.7659997065219 -0.48418577645798544 0.6083502616537523 0.5170789276415805
Ni 7.057642874090238 1.3563288379728458 0.5463711046906079 -1.2083089568096996 -1.168732480068658 0.13538915026699266
Ni 1.9926745839108548 6.928180466540686 9.19664862946914 0.23624838507791568 -1.3771070215544414 0.027668669559862025
Ni 0.13223087207376022 5.321842053194371 1.6282153906648746 1.5501656613477497 -1.019401522909593 -0.10883839636165771
Ni 5.936638078568576 2.5195306117051044 7.102667569440805 0.8896798553410226 0.4894634799171571 -0.2962412206917801
Ni 3.4071986063504194 4.013635455008462 0.5990129516922382 1.2959948874634584 2.07202298421458 -1.924446547852776
Ni 6.4284165578308805 5.875288831785835 4.29873898733055 0.12486588213816559 -0.5220162170421978 0.6852105624469167
Ni 5.613355806963356 3.0813274512256905 9.363514934403378 -0.7390270940467402 -0.26984139054201267 0.21878982328183608
P 0.45788962936044486 5.911897832540588 12.464126833113303 0.5630325115535594 0.6319347338419117 -0.5817673689589012
P 4.093489749483471 6.028078538372093 13.002324723143376 -0.21859904742726868 -0.0970005231864652 -0.49317255333762805
P 2.4306152249118123 8.823097350228938 0.5735789942704663 -2.6373633179657094 -0.4661443455752424 3.4479593824996875
P 6.423566959125321 8.632695906313469 5.918495839200521 0.8560382560271773 0.0580447107485581 0.3653049082586612
P 4.888504884648879 1.683941108422315 12.7925777559705 0.4305325099089037 -0.145195337724137 0.7747582288997624
P 4.2755502482568595 6.544478758430859 8.23664686465725 -0.8551933915283788 -0.5101171516117666 0.5125121342065044
P 4.645696781037424 1.3993644685911697 3.4396954755711913 -0.11229935832706467 0.7084037127339284 1.2636164711327529
P 0.5527530671976802 6.178434329818532 3.734884714674917 -0.2570085004434025 0.08897405333756289 -0.8969334515796423
Ni 1.2263650621360644 8.061026669427992 2.506911627704904 0.2643651979187899 -2.2929936171978187 -1.0081820000446893
Ni 2.3203233175084863 6.7799942324098925 4.792348828209296 -0.030371413203005758 0.5094363234946581 0.24365573328558035
Ni 6.345426432613931 5.813328827271378 9.189577513461805 -1.37420090365124 0.5108512015643137 -1.2977386096274424
Ni 8.71760946259597 2.6866959144542726 10.39993889986952 0.46730648420414356 0.1877229266737025 -0.4379303450348716
Ni 2.6734780232455098 5.330037145743804 7.0399208725047515 -1.040248798672247 0.9852721853260515 0.3152193044561797
Ni 0.4495532421118837 0.18643060708061657 9.645562854909482 -0.39672481733083936 0.40474897318689645 -1.6313770400207581
Ni 1.5113063334488308 1.3789359898333504 11.550621963259024 -0.3248586273181566 0.20110603284882786 1.066003539038848
Ni 4.071903565771505 7.425975365249738 1.789746225444294 0.19411880289771732 -0.4614070880005731 -0.8443551632622941
Ni 5.990475916829923 7.8484738630040445 8.00655346080992 -1.0106530872930013 1.1500099639584904 0.04783563142604019
Ni 7.035300080053909 1.4938313696921421 5.007258977161926 -0.8258568473477905 -0.3565487593325859 -0.05026609524440375
Ni 0.9184702390552529 7.3579077834181295 6.76007532614764 0.029515750070929814 0.08894422854089198 0.4008372968373161
Ni 5.052479661933863 5.2275210046860465 6.639677657231187 0.7624272181382353 -0.6184297573769414 -0.001536234138868322
Ni 0.8839879514170547 8.006149631444025 11.61691834766866 0.5182819468107461 -1.070118846758802 0.4099875958780165
Ni 5.159298454474748 0.770441708040261 10.597278369301534 -1.6396549637588345 -1.0605234897608833 1.2144137841558569
Ni 8.21450006004229 7.782293249089825 4.821260458387029 -0.7259013552980594 -0.6953062561200218 -1.5392664979367428
Ni 7.3528302900365565 6.674551923712127 6.555810593300937 -0.23509241709660156 -1.5198466986492343 0.9952465229299441
Ni 2.5715817557065086 5.489909818860552 2.5986775211057687 -1.189116957262281 0.1257562551629189 0.1442157474196871
Ni 3.600125123276115 4.607137001855999 9.315551309310948 -1.5197937339241117 0.5023022835530382 -2.0228802039413423
Ni 1.3783161163145947 3.4519115417842 3.8740800480476394 -1.1504465372752766 0.5381491180483183 0.5618927415221613
Ni 1.713239247970566 1.1643959418345675 2.694004952503367 -0.2936562335734233 1.582241715946688 -0.6679952270098948
Ni 1.2424453104755524 3.4885387741130343 8.473104911016273 -1.7756516657028387 1.105398495896703 0.04574532455591477
Ni 4.970701936393303 3.0674623391370504 4.805944113001538 1.4534698138858968 -0.6197775296540875 0.28356465366537614
Ni 4.389278807374464 7.5873065642929705 5.985592589712313 -0.1736559070576751 -1.4766493373261538 0.24353077767194187
Ni 8.334427354347453 7.417069241311144 -0.03732094372261812 -0.45830916580153974 0.28448536570743266 0.5834259876082468
P 0.5031659204333302 5.694167259077621 8.240195640552125 0.0699103518378925 -0.6057272222086084 -2.054146103934159
P 8.511018380896525 1.5810785674570178 8.116983928176262 0.612224657007494 3.1160824148821686 1.9268813825465136
P 1.9075878276745837 3.4973628559682637 10.485139603443798 -0.4876914756183988 0.41464334948247294 1.0205441211544681
P 4.530327380252525 6.7550807864281355 3.907301622338133 -1.4723998180211801 -0.7836383049982116 -0.4268596890430068
P 7.042674751769695 4.287692476594841 10.480336495252143 0.4231138488473294 -1.3226957937934123 0.6252789190882909
P 6.98560080910896 8.167562872570622 10.417016415311243 -0.6670405764061093 -1.5693401773936715 -0.7616965106197979
P 2.3939606452218563 8.913507726096876 6.039413107978283 0.4594530495979959 0.008156567668863371 -1.1253795670043198
P 7.080505267987879 4.857201271951712 1.8482768708741044 -0.5577926033108587 -1.4449219243158857 0.2990542646605431
Ni 2.599913621828464 1.788654154156839 0.4642241897749065 -0.07533126574314769 0.588351192824006 -0.6220781527628061
Ni 1.4895104866349327 1.3560644801486705 7.434559701905801 -0.20983981317739991 -0.748604196212214 -1.1791079097657113
Ni 6.809948708625062 0.6925363688345164 9.085670303301661 1.4607012986373296 1.1939501169848663 -0.863303679340339
Ni 2.6432227260580037 1.6555636633651571 9.499615458075843 0.9093333679058919 -1.1810025556852628 -0.2822749883196752
Ni 6.31993869204862 2.718573821734993 2.6036675029317524 -0.0646994970609144 -0.1946546207965293 0.273872880298909
Ni 4.16154821552804 7.146403292503842 10.660678668168394 0.32795140731086747 0.31816450312743266 -0.17055258554200306
Ni 7.0617723256195974 6.161788902682531 11.412974490525782 0.21056126472445671 0.9592215109855867 0.16000386349187928
Ni 7.778692513208817 4.05344409701444 8.324876744265094 1.0931240494047239 -0.605948337080479 -0.3899967545783864
Ni 3.898430138390293 8.742769034827823 12.661306776272106 1.0628595940932275 0.007778101283522089 -2.8504643183928846
Ni 0.2373851219010456 5.154366813685823 10.295832053973191 -0.4786381071668789 -0.2649827768981307 0.6552458977640263
Ni 8.899651729795277 2.7877626453725863 6.225919376091337 -0.7770758212893456 0.22074977522168432 -0.566364918360902
Ni 3.7113559567446153 2.755237517211989 11.364409223488675 -0.18963505609475081 -0.38515408177410443 0.8793946713649305
Ni 1.2489995613576907 3.8467800890186714 12.821276076731484 -0.9552643261100516 -1.0415852580954836 -0.6302982266797531
Ni 3.1211269774446277 8.675986778968927 8.018307356619975 1.2110872908857853 -0.27900223110567435 0.6173609497927949
Ni 5.852918690388383 8.698037867819961 3.763088959778305 0.2635874392125009 -0.6824736231317279 -0.6592606753503742
Ni 3.2993953088091574 8.74446457121736 3.675767012559697 0.6721642707859199 0.5353427589477748 0.7924217076177965
Ni 3.416378203900229 2.9027218357406617 7.631552771430276 2.699782246522563 -0.2519704237988628 -0.5355520467451034
Ni 4.775040683355449 4.69448447327832 11.04006860900805 2.937865627926689 1.4697842347752041 3.1144896164737523
Ni 8.318474727026532 0.17502128802069403 2.6347404862167942 -1.3195500490755792 0.45050663903798543 -0.18115324387598478
Ni 4.611348495468722 0.6325435511634057 1.41163705268383 0.8143856134833973 0.27774650432170234 0.23505873564518873
Ni 6.17598218310463 6.215881982981013 0.35898151681332796 -0.8644869010151627 0.014630348318665125 0.5157535239619376
Ni 8.126067809962146 0.49213672969299754 11.44610217220976 0.0953835564083325 -0.5974230732182872 0.7021327921235521
Ni 0.06813595023441273 5.305488331243666 5.625495300565225 0.1302608279014918 -0.6034898482376574 0.9497966181272611
Ni 7.8323844988775155 6.843558615443482 2.445978972389915 -0.7615247609286239 1.2662222841867161 0.8143470469359783
P 8.804437334156981 1.8570407885348663 3.927581513767191 0.8580771408340772 0.8236775803082846 -0.4711947635149562
P 1.5937039325081468 3.6206174125432176 1.6524050431556148 0.6707239387949674 -0.12913442760653243 0.1997708589771721
P 4.678395109151791 1.125161594412143 8.492918074148857 0.10141819263818662 0.7183975907218466 -1.1013652063675936
P 8.68816547045507 2.1085453529829827 12.737248574949321 0.6180721169272065 1.4725846803384768 -0.14870489353929228
P 6.466037410947132 8.255293207048645 1.4280874019771634 0.09346577056032936 0.9262288581096499 -0.34444889074525836
P 1.8741146576617715 3.440234218585286 6.371212259415466 -0.39047857931081137 0.3920685495057506 -2.364260740173922
P 7.067041250529021 4.394000785061456 6.249921243369042 0.10636088135544262 0.07504407352003205 -1.115350207792776
P 2.4586006911262275 8.672805369291783 10.241503786369062 1.0403729829549373 1.2988079314322212 1.41125975617675
