# total energy = -340890.88859850157 ev
CRYSTAL
PRIMVEC
9.08552076811198 0.00000000000000 0.00000000000000
0.00000000000000 9.08552076811198 0.00000000000000
0.00000000000000 0.00000000000000 13.29757802264377
PRIMCOORD
 96 1
Ni 6.681728183158904 1.969204852896204 11.31552093336166 -0.5885620232832315 0.3194135450431854 -0.3482212133034971
Ni 4.883476488696474 0.4354172220837477 5.8312934587315945 0.7287668497713127 -0.8699425248130953 0.4104033432591965
Ni 3.1286990110232478 1.6904338197210584 5.034595955332795 -0.6229063050910563 -0.866782896138191 -1.5809106558400903
Ni 3.5348308740732164 4.256475616211712 4.647291108381172 -0.255429843102373 -0.6907942271822812 0.6129759333512218
Ni 3.5123987233412333 2.4684451325931396 2.371942365393937 0.4322813742792104 0.3700547642388208 0.43422281427629733
Ni 5.296567860641016 4.354799121769234 2.522949171572956 -0.7424721151725471 0.2201766763270337 0.37430274088189724
Ni 5.541813322248313 4.788087606341233 11.437100646383197 -1.8653481990287228 -1.3133691170758477 0.3338423188740057
Ni 5.876678360534541 8.001672637732613 12.31837071968425 -0.7094113280628362 0.10133463178544484 -0.04038020358925949
Ni 2.1337708902426638 6.528046599671057 0.029241748534178734 0.3706294057953682 0.6075208237739214 0.3089373281022099
Ni 2.590645386681909 1.7714494082496501 0.12340135993193176 0.24126923533127484 0.5341214849461641 1.617057280963976
Ni 7.564486464758822 -0.07128953856561548 6.756060462623726 0.4842192007990822 -0.8232556622795176 -0.161882825682147
Ni 9.087428709451892 2.6098340065061083 1.1076549023832303 -0.5877138163503233 -0.6331950886115739 0.5650644543819235
Ni 7.118768987800693 0.9965362579533511 4.589845177782475 -0.3561934328756962 -0.5649343565619626 -1.0728660704866362
Ni 0.7548177955012404 7.159163213055612 1.9379361246826794 -0.049216828044282984 1.6508518609159182 0.40529764660151496
Ni 7.749467667230744 3.8225511451872047 3.5379535675550238 0.8452555635893766 0.22119483317890296 0.4344390440521615
Ni 7.762841553774883 3.9665203069932002 12.41509789924598 -0.17344610503971422 -0.09347862607613579 0.37369338943267255
Ni 8.331131791172535 7.405580706839672 8.99254043928998 0.22149693780035404 -0.24279852749160766 0.3780696641234973
Ni 7.309065219911419 0.863674145264346 0.12297979176912739 -0.4220085315982926 -0.39874390464339715 0.730357077076568
Ni 1.7893115420443357 6.674559707287078 9.021037175122652 0.753916866674379 -0.13180246135699883 -0.1225382624462535
Ni 0.23528318810481888 5.084893398205317 1.045618058149511 -0.5272975200457951 -1.1949482192320775 2.0354014763368045
Ni 6.501307912103529 2.0371736336276602 6.733547450757066 0.23934656438726526 0.7524575085200331 1.6527436786219925
Ni 3.6631002560230486 4.627119435211812 0.546550403346827 1.3139946664749886 1.1217026323733648 -0.7848238406658806
Ni 6.056862408050413 5.66569439767585 4.441351426642933 -0.10760323840297596 0.1771443798269078 1.2504727346619433
Ni 5.00532240747599 2.6128503993951395 9.749411562480743 1.5845405392831937 0.46853315752239305 -0.9791611873323072
P 0.09707878921475836 5.85158415222278 12.482210823922777 1.0334227768893494 -0.2038666263131005 -2.461949547676663
P 4.19849182278461 6.403184288002509 12.406507539376767 -0.1291953627514549 -0.3930129156968909 0.08614686830141294
P 2.574863837138995 8.337546168822103 1.369597734025051 -0.3076193806217347 0.7046501592287671 -0.49617277361653256
P 6.220438123635112 7.617872984686376 5.541658868395562 0.8286030426343599 0.9837416076141381 0.6327538873090973
P 4.706581399692137 1.7161185868815754 12.421028018639568 0.07532792330903801 -3.1423421199096464 -1.1768211706140637
P 4.048953236758806 6.282719368377009 7.91515758349399 1.5202259363655237 0.4696562153832428 1.7137621272868937
P 4.926714481946173 1.1475194417784194 3.5583787267533107 0.037685944586548 -0.18041148061395382 0.05212114617527152
P 0.2168277698051522 5.8513479286832775 3.589295845313807 -0.7572988957727345 -0.3097019741823763 -0.29418896614844176
Ni 0.7082717641464318 0.27677221861012485 4.775665882371705 0.3192001434807986 -0.13180888911490202 -0.33162062863233854
Ni 1.8327221601882866 6.66991700618378 4.7395091439946295 0.6694049628732277 0.850019046416291 -0.11423282790435166
Ni 5.893313949027964 5.696049122501915 9.176179710347114 0.8364294806573144 -0.3180863415913296 -1.0231424780092637
Ni 8.840566025151077 2.4595685788202974 9.840672892759216 -0.31960714911123017 0.6551937043698522 0.2467433710719686
Ni 2.6351462673158714 5.463850468691753 6.7668849520453875 -1.9726452190451895 -1.7114509626552137 -0.44361248302131345
Ni 0.6523803661480763 0.265046445530053 9.607446666552217 0.719516020597006 -0.6497457938814036 -1.0454025749590445
Ni 1.89753826521946 1.5233056655230726 11.30691694521132 -0.9496852893603773 -0.1993563971475728 -0.7356283527778363
Ni 4.167501111506038 6.906513052036988 1.8070083193613695 0.7242648481359011 0.1993975347981534 -1.097491325234484
Ni 5.546092602521607 8.122282925690117 7.995261894291347 1.1865157721940083 -1.4300779173245177 -0.585503696072882
Ni 5.460470654972718 2.921285657819343 4.846315800276514 -0.6038932543236631 -0.10251116859204926 -1.2755643875232483
Ni 0.6371230511524427 7.789353103323658 6.949806466963262 -0.4436039983808812 -0.2830666309830351 0.26584512489842604
Ni 5.383352754845918 4.591395167622442 6.888809914855429 -0.9470637925771302 -0.027025893769540555 0.34980604129211373
Ni 0.9334464018646957 7.483052942275727 11.247091516728174 -0.05365840875540436 0.15973698298373779 0.18024281624657348
Ni 4.850950324411136 0.27528219320710934 10.411418037863545 0.3071488687432194 0.5074779142167066 0.06906240201530042
Ni 8.341734593887896 7.573090452909161 4.856541553880745 -0.8097265174448313 -1.2206055147888657 -0.8803254107093161
Ni 7.199012307065526 6.2484124420246525 6.907094525364994 0.7432010229187717 -0.27384819770856067 -0.018719173676058083
Ni 2.224998604094361 5.24214559134795 2.6580790302411845 0.1162899675436965 0.163466368119183 -0.4811248781444746
Ni 2.5443728295016785 5.292379435575222 11.260415432908188 0.4822610486314469 0.9262962210124757 -0.31306883377208017
Ni 1.459716105793162 3.1485872159452044 3.7294254660508126 -0.459963156465195 0.041093427606200196 -0.7075277378868782
Ni 1.4268083496363202 0.7607969767068774 2.4032983146066633 -0.034501890431611545 0.290472436528803 -0.27166533112462893
Ni 1.2522573249855073 3.680671653153731 8.036697320224228 -0.4076157532117302 0.5520112207423913 -0.9342761538941586
Ni 3.893127470373938 2.6580872072098596 7.0949095017588695 0.013297745550170647 0.5973009458181262 -0.21398674546623794
Ni 4.074574405274073 7.131134381541571 5.782012685631008 0.46018350000611713 -0.07360554130129258 -0.08606973520657435
Ni 0.7330179970134638 0.22613316015739884 -0.2268790814109816 -0.177166748424411 -0.8287506239558179 0.7477441622047639
P 0.1839881550539361 5.8313325264708205 7.78327216428562 0.16797685439502683 -0.8276023692839876 0.3533973581877978
P 8.5251349157493 1.8339032778857987 7.667796104103995 -0.19838349171134223 -0.7244039448169267 0.9296520248585861
P 1.7883848189278257 3.41577421016398 10.083567021596387 1.023505003555005 0.8824375719563126 1.712544967050341
P 4.0136650741654405 6.021437962645795 3.726965107031687 -0.097917892794412 1.5921756872309483 -0.022490210682716106
P 7.08580671851935 3.94049937556493 10.078606327266836 -0.6859438410685154 0.1875390927976706 0.4780179570843768
P 6.467255380332175 7.6950726544999295 10.028195315384938 -0.42455315239701724 0.37479562135791583 0.6713500024147406
P 2.3140457929660356 8.533302798903636 5.966769475740402 1.7921247236571973 0.8734482239735085 -0.8320928009551734
P 7.159045101285861 4.205305963347181 1.4295558111111488 0.7894618536585242 -1.0943676920038379 -0.1188736691104727
Ni 5.480113550834422 3.1328874360890415 0.37090093923732753 0.5609506893238662 0.5820283359297718 -0.2051920299927434
Ni 1.44989465786231 1.29486841730345 7.044963668539376 0.6289075169798136 -0.4970975994236471 0.2440167161694249
Ni 7.24751081682953 0.5486391645672737 9.049453958372721 -0.8702243177195723 0.9478536354682772 0.21468120043010122
Ni 2.833837520599685 1.8129884091190815 9.106473778048239 -0.2637234505697329 -1.097261211501549 -0.42441482704693995
Ni 6.544782128892731 1.96879600446245 2.144221056209422 0.4948350286417155 -0.0535247113910175 1.4252288167623326
Ni 4.16094136552447 7.049292010624721 10.106944066486381 -0.04164672900650892 -0.6457667546289976 0.5074784284373389
Ni 8.04660962336258 7.365322764396003 0.10896537601210682 0.5925765437592634 1.137772284241718 0.33260356137089814
Ni 7.825704271844786 4.006605624542616 8.002402205048845 -0.01216697437983711 0.29384778075893914 -0.5408940277833071
Ni 3.413284777478454 8.699240749883359 12.46131957751001 -0.45622631513058204 -0.49391251682744614 -0.339207439840661
Ni 0.3428675649629114 5.16517305955315 10.303189497584269 -0.978523039527676 -0.9076438960186111 -0.6217968740769614
Ni 8.990322663674883 2.4246074949739347 5.530170227407067 -0.8419131294797048 1.3353767316951906 0.9191822356755137
Ni 3.685841314460535 3.2718413904409847 11.564491458476496 -1.0471750934784354 0.46791095055736187 0.09175341585491295
Ni 1.0964406441213888 3.6991970299631736 12.436467044050202 0.4959223481686233 -0.25328837127933795 -0.6358759778778468
Ni 3.258485674938346 8.481615271356349 8.154672807164202 -1.506172029375619 0.1820721561458284 -0.8304802050524149
Ni 5.887853551057157 8.048799233863352 3.4010284099865764 -0.8250312661227016 0.7051366119468824 0.12615888991797627
Ni 3.2857967503131293 8.49320839583347 3.754930339900478 0.2606059879866737 0.29785381659453863 -0.44669035061568874
Ni 3.5954040409140955 4.386943694183067 9.095330386848248 -0.143721581392088 0.6206033679894924 -0.2898787688088621
Ni 7.32075828511679 6.119189080396061 11.338499123890724 1.0917690780387261 1.0873447237187852 -0.8027110053589466
Ni 8.080398675032182 -0.33348040492391384 2.4054788395866855 0.06833992202697908 0.9394764671481756 0.170296503667139
Ni 4.554962229414563 0.6084455134568449 1.0580852097227904 1.0682077457790184 -0.8307008057036531 1.1823058478777186
Ni 6.141939224354297 5.734208309652311 0.35801857936576875 -1.158790795474914 0.8846613190805086 -0.7602554072978971
Ni 7.937483433633196 8.908116871928028 11.27072113909502 0.5903643665992929 -0.6360024761533821 0.0007661887420631965
Ni 0.40051155991396015 4.994256243202376 5.652800226627315 -1.0723600773844952 -0.843483045069986 0.5088585966143171
Ni 7.342554449396267 6.202948496191181 2.455278395922103 0.9104772517023482 0.1085496614766453 0.11002598891185567
P 8.806504407858974 1.7868584514418102 3.459897133134738 -0.6498257551897195 -0.7250487774897771 -1.871226512186371
P 2.0347023719836344 3.621179663282113 1.1801037533965577 -1.7619384298818044 -1.043085496790094 0.9590237931524839
P 4.805086615664661 1.0150434637212933 8.194100333011312 0.6086904186019904 1.5546270395532127 -0.27820930289073376
P 8.714186431517264 1.8604511695175745 12.052259451122286 1.0977816027813931 -0.3194343709787918 0.846523888778839
P 6.307332044089014 8.054886532765916 1.2017636348647829 0.021878545240646193 -0.12747709450876754 0.4687103065302056
P 2.0001319655295253 3.277383558098542 5.913885385110327 -0.1863234752230146 0.6184372135761091 0.5060157278488834
P 7.100134584742249 4.036842237598931 5.728596183484978 0.8587474274282242 0.38866980823684677 0.1918814289267663
P 2.6995807804755407 8.64239264655002 10.326632866775737 -1.8084028919919308 0.7157843214687156 -0.11281229340774118
