# total energy = -340871.41157770203 ev
CRYSTAL
PRIMVEC
9.21984943748368 0.00000000000000 0.00000000000000
0.00000000000000 9.21984943748368 0.00000000000000
0.00000000000000 0.00000000000000 13.49418160841822
PRIMCOORD
 96 1
Ni 3.1369338354489877 6.68655734135866 0.4640866418632485 0.030671203831611697 1.3219720282535103 -0.615977439181707
Ni 1.2052924474427393 0.16002892272706404 11.29117500083958 1.0295129003119818 -0.49509548139195375 -0.6678700142859402
Ni 0.3027420466540071 6.090613948012504 3.2581564128538063 0.15041467714154738 -2.411410658386847 0.6080509852457786
Ni 3.944269931467618 4.53690339894761 0.4303438377267901 0.17129563435561468 -0.44857599767417583 0.13390510952229845
Ni 2.0634114729065884 5.2993480491658085 12.03215399812852 -1.3039552799611154 -0.6990443830062154 -0.08688426068806972
Ni 7.47687359573679 3.4103023645068578 0.27613817176036515 -0.12308616452992348 2.765431766201573 -0.2980960145123318
Ni 8.185566525064354 0.9055809652238526 5.011307052076145 0.07832223005067157 -0.21093921688916575 -0.23056727553273842
Ni 3.4220392325503877 0.41067789936320026 7.337555220288738 0.16800719341233 1.2768679368260203 0.9414847558274559
Ni 8.017248957898063 4.8235761704146025 5.141148344521885 0.49022684044574283 0.894749042333814 0.2853762529528182
Ni 5.258882130985876 0.582083194029708 3.6659374355954224 0.08233392231322595 0.6071390149544705 0.2533261664958089
Ni 4.216052646461476 6.697934635283025 6.062828088450221 -0.3930499395824134 0.5871623147222276 0.5071516412255395
Ni 5.436345788567863 2.3494296350797166 10.056485064192758 -1.607964574634089 0.7844754561875263 1.1762357304242388
Ni 1.1284450042826264 0.7708762023201697 6.923742572194352 -0.2347049518501958 -1.0654049862229005 -0.27635219507733694
Ni 6.6260474709975545 4.335117779151301 6.981606345832368 0.8965742684680108 -1.0709688534639232 0.04601760438069494
Ni 3.4240215001304026 4.924948412471644 9.454266641474703 0.7459155936364572 -0.1944587027356393 0.7250960857879448
Ni 0.15479297036106185 8.11986587959837 8.971053422426614 2.6001334870799737 3.124294261269 -0.3200637770326746
Ni 8.105077241466539 8.867171537414782 10.904067645980136 -0.2119198356348802 -0.17232510406139354 -0.8653124822402517
Ni 4.168662621525305 3.2557500322101602 4.028472048342047 -0.5729780528020455 -0.05033757191228749 -0.3610880419638362
Ni 0.27910143129625725 8.955801947864472 3.117264209145714 -0.6373412495694637 0.48413872527013396 -0.11897779878850476
Ni 6.321156277492842 2.848527732330633 5.029416679893193 0.32318406782921116 0.14599289392476794 0.32390911892069374
Ni 7.4154786198515845 3.3127287003240773 9.09003096654895 0.8331220135506362 -0.07689938156121595 -0.08838835603742197
Ni 2.117034115908294 7.645541517173036 7.019605954348793 0.616677550572525 1.0772030072990932 -0.42493830365057783
Ni 6.588448925921736 8.47424000380978 8.483697725128753 -0.4397697122364555 -0.7243244977292429 0.5306247846468152
Ni 9.064762125820826 1.293249808900145 1.2615492013635623 1.8315525906355168 0.5597240160056167 1.1799802850683356
P 7.488223230113528 6.614301383104815 2.844424899432462 -1.7806036103914755 1.6029511805798973 1.373101499939474
P 6.323193864168114 5.510473376211211 13.120149679959791 -0.16993037857697185 0.6251740180793105 0.8112681509003383
P 8.404132270421718 2.96698435497264 4.186380405750955 0.21519105018698423 -0.8057580197153865 -0.5970091256093203
P 6.592754595502512 5.575104519168907 10.048981950906173 -0.5924443890567733 0.7192805075474322 0.1428155246380508
P 1.7253103825497198 2.2601907145822078 2.051884817425032 0.061104066400172186 -0.21967556832089907 -0.06217698774937679
P 0.13696639191474172 3.5109831178731965 11.935711609443729 -0.5185498557601521 -1.4692648719366244 0.047310869270821745
P 8.966331015661574 4.625321752865483 7.733515474359018 -1.7440988305972218 0.3991627373483706 0.6716623914488368
P 7.002964126525878 1.0547784090997467 9.582339566842087 1.160522176343724 0.14390592948875217 0.27349055725882576
Ni 7.0714215069054625 7.457945245309951 12.38980393476402 -0.483900898227715 -0.34600569370941703 0.8939008354009057
Ni 2.596613792382971 2.1501610341175663 5.648137710711103 0.4601454476793301 0.020848561314235063 0.637499886634515
Ni 2.7409874111525214 5.326758660865271 4.867162085566987 0.30302121972809104 0.16867002380730953 -0.1745136270722801
Ni 6.940149293862428 2.2004092123086423 2.646438779495336 0.2823657482612686 -0.8946102027631044 -0.2791161309757193
Ni 6.5125787867778175 6.486256117285061 6.130933270590008 1.129212567597165 0.7433763721543714 -1.1245575853236567
Ni 1.762696871093722 2.627269791004131 10.852290816790148 0.5582700571679096 0.04741268495600867 0.12155198727358422
Ni 2.294709830022095 0.8154587831720864 3.654629290540128 -0.1942879814857299 1.0541417546042557 -0.859986442041648
Ni 5.239502007947778 2.5192869170639702 12.975667266969568 -0.6749027527630054 1.3343886567503085 -0.13681045609455147
Ni 7.563807553931956 2.0035285522917192 11.624994393223616 1.7467028438789725 0.30918184001284815 -0.861276107387349
Ni 5.900371579426329 0.44135602562246357 11.79116189155428 -0.8993055513562448 -1.376498955656797 -0.66346288635718
Ni 0.7818976100650527 6.01378494455081 6.200063699961877 -0.9538497051507122 -0.4740592295469449 -0.10695609173728032
Ni 7.078022918939372 1.289110096605137 0.3037875775543499 -1.2956886690769491 -2.3487443897058773 -0.8926386808590304
Ni 4.25165048425886 0.3459997351745371 9.83380357814833 -1.1314987925281803 -0.8424468904959879 -1.4415185550612917
Ni 8.403883334493065 5.363868553932992 12.270259369915307 0.7758733163408121 0.869843794451702 -1.2147914792102497
Ni 6.47307173291566 4.0153273093242445 11.541640502476449 -0.6541855748203121 1.1896098377382995 -0.7586713506402288
Ni 8.936246647691394 2.820665348019911 6.597318420861152 -1.9536918178711387 0.437369330325079 -2.6567574062216046
Ni 9.216511623957874 3.692761664885168 1.7801122442653041 0.8087194163365556 0.3308459552498431 0.701942787599933
Ni 5.458759241995845 5.983617597937746 8.092784416515682 -0.8313176133520457 0.09814954918924386 2.1725533749311743
Ni 7.994669547184312 8.324832347371911 1.330941474452977 2.1112184234671187 0.5803260085266844 -0.7351992356602177
Ni 4.583150162581818 0.565664486557659 0.491474203939687 0.49270769788606755 -2.9859007769580446 -1.4529411950759363
Ni 2.171366687299121 4.607822479066097 2.575782465079316 0.35461374709340215 -0.4729343719138822 -0.8130800072980964
Ni 1.2829143579364393 7.430931087126491 1.7406549775888773 0.576256466443001 0.8392494666046127 -0.75413463911214
Ni 1.0640166980075372 3.7665757776553974 4.975696306489868 0.025574763145310795 0.3451695709613668 -1.318784117443832
Ni 0.5551354187605565 7.37283681725824 13.07142185490334 -0.17763108965533925 0.22880786963947045 -2.21000174958562
P 6.32355343828728 0.15084042100500422 1.8646259920430095 -1.663642584922683 1.532312692326729 1.723664216891954
P 0.9828912448142759 8.659227058346612 5.11197397566867 1.218101003199457 0.7507729217287586 0.9517573413980575
P 8.838488586524425 0.24011437692950818 12.86582474944388 0.26160794688862693 -0.24808163026741795 0.22575545596639185
P 3.7322779385965346 8.32224156974408 12.242055851183839 0.2153273186545324 -0.9993852276886659 -0.1492931619425945
P 0.6813127431304915 6.806166445151839 10.743567588958475 -0.4970394924922021 0.19389126026794348 0.039394956857854734
P 1.2021023796162966 5.236035344645054 0.5379210383017387 -0.010207536660621129 0.7508523688164424 1.182568357510486
P 1.9156172900803607 4.223437745678183 7.086455393026263 1.07844844967042 -0.435585756062095 -0.2056661414156845
P 5.148428337457604 3.5842440396908635 8.31248328134088 -0.6799017486394936 0.6485872547969281 0.4304394359744652
Ni 5.692251923223183 8.843181489771997 5.989082202564141 1.7450023162480979 -0.7205678589002881 0.961053936208635
Ni 5.780255383926636 7.514665757646005 1.2409207107425142 -0.8233590206266014 -2.1644770256809434 -0.5619554764392967
Ni 3.582713544722108 8.835685752364776 5.102271006360726 -1.7843859602520429 -1.1264620014352211 -0.563133813018114
Ni 5.632516520195663 1.429740456595683 7.633982592219247 0.3958478140425247 1.0723906735121145 0.5959225774133607
Ni 4.34321280675713 5.878778692577981 11.907117169105783 1.633576618775238 -0.02688448309566983 -0.20529127457476903
Ni 0.6763782798336357 2.4898479385384467 8.454725270973224 0.5700071430991795 0.9388015525683381 2.4303527467069883
Ni 8.445962726284638 7.4169353560266655 4.737793771385688 -1.4659381215562366 0.5732680732386385 1.193405814445622
Ni 2.80468734934007 7.088773263117499 10.402070828137795 0.17774858906980998 1.2388426066221825 0.13430748716703966
Ni 0.46803642526454325 4.610376377297092 10.014922905941832 -1.1815558570855715 -0.9359023766436719 1.022636742017439
Ni 4.44842050608527 5.908899939944998 2.4890688612802547 -0.6579920930505959 -1.3544291203409513 0.24930059027618356
Ni 8.085595700087136 0.8598412932961598 7.453443192941014 -0.7191707214424453 0.31274281789122915 1.4627928910590358
Ni 3.6789779903171573 8.324288376268559 2.3625743740975174 -0.3794896843994755 -0.22102719725278708 0.5640162156230674
Ni 2.336272910257943 2.760699448762158 13.343802016125965 -0.8073222788787128 0.24554677966070612 0.44456636229415053
Ni 1.8816144861961976 0.3665074457709425 0.1460719149939172 0.38735597452142967 -0.5145281361952686 0.7116926678978452
Ni 8.28834018420122 6.127594763191294 0.9975415852079674 0.019457851614295522 -2.4111620327111507 -0.5395326286594063
Ni 3.063128942527968 2.730089549387044 8.800540609163575 0.6344330747837331 -0.9537687154011315 -1.1858305732015253
Ni 7.103229986677794 4.520713343735953 2.948788982557945 -1.020331748033346 0.141844161863717 -0.45707606472538703
Ni 1.4194050056319776 6.045888459497842 8.643724803885975 0.5014697603494138 0.6184346424729478 -1.3410267308921162
Ni 3.527376009767459 1.1627336234922796 11.89170711313724 -0.5890790721289662 0.8460055543815236 -0.14784254553899698
Ni 8.077260956401863 6.502335534306206 8.68241221315342 -1.6678175422359793 -2.8096819942691997 -0.7206789305568556
Ni 5.473981213040518 7.385790705397408 4.007164976819189 1.2518009665550633 -0.05827790980528672 -0.224154172917543
Ni 3.963723813299392 1.8772166181233276 2.0387142628294446 -1.5366627417653083 1.0779031186899113 0.7096098172268875
Ni 4.016590428665929 4.270477416344397 6.47124251483252 0.8519944249751069 -0.8780654110305457 0.7817477728437181
Ni 5.274343818109993 7.484968623342619 10.370265114320226 0.850312923507626 -0.5041285381284996 0.023408865842243554
P 1.797916695073522 0.8146114790297452 9.193086753071624 0.5523590910001132 -0.37440172835360686 0.08271444558109627
P 4.683268505146385 1.5007517352062636 5.642132822921038 -0.6673107993483605 0.805534847960987 -0.2643644265878415
P 2.3894714401960173 6.783144481676039 3.436873969928267 1.3245421029735318 0.6215364213267232 -0.7996053698504294
P 3.7447247350291866 3.719277951211321 11.792416713031676 0.02680555022861835 -0.4589609404529257 -0.848075806646991
P 7.940687330063442 8.090574418660196 6.804360276691723 -0.08529120516933698 -0.8665131874165724 -0.4617696135463144
P 5.344202615569402 3.4839966192373653 1.6241594168737035 1.1453346699700082 0.27877314581400375 0.3911871753420618
P 4.518242424147841 7.976128430424266 8.00399265870483 -0.5812762882550957 -0.9492361176381006 0.42227746898896307
P 5.150760959307576 5.1264850963393 4.543747293015726 0.4474544824752229 0.5021549593418966 0.8513673329140692
