# total energy = -340892.78746097756 ev
CRYSTAL
PRIMVEC
9.07930765068419 0.00000000000000 0.00000000000000

0.00000000000000 9.07930765068419 0.00000000000000

0.00000000000000 0.00000000000000 13.28848449726110

PRIMCOORD
 96 1
Ni 6.506431628608887 1.8236788200111211 11.397666223958394 -0.0006702865941472327 0.9114596702202753 -0.05010334441429436
Ni 4.658683563936783 0.35245146071051975 6.233508547664092 0.37058261171783274 -0.3833499386858301 -0.3901433074585797
Ni 2.8566134962052314 1.3687328707570734 4.941256133084404 0.33663196580400084 0.29010374033547454 -0.2541424917495172
Ni 3.3642829851598908 4.349805516646477 5.065291279099897 -0.19607284130029456 0.36082296122790763 -0.9941633171680944
Ni 4.980917272825093 4.410455291952157 2.473864385764913 1.0147041174339233 1.97067009759669 0.5231338755864087
Ni 7.44567692884801 5.903665471008763 2.777386549454498 -0.9760403823151382 0.4574231636521606 -1.7840314051261015
Ni 4.940042229647522 4.54177839824278 11.414861524774475 0.5569189424566539 0.3113459375437025 0.17419403894933227
Ni 5.590193294032129 7.951457921805126 12.55589080648944 -0.5207098395259484 -0.24490400387038466 0.2728716927279043
Ni 1.8036135500372357 6.493539011702589 0.30702405266195065 0.8236210160387365 0.17218703582163247 -0.3568930300458821
Ni 2.7621342204820416 1.6129299301315618 0.4706141105182711 0.3885307115558212 -0.14437181338157715 0.1351423243635092
Ni 0.9125975321968816 -0.14084185246285 4.390607925362604 -0.7153757731763873 -0.9869611429927002 1.2727552002092275
Ni 8.560497881012468 2.1706718009441297 1.4178410301393136 1.2545404769734136 0.8786279684022351 -0.1822919854661183
Ni 6.791558207007029 0.5955953203940711 4.851586166639569 -0.06479462787788196 0.2727837609997883 -0.2609841972616989
Ni 0.4292769305797632 7.43256640855738 2.2089982824557866 0.6830708903960946 -0.898974136158755 1.494919339279935
Ni 7.7554175103679635 3.7637816024091792 3.905632165955332 0.06862017227155925 -0.3651593838197324 0.31926287839793405
Ni 7.530650169429726 4.167774476960311 12.885936351706043 1.3250157001758407 -0.7113432549782265 -0.5248205192602123
Ni 7.753193079986242 8.79953789362444 6.982606815081458 0.04646009123475224 0.21805423066739218 0.062157447365351025
Ni 6.72447120255588 0.7845248180558742 0.25489429968364297 1.4196037572660714 -0.2965101580824507 1.0340853501740128
Ni 1.761966765706823 6.693084035904422 9.368102299192152 0.6444477787072579 0.012766041416416723 -0.6696978115232983
Ni 0.34956878052196383 4.965800225537075 1.4631821847649182 -2.1903600640952923 -1.5689012900840398 -1.1202147349739289
Ni 6.340044236056207 2.046203571952277 6.976135084566804 0.17653425704673467 0.53798431033568 -0.016472029513094212
Ni 3.5006632658285475 4.421459412860913 0.3693280778270166 -0.7726126433116693 0.1115164574144531 -0.01668363130326804
Ni 5.997754336501693 5.51961075612399 4.65309615799021 -0.4155347509484908 -0.19208660295903693 1.0919529119147582
Ni 5.554275552848106 3.110461859644082 9.40871222658545 -0.7812466648375834 -0.7382503637817157 -0.28022016267317545
P 0.25395095961563996 5.531949535261777 12.273523429695398 0.16827073148636182 0.8321591354167346 1.214625900166663
P 3.7957861619829103 6.322430379156054 12.562135554312082 0.5807019038088643 -0.18502506812656522 0.7820115680280662
P 2.5727761794977186 8.537336567119537 1.7592756589103256 -0.94134900158054 0.12098274503367551 -0.2710932606712428
P 6.191179907326875 7.691789722143081 5.847518124381839 1.2620624963820717 0.11405285068306165 -0.43097911052801907
P 4.776696405167807 1.1640580377157628 12.571743277699577 -0.9011621449490093 -0.17064411681454483 -0.15193497044081575
P 3.9933246591873552 6.1818736169543715 8.382322823298209 -0.07106760537078728 -0.0167327393736486 -0.46838120532556116
P 4.891322664634007 0.9522196309145446 3.7914970970346467 -0.413113800211824 0.049113469697199284 0.1936986846411632
P 0.2660445974460541 5.632148774823677 3.679687238810935 0.5109373335202169 0.19387917608308544 0.09116977543730105
Ni 1.748838086800833 1.24036053946261 2.821384874474158 -0.6329480055977744 0.2802466450357367 -1.9359769170898786
Ni 1.8646264976501359 6.530255731962495 4.955821158465447 0.2009934185303635 -0.27221708986304083 -0.40528890485076646
Ni 6.263505672309667 5.514580819668998 9.36937794192126 -1.372571852688249 0.9231432772057909 -0.26811875142395114
Ni 8.570594071153176 2.0945145681201702 10.159923248900068 -0.014421317631652584 0.6289710232278974 -0.2818219599426566
Ni 2.4118454508610143 5.104958774355962 7.159729581035551 -0.4426843147800892 0.6303463063088693 -0.2186502123801783
Ni 0.7173297698433276 -0.05000065532723249 9.01356622943819 -0.822834515581699 -0.047218309557015455 0.8199916468162652
Ni 1.643509038399456 1.2375187161586163 11.609244962559949 -2.1087293384966777 -0.8482334152707779 -0.8456211744589114
Ni 4.136995623923446 6.99548853681854 1.505717833317251 -0.1026824040625909 -0.3148976594507028 0.2345964512967895
Ni 5.643171054347794 7.708105238044924 8.079624152815244 -0.6305203699928883 -0.38337616393807517 0.2978371044239903
Ni 5.277011654901268 3.0484320295709666 4.816849643384779 0.3505568034152092 -1.2203293783093434 -0.3411411665282641
Ni 0.535933373764028 7.41944680895907 6.911752805873674 0.36098854027149446 -0.31020333929882704 0.08471604939215732
Ni 4.88158964680052 4.584423906418047 7.059786377950241 1.5863922477799517 0.6408718884305414 0.1519120876226803
Ni 8.076035102489145 7.195768984942492 9.11835869075565 0.47165679075303935 0.23492503828080186 0.04849280539406488
Ni 4.682380556982865 0.2645210896172677 10.37826697965436 -0.5779132853201338 0.887229336918001 0.09796262998941839
Ni 8.074954664875166 7.374449760094557 4.583636730442149 0.10631794393264916 0.024088665518087547 0.6667793523249226
Ni 7.357834627039258 6.0619450418027645 7.000054520651059 -0.023904574531739477 -0.41614898749372203 -0.46407769285420075
Ni 2.2765910043447386 5.371690675393429 2.486700710963591 1.3145947619528326 0.1254754906977065 1.205428035717479
Ni 2.4610189812585546 5.109779886734303 11.239506500025774 -1.3684971683982432 0.5145458768070816 0.2268736287312351
Ni 1.1391988932865782 3.4472133815134964 3.7539042235835733 0.08678681587825698 0.021201830888595743 -0.044742594323013266
Ni 3.7767105365461986 2.6086757620663805 2.7532010896552057 -0.5136076812635283 -0.9413816545906885 0.21275235883850457
Ni 0.9989780654690738 3.2556944653012176 8.123715994704012 -0.5104552516774757 0.6384920753444552 -0.12741487381226443
Ni 3.6375610670349925 2.6666743795293577 6.890052352586533 0.13255168081819754 -0.38711480504490103 0.7870504160035541
Ni 4.236232456871214 6.906048276858021 6.016201673846915 -1.0497261420350632 -0.3833779637102881 0.27665892768447836
Ni 0.9629786105159266 7.688975136762129 11.628965218841977 -0.3370664822382582 -0.7012375340027923 -0.9629025593815997
P 0.38068810759684707 5.49260889508221 7.9166142627197065 -0.7962300256202933 0.3378565822397213 0.9562737412111725
P 8.450538385694042 1.6328590104902398 7.9598689924403345 -0.14774664339108104 -0.7539824298049919 1.0012441352742758
P 1.32448032512236 3.175306275098149 10.40627845971021 2.5657364976573427 0.3770206540336926 -0.19014721984447897
P 3.8925261853185433 6.02544622492719 3.770913398592205 0.7056744867282234 0.5396588698246254 0.11048441660551296
P 7.076430564790118 3.972669234214238 10.730850090326244 -0.7021690446781262 -0.3696025071927505 -0.41090856503038914
P 6.34343081782103 7.87276756213831 10.352487193426372 0.10966629157959179 -0.08942065395667825 -0.6115656832672565
P 2.3204531397491914 8.399803214375456 6.147199740922576 0.7778787768066151 -0.35068073058758314 -1.7314677720967728
P 7.056002122509012 3.9931339937260644 1.6600242990702692 -0.6295796033461739 -0.156294275850776 0.7550990599079384
Ni 5.2754954105186265 2.9180077747407123 0.5605709830858088 0.4840639061681406 -0.5180608319388755 -0.43680343051927994
Ni 1.4905136246755004 1.0625786157709138 7.085074065701945 -1.2430185923767432 0.9359476280593108 -1.4579517609166504
Ni 6.701691219585528 0.6727576325782607 8.995932398061141 0.25601476907156556 0.2094657176674328 0.9418758206182876
Ni 2.617246628516764 1.786036010367805 9.166383688731608 0.4215123086881644 0.2242978975842589 1.4458940584211681
Ni 6.591078014114105 2.0014516643951366 2.6418706188770242 -1.7386907722077736 0.38242279888587044 0.5043445107940475
Ni 4.250259987237572 6.916271577306255 10.521503045552555 0.04336216903571887 -0.1364705562566295 -0.7058683479065844
Ni 8.15138427692954 7.110859299514539 0.13928021154180553 0.19693930306564794 0.3366666756966783 0.7574968707161535
Ni 7.588321931816205 3.9262739719669284 8.348318092242465 1.1569048913061108 -0.8213813280749402 -1.0076027305024517
Ni 3.0768593419185843 8.57327246691892 12.432612874734499 1.295128682808421 -0.47281147318277283 0.4598554272427371
Ni 9.035363831317515 4.999938422415721 10.19944365937171 -0.008579257028578773 -0.3341835042635083 -0.5558858732064491
Ni 8.656320894272373 2.336405483343814 5.954144605850757 -0.17518777032116925 0.5982573961941245 -0.18034746014523778
Ni 3.283567939880325 2.832716758390179 11.608687493068368 1.6912300076226485 -0.11003987286892662 -0.42581479271826017
Ni 1.1998759065153002 3.3840395586726393 12.731431049114823 -1.2220329912640115 0.46776156946369113 0.6139041015924459
Ni 3.1670168671858607 8.882822382977583 8.075584768828191 0.7755753254844191 -2.0336233013904588 0.8366768207814301
Ni 5.623241973989115 7.5485273262526125 3.4937820585375032 0.3595834323938517 0.867948377201202 0.21081169017236598
Ni 3.329309491974639 8.282562114297276 3.937178220491198 0.12426758643253437 0.15066510258945667 -0.6625658284642073
Ni 3.4410576109061237 4.2345981814887255 9.160244260878061 -0.1688453730429092 -0.2952729432412398 0.6112936605527924
Ni 7.057400335891809 6.240308041186013 11.561419709352961 0.5437178703853475 -0.8999622111036372 -0.5750426486405581
Ni 0.8352018818053033 8.872789747990641 0.47392442609857816 -0.24320219068792956 1.2401178737901801 -0.525777740967159
Ni 4.609845967923422 0.34541862898121134 1.4632884126647798 0.49140466280392786 -0.011434209978870631 0.615643709991372
Ni 5.742634869987573 5.525158213116771 0.35656983467439046 0.2688268332345693 0.8413811682356349 0.2234646030496861
Ni 8.089290891702662 8.97078271578618 11.053335296037304 0.19472069814777432 -0.15332516592012302 0.6913868664609576
Ni 0.23810121219780667 4.740796822599145 5.744252802616237 -0.26710188012366254 0.3337960390171026 0.5473025024128123
Ni 7.921051320383162 0.04700720758497458 2.5876135841091776 0.4716153959921426 -0.7423921538642312 -0.07889198651121251
P 8.711114516124136 1.6149818536673528 3.925285235360523 -0.13591699774600463 -0.18516647880043596 -1.3558290860122715
P 1.9744134861226341 3.2708205918969155 1.6038805841664165 -0.5973731938169583 0.38493939466013705 0.42293515717762
P 4.670749963844156 1.3573474189257375 8.326816475793526 0.7687896700211534 0.015608138850902153 0.021679027635330406
P 8.726385911642723 1.4341765205180532 12.671632912869573 -0.3125651546627843 -0.18565216018760286 -0.6395092037550599
P 6.503045046844064 7.808449746529711 1.4795394654820908 -0.6328922126591745 -0.3774621124464854 -0.7579689252565656
P 1.7917922914372364 3.0173444800729654 5.877231066697013 -0.707683289628136 0.4576687040040634 0.40526756469452785
P 6.869867235751264 3.981621431587202 6.012587201459311 0.3499788194245521 0.5439698384951535 0.4031453761452025
P 2.5409350474622365 8.708390723819988 10.251508041334718 -1.097197191032833 -0.4847509049328361 0.11984348922290973
