# total energy = -381168.9084997804 ev
CRYSTAL
PRIMVEC
9.28669500926732 0.00000000000000 0.00000000000000
0.00000000000000 9.28669500926732 0.00000000000000
0.00000000000000 0.00000000000000 13.59201685957539
PRIMCOORD
 96 1
Ni 1.9053233272818446 7.468267150988154 4.658989946011766 1.5038873471065004 0.13194207225865665 1.5051111922112723
Ni 1.665197257916271 6.445829905408947 10.443358292945723 0.28421257166202024 0.006140565680099101 1.5503862619989879
Ni 4.109139601214433 7.591501591970525 5.6562221730325515 1.7304799542622067 1.5554233102022632 0.01617172466385602
Ni 6.169077111459012 1.5043888494723574 0.2626639491560873 -0.8219917079654295 0.3376051283505476 -2.8861008366495713
Ni 5.317570771736739 6.627793404776586 13.630482323604525 -1.1191837226062533 -0.8602155273333184 -0.8190421384188025
Ni 1.027814241911445 2.678635696162252 7.3257841775397585 1.059429485365756 -0.45871462877007446 -0.2582359450926004
Ni 7.066190409709124 7.933056942753542 0.27026139423277745 -0.9458869986602098 1.929505193322606 0.3324991745825499
Ni 9.06804893020964 3.1341852265276793 13.0099110113307 -0.783043094616374 0.7005196820001612 -0.9077701371838303
Ni 4.61160551408498 5.131623280268013 8.989977543740116 0.8858211437165647 -2.8238685701822273 -0.6538011948976998
Ni 5.856245507922303 4.706645549428883 2.7022155431176653 -0.915601717413107 -0.03732624725428411 0.9246234612957431
Ni 5.000383708303968 2.679777959631795 1.8516536602641118 -1.0517210609779049 1.9952835252699959 -0.3911061855924813
Ni 6.890866897176632 3.4126281989447422 11.864117669066268 -0.24127360620664895 -0.689465995289161 -0.3553894489171621
Ni 0.8171957168395704 8.706276444685205 9.997471568597035 -0.10731218952511842 0.09671153119113667 -0.9780124184398447
Ni 4.570892643755913 8.852207567940441 12.574831213807274 0.014562728305523307 0.45339630188095464 0.9332160880607605
Ni 0.816971907493099 2.2655170746776427 1.2754681061421516 0.344188180884704 -0.5768035971957228 1.6713443244423152
Ni 3.5467930797942 1.251781462195683 0.5859189390197466 -1.683768923358913 -0.40151683940284394 -0.4249172206046553
Ni 2.0596867694829726 2.250064014406756 9.347460504902093 -0.11457966972080912 -0.5808242883193416 0.7903352574024131
Ni 4.948489657346207 0.4756282933532181 1.9708966797894951 1.7716227470491035 -2.575474550880713 2.052402124659859
Ni 3.20829305162484 5.824299277554604 6.367357333720851 -0.6651572433404673 -1.298833642463834 1.0661770885022348
Ni 5.6033409464096495 5.493163598420588 11.490446141399353 -0.503253591722714 -0.36273560486958817 0.23448537964022195
Ni 2.5332803479892245 7.339999321383897 12.97462621415568 -0.8308131629118014 0.009098619867158524 -0.28454218708729706
Ni 6.823111171373514 6.391447020224866 4.196399243592621 0.49502888982007653 -0.02307642220348929 -1.7412783304292916
Ni 9.055771919585773 8.227686624336563 5.942294165288877 0.007549273102167645 -0.059550348759807116 -0.4802010807786245
Ni 3.2370818057352655 3.5204560131305977 7.247290246453451 1.2376853530892877 -0.4835034056789802 -0.43678491857651874
P 8.441847094833507 5.972199180123198 6.107518397145535 1.0286762633432993 0.509997852425083 -0.6389692720911899
Ni 7.726316541461187 0.7902206542381015 1.6065489937764093 1.6426276732339131 0.012256962990482114 1.1206837041905475
P 9.780747041645288 0.7335142379964622 13.281330456414306 -1.153960463965806 0.050700354568344944 -0.8182193854071907
Ni 7.996531502219593 1.1602053640399062 11.921924558650515 -0.38246522208803163 -0.3244845318081896 0.08483946234389904
P 5.432075719537239 2.989544953859976 5.937169767057222 0.5698796163823798 0.765319709194682 -1.600302944323773
P 3.605577858348715 0.10699851233357816 4.772306196868351 -1.298143815485661 0.7375458815155234 -1.4328883901901195
P 3.899724631798272 7.019506194575863 11.372535762588436 0.6181695617370193 -0.14980044059631623 -0.32386386750505514
Ni 8.775146573873243 5.545549844206688 8.569345057432685 2.6297533668289352 -0.8116458459547311 -2.000261695210878
Ni 1.0514488803666173 4.748602836871108 1.4996340616966999 0.15389697926319304 0.6560925620350379 0.030848095729108165
Ni 1.4098131488721717 0.43113666687978625 3.3403062052719155 0.5826299740695127 0.9224981874226241 1.474050723361042
Ni 3.2631216981628897 6.796189042932829 8.867445176890243 -0.28943602484448866 2.702396544216959 0.015772946563540575
Ni 3.716971763366314 5.651251005266322 1.52430416663036 -0.39643351134266563 -3.416954963698373 -1.2184416743683275
Ni 3.7539235222712763 6.487164984294595 3.5620464761252886 -0.18400768260564437 -0.011900093871695635 1.4587045799222749
Ni 5.58237158938341 7.2370748820916875 2.4314898141411714 0.7467465741781849 0.39722129735128364 -0.9279355563881115
Ni 6.566046170557161 7.539022479235682 5.96461195041087 -0.7834698977411475 2.4094738463754504 1.0453364976077997
Ni 4.295532854037128 1.313807297261339 6.42706706708485 0.5084770449051823 -1.3989089479208812 0.6305594507609398
Ni 2.169260482305203 4.769284306356244 8.880887667720838 -1.0276280245844431 -0.6545488716970017 -0.23733493327387517
Ni 6.104766749454272 0.38799253983261983 7.901174790580476 0.1804071097385796 -1.4382229150291552 1.1619578803489858
Ni 8.130129894681717 3.1506133897603705 7.130072655080159 -0.35980814681014806 0.30269983183293026 0.30338554504604526
Ni 6.13926682091241 6.7068696116315145 9.578824577653737 0.4607524851357097 2.4070328410341255 -0.7367750647877698
Ni 9.109253995367046 8.285886341113995 12.115176035637905 0.10005062286669865 0.18057577410595996 -0.7394312714636944
Ni 2.5152734466278974 2.0725395551890466 5.2590905967741035 -1.5136716801867738 -0.14804000626178376 0.2662115070989093
Ni 5.860684548072232 4.2365623415851275 0.22306826822040274 -1.4497854230557743 1.1328133975745458 -0.4231814688604712
Ni 0.3540543134143776 3.0259673711571016 4.992252278272004 -0.5875783192137235 0.5668043198911659 -0.6675982486817922
Ni 1.6892219375561652 9.109384009095287 1.176349354409443 -0.5289036881906504 -0.5664762471277857 -0.48976301343544687
Ni 5.803079179766758 9.03106002452518 4.252670113844654 -0.27403331713617324 -0.1160732235472001 -0.5115171172830868
Ni 6.623772265896002 2.4158129445238137 3.644604264888603 2.6613964476555134 0.8792889990250017 -0.4981252693572131
Ni 4.889286977522348 3.046918154793592 10.38322694363443 0.3406457149490843 0.4082662423115356 0.06635580171741476
Ni 1.9330348247868483 2.223439060202049 12.733259442354894 0.12700606840961998 0.7697983137913258 -1.6627694382891105
Ni 0.14645303550717295 7.704882849691232 3.471441766253367 -2.850125446996227 -0.2344270155984608 -1.3476529779593822
Ni 3.2408707772439924 4.945555061765918 12.337731678301244 -0.42346069066378683 0.9394875228917692 -0.09955722817004789
Ni 4.589521753673821 2.025010250822221 4.028565450476276 -1.7033427317257825 -1.258473750589549 1.164007563789163
P 7.614774049325598 8.028997787500254 2.293612112680956 0.014901856812496917 -0.16444724397521357 1.4871985735969098
Ni 7.5510858958774385 5.767799025939175 1.704261739905144 0.7181291675518083 1.1533194879476976 -0.2458298581187637
P 2.842759454676302 9.010016373939946 8.932822580136046 0.42327865655996777 0.7274201059354312 1.6458189264777008
Ni 7.772991469899575 5.450463375388414 12.920843249460479 -0.25336550437417654 0.6292031938433615 -0.47971874182556734
P 1.7513963597398106 6.920593607469365 2.298029793432675 0.631693307255067 -0.6896932808086187 -0.164040238344782
P 4.955092497401856 7.107163307494673 7.667949664176017 1.4099520931089202 -0.08190840474003314 -0.9045511160259003
P 9.106402980040626 2.976506434256415 9.208957808876837 0.31127188977265746 -0.6904854376926107 -1.9516675883522583
Ni 2.8965758514730493 0.4733771985156802 11.049425645164817 -0.3598721672788641 0.3668072038358005 -0.13616716608359775
Ni 7.047087678352626 4.7185418055629 9.593856950646817 -1.4797583152687805 -2.53727155744843 0.8040448936790217
Ni 8.799189826902886 5.0011080705041655 3.8402609958484435 0.704173990923297 0.07364925005503445 -0.6987921577860933
Ni 1.0684063852071455 4.935655445029881 6.569891790904621 -0.6843240460769053 0.3515353652783946 -0.13000320336473095
Ni 7.06347869480582 4.40118758162239 5.297895979975982 -0.7053204458229144 -1.204840538645125 -0.03899772141943606
Ni 8.96681466938456 4.270588791604675 10.794970205608152 0.9974381312646241 0.112144063696123 1.3572971859173657
Ni 7.567634786143495 3.4107244264955043 1.3095428469750463 1.198368557767536 -0.9779689667964189 0.9406560892785736
Ni 8.68546496147183 6.622379261664851 10.479689700633081 -1.7083517549046 1.2767998025922462 1.090415135113993
Ni 7.855540900637501 7.686894521719653 7.8636342552204805 0.7524263981717816 0.7756306042023868 1.665081631362055
Ni 7.299871512831913 8.875089984110792 9.887825419554785 2.123981122449426 0.6529231631681207 -0.48051861201904333
Ni 6.750721384828105 5.741396952411452 7.350413421015971 -1.8984025583805304 -2.326221011792381 1.08487852156648
Ni 8.647695973417926 0.729838564165202 8.0368645467283 0.46762890054056877 -0.012933420232216436 -0.5369880078606817
Ni 1.7305848765264347 0.15995681852393748 7.231143470075452 0.48933672453130567 1.5903628023919254 -0.9216234981271547
Ni 4.301439191977202 1.5933368129786987 8.67037501097053 -1.087461708912624 -0.7561416422398397 1.0573620613137662
Ni 0.7976100773496065 5.47133986546591 12.612576056454502 0.29664616943968264 0.017733412724021073 0.03873855422077844
Ni 4.162417369708469 2.8976252479938487 12.683091787974274 2.1637799996139186 -0.8008878361072788 -0.9502023382061119
Ni 2.6328522904318006 2.7243540950285827 2.999527222180394 -0.3543576652185381 0.8235338556415689 -1.3653282837519582
Ni 3.577587759997482 7.816035300642098 1.4300572150287258 0.13750465394809866 2.1334957468080806 -0.28557834166129525
Ni 2.054913408317567 4.867407524398424 4.289015451574323 -0.32170105552578143 -0.24768799437342504 -0.13952451259160487
Ni 8.140215245315241 0.6545466854715642 4.256707040106526 1.6402483743684588 -0.5316735376263036 -1.427223221484542
Ni 7.2467423314558665 2.0231900586268523 9.473730766438884 -0.7442569749871117 -0.08620806055665152 1.3261403006985868
Ni 6.809441156518499 1.1533053497482784 5.994948796556846 0.056053905570774436 1.2836083408736474 -0.3061409963039953
Ni 6.5407399270246085 7.856627443937798 11.7172430176118 0.33111977773652 -1.1675176338249507 -0.13089049106569073
Ni 4.412183028353598 4.442439080254169 4.739114620718006 0.009551648244177098 0.002434577583421614 -0.17733875522590103
Ni 5.974920181721377 3.1718242008533424 7.894650887431259 -1.3690365858414808 0.6333598963242124 0.8516658379910945
P 9.623337563525379 1.0846952480167218 5.87425240928363 -0.5494941107474923 -0.12956740137889297 -0.010917161133136037
Ni 5.02568995183652 8.875675045887874 10.08232688567226 -1.6917812521404283 -0.010853140664420018 -0.2292472711697342
P 1.964572440580076 3.800635597489161 10.865023459723178 0.20850849596048607 0.5602449215060932 1.1577230163320318
Ni 1.3073530443236792 7.335458127590348 7.632597074128415 -0.48125754706759694 -2.0999886161895702 0.6515854181933036
P 3.0159470273876985 3.5390201161843855 0.7740339450721426 -0.7556898994144018 0.32608967151178037 1.2664110031587545
P 8.819471968508424 2.6773262721849718 2.9824824224080473 -0.16997100200692017 -0.030170095825477073 0.10527073361505741
P 5.81777073105795 1.2462930255249534 11.421289982009187 -0.08759105694710721 0.3044816063237014 0.24264014753687246
Ni -0.18161989165728915 7.320525122232425 0.496260543355519 2.9202574279266225 -1.4523418709290408 2.030666275644664
