# total energy = -340856.73535373685 ev
CRYSTAL
PRIMVEC
9.41586233990654 0.00000000000000 0.00000000000000

0.00000000000000 9.41586233990654 0.00000000000000

0.00000000000000 0.00000000000000 13.78106630440182

PRIMCOORD
 96 1
Ni 8.953675252993577 1.0939631259173306 12.75523077726391 -1.40906351985638 -1.877894668235166 1.4255041819109062
Ni 4.193646152915544 4.859818408397423 2.108090097248014 1.6443752520526391 -0.7780914070380535 -0.6685868378473067
Ni 2.9309790227371697 0.9938442624185488 1.5147316462730878 0.3357390216760863 -1.427073583280555 0.8761160006136589
Ni 7.014817389879856 1.5992182952340461 0.2180770196510757 0.0060752596598024405 0.18409021501712167 0.5124067189768917
Ni 1.327815481212708 3.2634907828797433 8.688590482554265 1.1953400553538573 0.6009642536023263 2.041175402706104
Ni 8.826062071671371 0.9349160299986506 4.4140620727540645 -0.49273135203515134 -0.21581762802738963 -0.005395974204590707
Ni 1.5729197919186981 0.03906358779247592 11.64676534028095 -0.18270516174413695 -0.2641818782633901 1.026089990673362
Ni 4.615872248750434 9.324443661532232 3.501878759029758 0.16219212939244973 0.4729456847677919 -0.29763938659088734
Ni 4.917095098575462 2.2842316911147837 0.9546733337962143 -0.10019229065088552 2.4080527976582076 0.4442789129607187
Ni 8.680643494799822 3.3276504683759063 9.909096206253892 -1.442283201141458 -0.2726310374720079 0.6117919403454496
Ni 4.281110097525738 6.107655555503233 9.531329928877438 0.5917393925699487 -1.3843799010667706 0.8425607903660327
Ni 6.242547198358828 0.6670375732243353 5.307612336635641 0.6544079752437633 0.07240252213212692 0.22220964759666248
Ni 7.422015769534547 6.221964123440336 7.929171059857004 -0.8069479262584296 -0.2259259201059851 0.9717199005629135
Ni 0.5494955981843002 0.10292290728228018 1.2765611765414704 0.1395103715242178 -0.17620644139367075 -0.43250248915108097
Ni 8.876634667914384 8.102584878424649 11.153182073832012 -0.4529746409625038 4.069574222472831 1.6568127064850433
Ni 6.035520634665824 3.6752181922854836 8.778015751274943 0.6891986005603873 1.2842824841225364 0.5994768704235224
Ni 7.261032772333505 4.006138671704715 6.22538961413354 -1.2346928461198672 -0.3321402485812344 1.8784520834005325
Ni 6.914764437416952 9.07691947422329 12.471010149936742 -0.3380486436458694 -0.28676927664560287 -0.24098435710100433
Ni 6.858918958303694 4.439287167770827 13.531504593421415 0.6891474356074776 -0.0222050753421295 0.9931086506513348
Ni 2.480495924235127 9.032919149843547 6.213841059061476 -3.3434337545807704 0.3124157735691136 0.4030294193926285
Ni 5.299605087362682 2.8558875211475168 5.928297503085613 -2.709258818554431 0.062472150392292404 -0.3521352036459226
Ni 8.9129516486832 2.5701255171670283 7.390041384443871 -2.7946572387255935 -0.014961249295522621 1.2625157818694064
Ni 0.9927991017067681 1.8972020884387817 6.0032392924652 2.2840636616980405 -0.5453541204371898 -2.3059419498283704
Ni 4.625749488269875 7.508613454816057 1.8862147187579081 0.538212367186086 -0.14500224787672447 -0.469030923094418
P 3.2102723293393396 1.1702033627037163 9.598705131338225 0.851164987095276 0.2944622744144864 0.49435834611561313
P 2.3642288569462186 5.166106992122795 10.458588979679513 1.0334541443479168 2.117391127936734 -2.124545736703644
P 1.8701879795910428 8.25579037339208 2.4761956999371963 1.5994963892620775 0.8403347292489916 -0.012237165496140215
P 9.029303458732521 8.128356093452972 13.407585254867065 -1.0084360250370246 -0.380674448736196 0.19865628575675462
P 4.254058325228925 7.509649199665569 11.26983895781883 0.36540980926764166 -0.18608976194565371 0.6300848251173665
P 2.1304329968244513 8.23578166607195 13.349264345563471 -0.06139074440265556 0.13225831794749482 0.12107401919590118
P 3.1904613551268466 3.0645147814261313 13.698531632612477 -0.1157387230259168 -0.7010794111583732 0.8216278968681074
P 5.996736697982716 1.647549916257205 11.943719038153535 -0.0053047000423650575 -0.4891876005479511 1.2454308013626614
Ni 3.7190490311443978 3.0732432857488408 8.500808999751428 -0.8230013801768665 1.1907033279127945 -0.23255859493115433
Ni 9.090487731751903 5.028192857479076 2.5145483901284162 0.4263099871871239 -2.7098185477126426 0.603112924514213
Ni 4.791779387646723 2.7613428481115654 10.599776068047689 0.7683088737299929 -0.07772933366167903 -1.9304798985310494
Ni 1.0737096061782279 6.547508145504371 12.145267453178846 0.7546491168547133 -0.2942992664740609 -0.24585402648847982
Ni 2.3282602630813316 0.3042161524401199 4.060411701819168 -1.6680229733785659 0.893257545389952 -1.4047067855495807
Ni 1.505690535323071 6.322280720046751 6.178671871903167 -0.005105953767997658 1.9574646546500092 -0.6507832340069825
Ni 1.1107045290303594 4.130917678484162 6.591359699260273 -0.7617409907044881 0.653018036874772 -0.759093525779312
Ni 3.3673100802499656 1.63481967047047 11.806446123730288 -1.0720811126914955 -0.37953956380080445 0.7625136072044545
Ni 5.130100734808834 9.031111304288036 10.000410296945592 -1.0024222147427766 0.24530072508817105 -0.027428785634914053
Ni 0.07036473873096935 2.9565807522446645 0.8240084715128563 -1.2949147670254022 0.5265105053681255 0.5830063835723249
Ni 0.6597026165173334 2.0125746488122016 11.224348102442013 0.30657731251046555 1.3157360746461277 -1.9053306529589316
Ni 1.7381775905895454 3.8348923846312317 11.75462969208163 -0.550613054843284 -0.4256412432548734 1.881471844063463
Ni 1.623680705407077 1.6480772045442296 13.583666587215319 0.48077495100422357 0.09256819844672445 -1.3445154607716652
Ni 2.072883246640632 5.692190048776979 8.268887837807277 0.46222778412965554 -0.1599465278913826 1.6554669910904263
Ni 6.74903584563269 8.97967244871634 7.8965234406141445 -0.24978524322208598 0.7178730856769443 -0.35177936296840057
Ni 8.018811951823627 6.153633210959318 11.557311823973466 1.2875033050526794 -1.6029954035542717 1.16908369276049
Ni 7.656028194488485 8.328320760444756 3.67140006013569 -0.8153832015099765 0.06463907613662415 -0.08504103683174387
Ni 6.810700327627755 1.2041852096299932 10.056347109922852 1.8856321460887395 0.5104233699982758 -1.2143088831468765
Ni 5.397228747360367 5.483882927815486 5.339846599524923 1.8872941071721945 0.0492844480574248 -0.17684330364672124
Ni 7.077423458101751 6.242613109394707 2.3533648350610603 -0.8914845126499291 1.68866970309464 -0.5106650536954367
Ni 4.503748160859575 1.0992265929253076 7.678686525450911 -0.03571082313804818 -0.6408243230220577 0.2744608915918951
Ni 0.9968667542066716 7.176544240200093 4.115481313881519 0.20437004831208025 0.5434455905605673 0.7581555873460749
Ni 0.2259637458869997 7.175668565009142 9.430341981291292 0.7555171212819632 -1.6905550930428113 -2.763848737985169
Ni 8.51751368100161 5.7936365488555905 5.940962779422697 1.496272767984036 1.2199241724511247 -1.2460699776085573
P 1.371881716628329 8.168703063272616 7.7227988985916465 -0.4183753057210794 -2.045926287127528 1.5129628270452071
P 6.791576711360848 5.479316234615363 10.038308200989253 -0.9208987041459881 0.7716950165934064 -2.016598227587372
P 3.6667533321062864 1.3406116380353212 5.369805990090184 1.4587675719497264 -0.20891190204649182 0.5182019855024301
P 4.006901356548447 4.1148918809035235 4.148900092244152 -0.9746303893414893 1.5076900086820422 0.31662441233382244
P 9.066138311926093 4.7083171845005545 8.360435441883231 0.4250943696124679 1.2158325188802546 -1.3174545999991312
P 9.22300657731589 0.6686928818111016 9.796436355799969 -1.0601830757023292 -0.44324430104861734 -0.15540544548791946
P 6.470608798359204 2.1282955960895484 7.490822183060113 1.8582694378050704 -1.903410810228399 -0.03383211805809657
P 5.006828265992315 0.25654364177574174 1.1524026750855043 0.6336545447464957 -1.7978883656138522 0.5446648076796491
Ni 4.5086820726881625 8.72654582335776 6.215908782415595 4.072879889807295 -1.6915596230479253 -1.969330809959976
Ni 8.91282924247371 3.629739577529618 4.7987603079324375 2.842682874675253 -1.330042721076787 -0.8227463267432669
Ni 2.6868822092938878 3.0701360512003038 2.583439546414397 -1.1208834789061792 -0.37149612467103765 -0.6590321042793359
Ni 3.296201488399801 4.739059974806539 6.080082144436757 -0.13343125520967342 -0.3012741551299973 1.1383854923456846
Ni 4.004989936507983 4.219963487955429 12.166972898879719 0.8728553275845161 1.3509499035430992 -0.3804682462626609
Ni 3.711779985473274 7.954576939429318 8.172544735078082 -1.186489289831447 1.3462183023953846 0.8767451495572255
Ni 4.823595586251291 2.338382315019749 3.5007902853515436 -2.357949196133597 -1.6394875849430346 -1.1844084960430183
Ni 0.27648361330131027 6.965619509528014 1.9809175782799666 -1.7430745030977657 2.988003425123344 -1.2420045492899319
Ni 2.335736457722358 7.9620437182080765 10.308141390770466 0.785148570995151 -1.7808404089926297 -1.5589752892195796
Ni 6.83762027785281 7.573968954820293 5.69950429058699 -0.3265586407283989 0.06482445267455288 1.9289876302562392
Ni 1.7178487439522963 4.9256729491018785 3.616923647396242 0.16787632426142057 -0.985947099905889 2.272915872611337
Ni 3.500732848591707 6.582459826244282 4.48737680113369 -0.5280989329011679 0.6557151240909611 -0.7273496577088119
Ni 9.145758843266796 5.674130424946389 0.24431055351677272 -0.8744080167836167 -0.7286447223711516 -1.670957887637174
Ni 7.035315722037935 3.835043038427525 2.02013935255855 -0.36719929706789667 -0.8040369232592216 -1.2041838788977326
Ni 2.0283368022493278 4.767740691275765 0.33816504384845786 -1.1637573954515699 -1.263853012623591 -0.3086735329178619
Ni 2.460524880364073 6.217839975766822 1.939781559202239 0.1603645892654077 2.3960298050554023 0.30221723576955695
Ni 6.769148127437769 2.780579454725692 4.031858099490563 3.0868700549842707 -0.7724915443527728 1.2058880060730328
Ni 7.714886749527598 8.715708165886953 1.5320408258808949 -0.5890315067204824 0.5755841229663248 -2.2239029330477442
Ni 9.19721653056303 0.14814635217067476 7.055244394528781 -1.6412755300813926 -1.5073367391076815 -0.7772689111367581
Ni 5.747272843046505 6.033260827721432 11.903933253725079 -1.7887612065016034 0.9872061691239709 0.8057935009390123
Ni 6.692352354777554 3.8879319367885383 11.401296635705176 0.7792710291684515 -1.8741076903889076 -0.7920689522640681
Ni 4.171584787620929 9.043427252134965 12.942447308330648 0.18116918471558474 -0.22721584256200222 0.08050226842112587
Ni 1.4762565498723805 1.008533007557089 8.227007024024127 1.3172841358595377 -0.23165948015565263 1.2857061039429405
Ni 3.3824413709151155 6.378606408135693 13.28150215116346 1.6372296421467933 1.3955017220115449 0.07279358692295851
P 8.953948312999357 8.21662980221824 5.319850132825744 -0.16047051871565265 -0.40537735079951476 1.0479495097506146
P 9.106617103817493 3.870710324699827 12.500639985322612 -1.1236546138934131 0.15965984988889922 0.45464817201018476
P 7.6869875496266395 1.447519338229544 2.3797010018254814 0.3267332186330502 0.2593039813457986 0.2212197728795674
P 5.534502603369841 7.444726829325674 3.952492738017331 0.2658291840588261 -0.3514772583469495 0.2436300222539675
P 4.635287756747657 6.317007837176506 7.319937465097732 0.3871731690866622 -0.8483321456321713 -1.0493178508530512
P 7.478520359006586 4.879893026753429 3.951059643780096 -1.0802973299537009 0.3002513702924377 1.0629794075005436
P 0.7040814585602619 2.283120619367125 3.399292939616683 1.0944723359025021 1.0203170927453267 -0.3238245296266875
P 5.652502189316115 5.945392001033702 0.6628126758245513 -0.6210363417618531 -0.29367037464081036 -0.6824576822921279
