# total energy = -381171.49265007407 ev
CRYSTAL
PRIMVEC
9.16880895495428 0.00000000000000 0.00000000000000
0.00000000000000 9.16880895495428 0.00000000000000
0.00000000000000 0.00000000000000 13.41947870298556
PRIMCOORD
 96 1
Ni -0.07064200589283358 2.4580751761046193 6.2491292267142535 0.3984042619157913 -1.9254289663707034 0.3988873721997969
Ni 2.136158291789095 1.9453462074971448 8.011133178619302 0.4902247835632138 -0.48050164273817886 0.24259515323154993
Ni 8.379704630697603 9.008180644238122 1.6271252700932581 -0.9412281597319596 -0.1929468940768032 0.207938482389629
Ni 5.920153276342492 8.881467703729989 0.11045389149199158 -0.9210406290404911 -0.6589495718678586 0.06318100353385893
Ni -0.12634802190956382 1.9523145023441912 11.533183541705919 0.18113756014670096 -1.8642097145489056 -0.16536075692841842
Ni 4.056262768083715 5.112802967840095 2.139493904506668 0.5566289220200606 3.4481786975993454 0.6532149833769266
Ni 9.176052368388875 1.3122124389799164 8.615345772878586 -1.1920585563891084 0.10610608503215921 0.943378373305743
Ni 5.73476912698403 8.212199658907222 2.9602160040681866 1.3170671347527252 0.43342757206851157 -1.0323681103725897
Ni 4.08753757561434 3.051544676847739 1.9875456509623173 -1.2568161603814678 -3.0154093279401226 -0.30144179105611313
Ni 8.426227167610648 3.530174844749732 4.137117910331977 -0.6728749236996991 -0.1355894392032568 -0.47629763195916036
Ni 4.190521638406478 -0.027169014856273457 10.80380753566107 1.0136880174645833 0.7876445979441273 3.1231089827116474
Ni 6.643929890725379 5.623368097521381 2.7639163875841875 -0.7069685229492986 1.569827144332419 0.2691929583247364
Ni 5.131709052017212 9.09279958258469 5.225826876497385 0.6970993434647027 0.20529333145729803 1.854619499757309
Ni 1.40417559334291 7.904641129500217 4.776381944552804 -1.0825020509145036 -0.8727262582058195 -0.42352291136028997
Ni 7.663547296601421 8.043988688823125 7.883192534584828 1.2130426148399431 1.2691065477130463 -0.35450730342252496
Ni 5.618902887533866 3.5240409115225297 8.317929779997636 0.8776360368026112 -0.5438505393084698 -3.4828754776505826
Ni 4.507368171339875 4.887937926887711 11.938410975322387 1.6937193497034055 -0.4475280160256357 0.49804505093858087
Ni 3.3884892391294588 2.6962074836934202 11.517602984556463 0.9045989385447002 -0.610675053132187 -0.3290546676773752
Ni 8.495772583945971 4.005201670711082 10.89989115279283 -0.14475362220102814 0.049387035073560105 1.3755723300774696
Ni 1.812728553987041 4.824737326386801 10.281829989405944 -0.35474255936178256 -0.009548562920383554 -0.7559464955098981
Ni 3.4386426244101744 7.794074461657411 12.78016173834667 1.3422523757691012 -1.9977438138850305 0.13733213292597637
Ni 8.146826050671116 6.806795445157069 5.833138528201801 0.9671968158815795 1.2354608346341431 0.773615630654887
Ni 0.7126181738186034 7.93669528579663 13.410017657643083 1.038585037816579 1.1662480230839076 0.11143521055455648
Ni 4.452043577777931 5.6029124846216956 8.24024429502388 0.9454020886039911 1.5880364682515942 1.320897307132093
P 3.793072105472575 7.4820415534538816 2.0692030639988896 0.09659146067350462 -0.051800272500743046 -0.5945732624743179
Ni 2.799567467654938 9.26333943015714 6.096200827486812 1.1687175676703225 -0.298138437714493 2.14946666831504
P 1.7731926495390622 2.618786060419131 10.05007550536399 -1.1070275468596935 1.0654168132974426 -0.10004753754290512
Ni 8.69846744471394 1.1667767904748512 4.249935520786559 1.4483108953927766 -0.5651217899824204 -1.1587275463371465
P 1.3028969290264967 6.0935262858988075 6.172235926838899 0.7719870939125286 0.8600306650160221 0.04660792966652619
P 3.419351450254667 3.9997829045866027 0.1448176707778404 -0.43934650865610786 -0.9053990658484925 0.6856453359914901
P 7.704871118806208 2.979835421586226 7.814685944310253 1.4093594538302439 1.919533941042507 -0.8381338649429306
Ni 5.818489522047689 4.2489911334586035 0.6442720377016915 0.693332934443735 -1.4403214494293968 0.5202814937392782
Ni 0.303780980095185 6.411729802565576 8.309931827898849 1.3929265050852009 0.08899719326601446 -1.055292323268931
Ni 3.311847164620958 8.488070784378184 8.984032751950403 -2.327301132230437 -2.059572417156053 -2.0608062895631543
Ni 5.232015822578643 8.41335415976163 7.530850791333838 -0.5358284403349417 0.6358271269177823 0.9479585364772578
Ni 8.999103523318944 4.626012559919849 6.180260468483813 -0.5134480157572126 -0.13521045859728326 1.2380105976391904
Ni 5.955618229590354 6.74283383350839 6.207192928067648 -0.9413114634743853 0.307000001870181 1.7481233783755827
Ni 2.320066262897064 2.8237272793943684 5.875128005940661 0.006796968317175391 0.5955145433416648 -0.7586086157230935
Ni 0.07899295713847812 5.789846162702725 4.209502906817472 -0.34022174003778827 -0.8835786275392912 -1.4150032823795824
Ni 6.3258639061937485 9.31871903657314 9.758081029250226 0.41777855267734504 -1.9656353633862602 0.26386049036822945
Ni 6.439777189324938 2.935366697891259 6.059565934209367 -0.08960963003903277 0.06913207891097126 -1.4348617118664062
Ni 1.5037305215655807 3.1855743269452703 3.466371853496914 0.7911184154253408 -0.9335297626464374 0.676077489797397
Ni 1.96881835856088 0.5931816001402286 10.569933222976173 -1.0718545985029864 -0.2703900639566311 -1.1562204636445765
Ni 2.206354693564078 4.4525203558464135 7.564626849962192 -0.5844991660677675 1.4012069999264385 0.061576378050900396
Ni 9.159071734103703 2.2675840001279934 1.9133626510301027 -2.4360186867435143 -0.10233196270170765 0.08824720247386736
Ni 0.19889255567182126 3.918730632944642 8.805110779181677 -0.16032936515209809 -0.4940331015657104 -1.0165396279807652
Ni 6.355607522619826 1.5876893056634802 1.9105845019002936 -0.08493767848466018 -1.1874832783136 -0.19217119225304322
Ni 8.326809771523115 3.939497985350642 13.527371077914552 -0.2534256681881506 -0.0730380988335968 -0.6319324198490666
Ni 4.284859514302874 1.8939275265731499 6.718072547897951 1.2269340281100547 -0.011278144016980577 -0.19139163377454138
Ni 6.6660083828197045 5.020959007994222 5.013034406367508 0.2538043916838081 -0.06365434362585166 -0.012971986779635724
Ni 2.4245723479847405 0.4904936898790899 12.76302431742744 -0.1831165382499427 1.7950850918371017 0.44137536616067863
Ni 4.225601501675952 4.35375394519854 6.265446956108055 1.0022828609514352 -0.05298837927157326 -1.076158625194979
Ni 8.23161002757985 6.024448478822955 10.188685892442557 -0.5072673408677973 2.0883983402488098 0.18660064014380123
Ni 3.3171559050373265 6.806382848751652 6.73452505878419 -0.7735413257735259 0.6514599483590329 -1.2876562856907758
Ni 0.5610724309897596 6.969413441745509 2.23486693894021 -1.058541426333848 0.6711407146174119 1.0814363286541502
Ni 4.282686506567676 1.3800157816034797 8.927738098395277 1.2260061169791465 0.20435076503837066 0.2545515542624777
P 8.14122390836645 7.635261520807819 3.5465264987368674 -1.0677462327615674 0.1197172480576906 0.12404698578129604
Ni 7.3691093328866835 8.99887430309371 5.512332903538201 -0.6382635042734169 -1.0016413707126945 0.5518680102963077
P 0.8937250737742398 8.54110317568781 8.438221803556576 1.0907696902399344 -0.6698849878334399 1.5268079604584157
Ni 2.2677948827352066 6.326734943049629 1.0193166689405386 1.44452648864968 0.31739471484094367 -0.37260041347880996
P 0.5314342558672892 1.0034344579746783 0.18515034472872505 -1.055854109309672 0.25853547861089027 -0.5128813446204651
P 6.574494500098165 1.1655665076856274 3.9935829559345333 -1.4473194780137848 0.9199813345380414 0.06020289474214147
P 1.667567969752254 1.1770275189472166 4.799811919095096 -1.0740968575699439 -0.48590944401731156 -1.6529699357001852
Ni 3.749813664566832 3.6254387703560633 9.189498426800972 -2.8756102215308927 0.08210123747712957 1.939848227119827
Ni 1.3998112402544969 3.3862795561582244 12.594825266795057 -0.5422849945935628 -0.127947863497599 0.7630031452463634
Ni 6.904351573015718 5.532972809498973 12.250333857817806 1.863729175368061 0.020507118814416296 -0.4179104502695189
Ni 4.899298081250198 2.052969687647974 13.409186046665942 -0.26083198795455076 0.06258425049012448 -1.4593625252212479
Ni 5.44012028066208 7.0383353790682035 11.082463228428148 0.9350683107781508 1.4240453379771927 0.052547177969096595
Ni 6.396271190575945 3.3096741568857606 11.832142645143128 0.12185794854977722 -1.5801120711981946 0.023052510944089333
Ni 7.2380595457171655 5.276071949868193 7.75640532672372 0.09041798487294106 -0.10652157530302299 -0.11508951947769211
Ni 7.930066236882927 6.495624405000411 0.9379343201742444 -0.3354418021506416 -0.05592303641986498 -0.7180245236531441
Ni 9.441397701117193 5.959670843172452 12.544207022897572 -1.7533468315580514 -1.3933900749851809 -1.1874591099438838
Ni 6.786706584617756 1.177311752026504 7.587481023298703 -1.0024391840236413 -2.343520936523409 -1.002744631079202
Ni 1.702822040392903 -0.28746600134408723 2.1941381724401245 0.7298009474627818 0.9958211644864915 0.027901097285642273
Ni 2.393004138565819 5.434618995256516 12.351033053404832 0.29481322999600196 1.6902581306276827 0.32173293720498136
Ni 5.886384552761345 4.8470542075153675 10.116770338978334 0.9873290678550803 0.6427482795176479 -0.7300639713161813
Ni 6.9088993022843175 2.3257875997188493 9.59885915951882 0.8438532839252113 -0.0803703708289519 3.5672261732835207
Ni 7.836113450964921 8.078885175912413 12.363218400578155 -1.2515991349569024 -0.7614440282893595 0.6844806262594276
Ni 2.253729929714984 5.855531510445146 3.5769082642699894 1.3266491220142056 0.20156420343216902 0.18031686401761848
Ni 0.8195053986059885 4.711924300336724 1.820030593482025 -1.1077497697376988 -0.905828182966111 -0.49612417976678425
Ni 8.841335826696408 8.654301291716276 10.528627738389405 0.044233515897078655 0.9398343647082266 -1.8010091706310207
Ni 7.359298707246764 1.5506014732209767 13.280976756527497 2.059556990537085 0.27451848430270787 -0.10922277628426998
Ni 3.4948749300640367 8.560559388405485 3.9397574626456042 -2.996178247624653 -0.2448032166264623 -1.9430711049324987
Ni 4.643845893442883 6.7980117261261865 4.485380450454741 -0.45842357989221694 -2.6665260555725947 -0.6032484216508127
Ni 2.102756320568319 2.003458118997908 1.3381610853570558 0.966194085648678 0.61961863547872 -0.638363777296707
Ni 5.577524052475024 6.413462707468328 0.3137108002522261 -1.4904019110255555 2.5766390035024593 1.226480485512404
Ni 3.935812124128915 0.5245695685620476 1.373362893786352 0.303685078564335 -1.490284154500769 0.9487247252193209
Ni 1.4772968451918507 7.260431439699788 10.727866875041778 1.0434161406566353 -0.41087539779960847 -0.050408277249222866
P 6.010126799150473 1.0620231475439237 11.707126851182611 -0.43974657230800396 -0.28890380649010244 -0.5324842064530572
Ni 4.300180594157366 1.4411625688863114 3.675004434979285 0.14465694872216378 1.5260196602291654 0.1516953436261839
P 3.2220111739481156 4.052751114233164 4.3138522052710915 1.8276082612757878 0.6160244903695584 -0.4745055730557441
Ni 0.25280056824183333 -0.06715694158840947 6.493927258452795 0.854987960385792 0.704638075043909 -0.1022553438275013
P 7.644338641726997 3.925222149723206 2.116372918827988 0.7533404253456187 -0.4690738605172115 -0.42027972183264395
P 3.629903980343579 6.174496038259685 10.466697017936282 -1.6547378262338857 0.42312413325997456 -1.0939342040108448
P 6.428206152355238 6.883804272025941 8.972652426208096 -1.832002790799058 -0.5299339292273777 1.508315558081183
Ni 5.862637337427331 3.3267098040249876 3.249888937740806 0.695562337994886 1.2340210168638233 2.715400155565478
