# total energy = -340870.0366626672 ev
CRYSTAL
PRIMVEC
9.24391782368031 0.00000000000000 0.00000000000000
0.00000000000000 9.24391782368031 0.00000000000000
0.00000000000000 0.00000000000000 13.52940812449240
PRIMCOORD
 96 1
Ni 8.020707112667349 3.3452444284082916 0.5431125230721459 -1.4306962676348067 -1.053972833126559 1.6930063827967812
Ni 5.39127470118766 1.5666499408161931 5.792629896376089 -1.9858694310449474 0.6402663936360586 0.43741329618913705
Ni 7.729930435094823 6.0402531925933305 11.617337111827851 0.06412279862183795 0.8588199325373725 -0.8165533105586776
Ni 3.6919375646098938 2.5832590421868744 11.36901867299383 -1.2345851168974091 0.3209068417592602 -0.8495624184948465
Ni 3.2684459595224657 2.2079467365497263 0.8803380386872213 1.1228208051382083 -0.39584832826315697 -0.8584862033470375
Ni 4.604413932230114 7.542935222397256 2.7176656066548466 -1.7249363987361586 -1.0738101795674604 -0.7813567080528866
Ni 3.4728752011462074 7.735217956062889 10.53629697916431 -0.7787694069416846 -0.4354332896446308 0.18048218595088916
Ni 0.891214432342862 2.9776785258677156 4.174079054812862 -0.8639832219058668 0.4717575779969617 -0.8678717583269957
Ni 6.149007885231962 2.2244748615338206 3.8290932702245493 2.0850407366304866 -1.123148363680956 -2.8470411516439484
Ni 7.830837041541342 0.0025651871829341314 3.042939660976893 -2.022361098213078 1.8654934663573355 -1.1969778480675966
Ni 7.919892945398593 8.334316267147432 9.890417048997268 -0.49635635038224835 -0.6906433034267139 0.3406493144935101
Ni 6.599463998472972 5.6112522125112045 9.178742609665354 0.8753387561280023 1.095913696334719 -0.040913450384910184
Ni 7.243127237157247 1.538964407076057 11.069829105853056 0.3113595643904573 -1.0252137587159957 -0.06917707321629377
Ni 2.0653315730963646 0.4167758988229179 10.860488570714747 0.7630890200919503 0.1306547209058008 -0.010870367055600634
Ni 4.5090536764493985 3.598768117342171 4.234785711633637 -0.9377119190485851 0.03923811956501629 -0.7383886891317928
Ni 6.536087698198389 5.351914099296008 13.561743450141257 -0.5811999264912056 0.7377695674905552 -1.3424169263714236
Ni 9.201414242403605 6.415916767105981 8.569053541984458 -0.04227227840564978 1.3258232836788004 -0.5573699139511434
Ni 5.100433316190699 0.35821567970980894 10.437694881419432 -0.17145195742782085 0.6832336412262039 1.246985290333975
Ni 6.394332219098228 5.045931176981404 2.207025117947425 -1.1311745764195422 0.15528486074965514 -0.2336322876113073
Ni 1.2496944881010743 6.9219565579361175 2.9079978736696708 0.5701336413747149 -0.3995987964445247 -1.0292799583655692
Ni 2.502217615041708 8.511198633797683 1.974265117122759 0.31346889742397627 0.9083458071816419 0.5297197563340426
Ni 9.203521855656609 4.737433909031634 2.318426344245422 0.012821834355016626 -1.3135786619834926 0.6134199628671758
Ni 0.26014695602062626 5.680396717478222 4.559234284098256 -1.8236053107639818 -1.0001100216698324 2.041717648362819
Ni 4.977932917818652 4.928089713168631 10.698731102330141 -1.442767339866728 -0.44562925634102607 -0.7390245229435788
P 8.32515554463108 6.548696402045317 2.921959887079054 -2.441574583564737 0.172825954957212 -0.7847433651369323
P 3.471174320275361 0.3354848858977908 6.515316614954955 0.11830956907688656 0.17378831887048135 -0.04991822498668177
P 7.979201921851585 1.008243355783094 8.982769704023408 0.05926598475016891 0.62037042604308 0.22487228203049012
P 0.7313584378448504 9.336726710813657 3.025838413090665 0.1540237346490444 0.14011869453217804 -0.4378295577909492
P 0.7643952755857092 3.1330318080168724 6.394349782542003 0.08543852938047865 -0.08540639059096258 -0.7226756492719103
P 5.6374587194071255 0.13082362193786307 2.914302225593134 0.35729797879378467 1.2792819455841515 -0.7789110747258715
P 5.66133575902341 3.2689266432468354 1.108536166089264 -0.18373745966339325 -0.007668572288851309 -0.5661672005277991
P 8.254495037148743 1.5836679934424336 13.056920158890486 -0.9093148559631307 -1.9100272871036523 -0.8757735296725757
Ni 4.591028739289975 5.845243503183679 4.658648922215673 0.2651784378487046 2.0216077649868214 -1.004194476151851
Ni 5.436292580758432 2.0312492482550017 12.827326199904217 -0.46092012106182556 -0.7373368508285107 0.3236412099712878
Ni 3.67361611957719 5.174393902319189 2.4563853463148413 0.5123087599464468 -0.12242667656905368 -0.3924971524027369
Ni 6.708791814013735 3.756229012744333 11.874396599311181 0.3428694620732805 -0.013789854695240767 -0.31521776179428296
Ni 2.4325369628436633 6.1434060710595 0.6861603018774398 -0.29941550465470373 0.9677053800868817 -0.6499368268462871
Ni 1.4948339436118139 5.573444588805977 6.670809480262535 0.17074644672036401 -0.7168029925412172 0.2477800398665991
Ni 0.7097322922071048 1.8205618742966787 1.7534251482706822 -0.2699455202200448 0.8960425643342568 0.244192836735973
Ni 8.461457112243203 8.665017425595968 7.37374379533692 -0.31468400077799996 -0.48179490762830574 0.3801643418689969
Ni 9.174440490332247 3.4698801717866736 11.44823350198639 -0.5231919825178538 -1.8381158456753313 1.152562298066699
Ni 3.5319623235725675 1.1876955315751672 3.071215881062937 1.8990738734159425 0.4343305434987553 -1.1950860303615223
Ni 2.580661501291723 8.676674005911932 8.43646525614309 -0.4822363660410985 1.254185664737156 0.3452369338641925
Ni 4.636776888365078 8.71400094589279 4.700874214226213 -1.6059830254276857 -0.18703078570268433 -0.08966593719826492
Ni 0.2278357658252102 0.8971065055335007 5.4027251421372116 0.3327575704502592 0.5705599302788561 0.25332282406169926
Ni 7.488044838641354 3.2329030956724414 9.290251989801334 0.5684048316090663 0.6816554981058067 0.7900282676849555
Ni 6.051937504662623 6.421287483334033 6.758156183722941 0.647141266379021 -0.8252477530088819 -0.2778976851875859
Ni 4.961866988723375 7.73660454372934 8.74204052168376 1.3080536184002052 -0.1617622409438827 0.5244528515081484
Ni 1.2839062277913056 6.718285317570035 11.546957619445916 0.3263611800056121 -0.9562076638599273 -0.9864422943747526
Ni 2.259259724126185 9.264716591335976 4.499461262972892 -0.5127967553264587 -1.1604036484879887 0.992137030766685
Ni 6.885230472610722 2.1183916611325517 7.380062013137048 0.11273130365816068 0.012058988047063103 1.5467450657019748
Ni 2.2334137300235404 8.390500799392022 13.326737177296941 0.33353301516370304 0.5181801311255592 -1.6204773623891189
Ni 6.730431825528146 7.612181410459813 1.3397468862946156 0.27541399953378376 -0.7685896381952054 0.7355350217330816
Ni 1.6726869216285802 3.9510076042095768 0.6682825648979999 0.14981149633990976 -0.97297665578815 -0.04143924098139315
Ni 1.3129136417734582 7.961213257858829 6.395716033589346 0.0812885117678471 -0.03375807028705154 -0.35632250225439277
Ni 7.5415671225663585 4.534797987456503 7.103804757215817 0.04153077225393492 0.5761824186719562 0.0035720336219744932
P 3.6735236803994264 5.419006454516677 8.586276809585334 0.8642686143567695 0.7133068064625006 -0.26707591198173364
P 0.9608497893438029 8.11072438397334 9.789622293955842 -0.526797440480925 -0.6020088928167567 0.24623172154287268
P 8.2397047687066 2.758366576624068 3.0878299744823514 -0.16648484323053264 0.43717932580145996 -0.5423747260938917
P 2.6555095035267415 3.269194716862349 2.7797255730380774 -0.5731590584646 -0.7362875836283901 0.0863597556431674
P 2.766002052707324 7.163121128803031 4.47774730011627 0.9260409104685601 -1.4607128686015554 0.7739303336818283
P 8.407583559442697 6.501607884892645 6.32463307906463 0.1397723669363528 0.49373948158469155 0.6414174765213663
P 2.068206431524806 2.1638440048388117 9.700247474935306 -0.026681623056244372 0.5601055677147515 -0.4908799006487094
P 0.42283898449241875 7.253203107533456 13.411052800118487 -0.8497421386058205 -1.329817492439858 0.12275192111895632
Ni 9.188805538556677 8.990384843487556 11.929433961359727 0.05256543280154173 -1.06985068069908 -0.9269703642613649
Ni 4.937084045165009 3.50423057024355 8.079139765715144 0.9151479177051401 0.5983977784267308 0.674951860833386
Ni 6.993430530182772 8.381719077504501 12.589060521651962 -0.8727224015510776 -0.13084446831910368 -0.913862109014181
Ni 3.669410136988955 7.240289354399911 7.020652943642314 -0.7848199840111387 -0.8735125015525408 -2.056731091052516
Ni 2.2942756846629577 4.872672426099477 4.321888375664749 1.483770264641651 0.249663372932241 0.8101175822356629
Ni 4.586295853388489 9.13867577245559 0.746199547834763 -1.399244219773113 -0.6503379189394477 -0.3510615109657696
Ni 6.41008385498911 7.142155923286294 4.0837974074584675 2.0135216455445777 0.6846521188402853 0.03490452518666892
Ni 0.3418548696374662 4.085580559197523 8.414195733828112 0.28467691289294844 -1.2739060259842188 -1.2229763290138873
Ni 4.606549277236448 1.1216754708165526 8.294082115025915 -0.30538509197457725 -0.08521407207449841 -0.6532059845158622
Ni 8.871776134499347 7.973276570556952 4.412928024276803 0.638197684032488 -0.6407268782122449 2.9682794643318555
Ni 4.135756544887492 4.386599497666233 13.120644030473459 -0.4980944161192777 -1.2025800247457226 0.7471903465838228
Ni 6.598317752668706 0.7573421663223623 0.8998815296499577 2.3484777663080525 1.655364404074291 0.6985792704443388
Ni 7.151011596516027 4.785714891577455 4.165271449955566 0.17121001662034385 -0.2137831140958641 2.3145718575892267
Ni 2.860595063312603 2.1715349444287257 5.056183606187141 -0.0691773303266099 0.3048405323250169 2.4698040107240757
Ni 2.4755951318458513 3.1623812469567496 7.850615328015596 0.8234338397285949 0.3302954820630118 -0.5063312022067732
Ni 8.95034943559823 -0.3012934828266674 0.8236894617702594 -0.1698697005423655 0.7303707039233228 0.8924540756520501
Ni -0.22729776981062724 5.184284894339872 13.56363752889363 0.8663326959746499 2.5910096704018346 -1.7062758462121774
Ni 5.693365934118425 8.635335205616142 6.605855243223533 1.6928698572189165 0.4433900825978622 1.5469823785237615
Ni 3.923987632549337 4.906311042887577 6.517697848174141 -1.4089709601425735 -0.9265399615921656 0.25394323125451745
Ni 0.657815676799851 1.4395275835559764 8.10611813974539 0.3951435888866485 0.1517025427150355 -0.4346123364052321
Ni 7.952505487313518 2.9291109818708296 5.346470356117521 0.8275473476763361 -1.0126102110193722 0.29866782785540175
Ni 4.319544118116668 6.501413762619341 12.321502716750047 0.6077167418348115 1.6961919796136145 0.4473981753159908
Ni 1.0478258117013786 1.5881790253172872 12.767783352331483 2.205755829825072 1.5219352057471467 0.7839715199679144
Ni 2.1840881847689944 4.751068687751735 9.908424200825577 -0.40259695984090016 -0.3951451315485453 1.1765362923837932
P 5.755087573111043 3.907875483865178 5.906263528817071 1.147520107657101 0.12349137038814216 0.3088743360747584
P 3.4239286565204914 0.7656450532690702 12.61154635164291 0.5386016322047047 0.5344125338240215 0.0785212334353551
P 1.8526382689805758 4.159938633790396 12.037304011067164 1.4178605493227194 0.329689987268529 1.1949420485844904
P 4.744283652103903 6.337454393020413 0.9624415919848887 0.3445234527369357 0.09662642767649811 -1.0201252884494947
P 9.001496032654716 5.010905972526855 10.163129262451271 -1.3648174055538107 1.7508775440819524 0.013567197161473409
P 5.817114261390279 7.538109897318008 10.731188346426423 0.4067243517457124 -1.1774030112594625 1.1095130322857087
P 5.532383106043478 2.785377304366531 10.053310594876585 -0.437081366771015 -0.6804041421972088 1.1010263349709362
P 7.457650836992751 0.7026006096426591 5.950856188170132 -0.844230721869288 -1.1516274449572554 -1.4265238814246723
