# total energy = -381171.18867850775 ev
CRYSTAL
PRIMVEC
9.29177513527118 0.00000000000000 0.00000000000000
0.00000000000000 9.29177513527118 0.00000000000000
0.00000000000000 0.00000000000000 13.59945213749104
PRIMCOORD
 96 1
Ni 1.863623431517342 5.826045119182718 10.285972597652963 -0.2550274654576318 1.1279504130552895 0.37026533758773006
Ni 6.139540315082161 0.4296460998035718 6.497912925758424 -0.7890941859064604 -0.550733125360916 -1.3317355353981772
Ni 1.3195249642751687 7.398074068417944 1.739601465031441 -1.0520542759476075 -0.23155689313951733 -0.6754869074012495
Ni 6.361084105823749 2.014995737643719 8.004773082025265 -0.7030648170195183 1.9359807737446209 0.4311099796789285
Ni 0.6957328014228603 2.124471430405426 11.436268322653781 -0.4095224833161399 -1.3575962052150232 -0.1897895793947441
Ni 5.4278275190563825 6.586326023005597 5.836327397370641 0.4583788426972105 -0.004774538570507906 0.013747174382763423
Ni 3.8329686787062767 0.3891423235077343 13.328197288279084 0.2922768367273934 -0.2576546186678337 -1.4465172938274635
Ni 4.431368278905453 8.254785012936885 7.3293019251140485 1.6717366747847273 0.5385815776000467 1.9709570327094896
Ni 6.984692291531542 6.1961829753329996 7.870614718218557 -0.8863659604764412 1.6367599015992262 -0.9152373920951529
Ni 4.182729672335218 6.4314228423885185 3.6529219550054113 2.4560668636436414 0.7593421514550084 -0.24928542076753196
Ni 3.465850649423044 5.107001112701245 6.047213522215294 -0.5463820474810719 -0.8095712228138896 -0.6629700058811614
Ni 3.5326585114971123 7.620035989033431 1.1736301594968674 1.270934859171037 0.9022155259141881 0.13336312097589934
Ni 5.06675843528222 0.5343328117428903 1.6461866053149392 -1.3183837966816196 1.645695513525959 1.7928448896526739
Ni 6.180442708524449 4.600989631083774 9.18443081594876 -0.6973813934814957 -2.274775294417579 0.6180613182939291
Ni 0.08684836234129391 9.032655246788446 9.614975430392466 -0.023441261742075756 -1.2246020375427684 0.6640701809238757
Ni 5.425866954536545 8.444513766162254 11.546138915851948 -0.18562413516314483 0.6540320799615833 1.1759454528773297
Ni 2.921519887806482 2.719284405464048 12.638310871670827 -0.22073794814714243 -0.5620866027005222 -0.2723698133908213
Ni 8.836059871856158 8.524952662125427 0.06118726739136972 -0.2043458799423642 -0.1566398321156528 0.6649561830732548
Ni 5.247139662882205 4.364560416831385 4.625363815199587 -0.9671351094057087 -0.23712924502097224 -1.1699550396218494
Ni 7.237623698140473 1.433553626774886 1.3560472149939913 1.8670546401968684 -1.3022015304948025 -0.05008611802311374
Ni 5.879621493691631 4.278081867134118 6.815963878928371 0.14954178761829084 0.26395613540582924 0.7824602255297105
Ni 7.195717793000829 7.728034289574028 9.919698261537508 -0.2000253981901394 -0.8939358024038991 1.1119059579979174
Ni 2.6459258420322307 0.7513366412314333 6.034484719676314 0.5492454850717959 -1.3721422213499983 0.9758285234146484
Ni 1.2013335865864132 2.5977108216841995 1.2460548995436445 -0.5101148376189214 0.622391827348483 2.615873780633366
P 0.4632813960374968 9.031753944615819 3.3631579523934745 -0.7221902249950595 0.24147029559848732 -2.7993176203157404
Ni 0.7830411066254429 5.288952650272096 6.052707748758325 0.3620419212366733 0.763324533141524 0.10775236238633056
P 1.3800051275909007 3.7046213909692662 10.240251489708365 2.642862650517384 0.0816608075056013 0.7849248850201191
Ni 2.582899732373203 5.786499324886857 12.999130935875646 -1.3319358243344415 0.49698189978138924 -0.7440039784360412
P 6.6460628443232865 5.450508741771654 11.01032034929047 1.460382738955646 1.500321741242429 0.5306216993230216
P 0.7766753115897067 7.7328102619114505 7.62314594611774 0.6699106988650527 -0.7248394896924485 0.09673261423705921
P 3.3497592128787588 1.1873215899233125 8.427022928948315 0.9442317224449738 0.22412769055498172 -0.5704223762597274
Ni 7.955989405048732 7.869222810327223 6.543553195260735 0.46841128723254816 -0.6801179784153578 0.44859862338199524
Ni 0.6504233191096781 8.480435768217657 5.266020549632485 1.147311848301037 -1.6035044819802062 1.7742858957035637
Ni 9.109107971287115 6.867755303464483 3.489551179853131 -0.9525091319624176 -0.8244293708726447 0.7692169873665592
Ni 9.085553321724143 3.1903495213985473 5.690826563851302 0.8838732759615745 -1.1680570512681883 0.6165207132796867
Ni 3.7460812909100856 3.7899198852446414 8.417856592934953 -0.17258992768700598 -0.4164798884705795 -0.0945237795111985
Ni 2.3960142622903464 5.9428613141750946 7.981885581905537 -0.5869872225969439 0.5832820058312149 0.4307505394569807
Ni 5.836293946980728 5.079395249248942 1.0971263302358323 -0.603057131575613 -0.599713926134993 0.08853208070413784
Ni 5.146193819548036 2.3909967038035598 10.107765645397254 -0.6271841065308037 0.02883749305698259 0.04438572520422679
Ni 2.941162700104755 7.44471877879511 6.105039025420517 -2.5668343587072115 -0.7237354579949923 -1.9601478579091276
Ni 6.039458606820716 8.039095040429881 0.6081866267809041 0.4382424769586517 -1.351989143440891 -0.8497022865068206
Ni 8.089224166422872 9.373635513065508 11.732356307314063 -0.7363863139897834 0.05482157582557011 -1.0782170503859043
Ni 9.418700621696834 7.027285788019377 11.437546870890413 0.0003064754968252786 0.04076689750471689 0.041920551493185874
Ni 5.009381724808316 0.09675432364270757 9.390475926031161 0.5680970705606604 -0.06622416123555692 -0.45001504411354754
Ni 1.1966133648988437 3.701257768428124 8.146955822700843 0.6264143182443146 0.9583792175899494 -0.6458963382283264
Ni 7.809095734460562 4.667379363283944 13.075464725654628 -1.2607363213714804 1.257592633536176 -1.3809716467161701
Ni 3.142561922699391 0.7848307024857303 11.020927839602535 -0.1751108943366468 -0.4623159729680877 -0.6910613648007389
Ni 1.713310387738176 8.266037352432253 12.83117838648293 -0.10847278549212287 0.709214895781314 1.0144238671893433
Ni 8.617219987632451 4.121543334121346 3.687042281893059 0.5981062153282409 0.8154029990043182 -1.1743781083902096
Ni 7.814150460047251 2.3494438861129847 12.422922881850528 -0.7679507190596259 0.25549052113697934 0.847999701993417
Ni 8.729362419812135 4.371278370138694 10.07709907126801 -1.3514111594502338 0.034568996224121115 1.8328268293622498
Ni 5.993501487791739 2.917152753567983 2.8318143046602122 0.5437584938152957 0.4715308066981363 0.03648318252769846
Ni 8.330931108861362 4.225258126398224 7.840342115348277 -1.7750711106090202 1.629683454368419 -1.3543262762144996
Ni 6.381256549295627 0.7702193863367076 3.8100356488891687 -1.3088676296610682 0.6110771736666121 -0.7720541997050381
Ni 4.832299077324645 6.442768099633643 10.14476921005981 -0.9115792265172753 0.9472059745819492 -0.7775015959728545
Ni 7.617201997665894 2.0445807491658097 10.058862104523536 0.5474752805452507 -0.1819870526311898 -0.328450458434473
P 4.0146879219027385 4.21592918432279 -0.00413762739660399 0.8258375640740808 0.6686338890351581 1.1410111028939898
Ni 7.884721490986409 8.719949851761923 2.196896170452203 0.5246690812840125 -0.48499978771884855 0.8752539097236798
P 0.827317343561346 4.718623502273997 1.7917413311291361 -0.31933589772771453 0.22646045245321644 0.5752239114134287
Ni 2.5611198118305585 8.417242406609072 3.5322673277706422 0.8166772377310515 1.4851347490893456 0.2242793856414976
P 1.325480992034484 1.2271925963433163 13.325205336736962 0.15218899543315081 -1.7533949111871672 -1.1580233211812703
P 8.48346488685968 2.2327763595202166 7.6406748796090795 0.11611847496283872 -2.127129695380737 0.07678419613959034
P 4.6158471792696485 5.840540288144546 7.9180092748362485 0.47406154353978996 0.44898197486334296 -0.16280893704084218
Ni 2.135575101501186 2.9828084355450852 6.155479425875187 -0.15569238060071897 0.8150361025832029 -1.2236059921780862
Ni 8.051964148770994 0.6646666809696696 5.322512683128718 1.6118284284648692 0.9056165811759371 0.2854842392855922
Ni 7.117954928230608 7.90372317081137 4.341665483291677 -0.7562378014980718 -0.8661203228535278 0.3811788991764403
Ni 1.3699978859422535 1.5907054169360433 9.118745400291735 0.5391125104028521 0.28380736580380156 0.5869283443345504
Ni 2.4946371618806333 0.823396214521672 1.5821737091535106 0.6283657855437307 -1.9134661375818722 1.0648362582036244
Ni 4.897917592201845 6.048118541097911 12.585870881241423 0.20702856898084987 1.7769184482304043 0.24786797159471505
Ni 3.6813733699804874 2.8557619963046483 2.0114137583906517 -0.2574597290482082 0.8078696667417505 -0.6540269377552608
Ni 6.806420296851002 5.658551583473795 3.376363422988699 -1.3198485541526044 0.15103765543752698 -1.0641369181437543
Ni 7.789945386235991 6.367978602855593 1.3962833881705334 0.49144605756482457 0.1836320444337805 -0.21618966665482764
Ni 0.4820693650380206 0.520795624781039 7.194776536195806 -0.2363615136170123 0.8951205667406197 -0.27023554065663785
Ni 2.0363389447625138 6.268008395893854 3.989983879775294 -1.2750712499369137 -1.9840987122977702 0.695774454005692
Ni 2.585046132392551 8.416192436036836 8.989700300254063 -0.5485029504788166 -0.1225889131785308 0.24967699977899582
Ni 3.5850083717092547 4.392324240458272 10.824089020165891 -0.2796624903974926 -0.9002959402939721 0.1370218007744092
Ni 7.2773367443858925 6.960273506895846 12.414477587575268 -0.24391052960886378 0.2709914449860559 0.01996435893706884
Ni 1.4333863748253266 1.5008539529226577 4.006561335509138 0.6965085039582392 0.9431369467188984 0.2910712464550665
Ni 7.695550244259572 5.5345714299752835 5.367594516954999 0.4507601498096882 -0.07644146808819093 1.8301744793410675
Ni 3.0541506838072126 5.419966677427084 1.7309786978541482 -0.44897657554670417 -1.3066086584235626 0.7238339312460695
Ni 5.70449011895282 2.4922584674868977 0.37631874486400385 -2.5517016168308313 2.8489764209934485 -1.2110340690503465
Ni 8.177858407914464 3.521647758151108 1.3615358664720374 -0.33394182056634747 0.3785941691683996 0.9313661793362153
Ni 4.407897255317263 2.484639212006962 6.312117380880197 0.756351958478433 -0.5996085109053803 0.31584716784816574
Ni 7.462428901898472 -0.010780317326611158 8.342311674851393 0.01249710402574622 0.5914768829371814 -0.0788045690037288
Ni 5.604826540565274 3.952813992340677 11.968184343725536 0.39674770014897476 -2.3864537313311933 0.2542535634060847
Ni 9.006982072531052 6.373767378665348 8.941789120947732 1.1387387619200453 0.8940697568786021 -0.12306508148400096
Ni 0.6241043664914863 3.8286944622175323 13.111448982602367 0.36376558879599935 1.649098368559921 -1.0133368047727516
Ni 3.793497218610221 1.7217937782908357 4.108217999628937 0.9218073320031867 -0.2900224934755779 -0.27591253643675706
P 3.2511084379635453 7.769958778263625 11.574479758704815 1.5218007370518114 -0.7264639126697489 -1.3589938568934983
Ni 8.575211872968074 1.7758161579985736 3.146995028540217 -0.265895004299755 -0.028457741120060668 0.6384475952597649
P 6.264050099754278 0.6594038196235288 13.112346568065004 0.21040956963794086 -0.7339658774737489 -1.3858798826510648
Ni 6.923868332541715 2.8661316171773414 5.230390309311312 -0.727763862428095 -0.8511500746969406 -0.2588553238441542
P 2.9591422846824074 3.7914437363406286 4.048502549393691 0.6928505954906776 0.40459804943132904 0.24862413303444925
P 5.5520585504792335 8.093674926636151 2.730525594829446 -0.4906963238829936 -1.1522640500999897 1.4349797255015093
P 0.158093976143676 6.332995070072719 13.662689108090733 0.7210890215110807 0.08482892082093778 -1.8676606492119834
Ni 4.576236342548959 8.809271684601702 5.016293876212613 0.25130990739672854 -0.16434439984876215 -1.060255580811477
