# total energy = -340865.81912987295 ev
CRYSTAL
PRIMVEC
9.33694439590682 0.00000000000000 0.00000000000000
0.00000000000000 9.33694439590682 0.00000000000000
0.00000000000000 0.00000000000000 13.66556191621193
PRIMCOORD
 96 1
Ni 0.15270852811395966 6.62772733535215 3.2853654457229813 -1.6347071328352556 0.7564604590318391 -0.6502589860723962
Ni 2.9540318326917068 2.8830803915602092 7.828043835618543 -0.8463313131520587 -1.008814748532682 -0.36547640083951893
Ni 0.8721901276652639 9.07035604478364 4.236871049388225 2.3713107050421676 0.2022974820537677 -0.366310209594724
Ni 0.6259011397691557 7.0616431563422895 5.430530308237754 0.09743349695882575 0.20000200115137168 1.9286603288238073
Ni 7.076516908904796 2.018264582648157 7.6780504909604375 0.05961308367694249 0.49210528841537826 1.545893516334957
Ni 5.638057904804306 6.917256646846635 7.6738413963871945 -0.23775402308916477 0.12690399561411694 -0.7969872155012919
Ni 8.005085374751426 1.7768485460780825 13.19528926784035 -0.11321801348659212 -0.30121270576444253 1.7797831713727088
Ni 6.131842213823814 1.3423538345299537 11.72516121544011 -0.8110460075872031 -0.09461582500437253 0.6897390464448895
Ni 2.2085235003921397 8.883635828998974 6.625570501176419 0.6493673274960623 0.17951545116224568 -1.3447903116996065
Ni 0.9982687564173148 0.33393862054222184 11.714789737507637 -0.0702934462089241 0.3933067927882259 -0.8675611690651123
Ni 2.323956145043897 1.599297209776391 13.19149006512994 0.4852273303486224 -0.1500441811760061 0.547296074654909
Ni 6.649342361831872 7.474055994186512 10.336481197159921 -0.21051215665407613 -0.8076480376492478 0.6195561576719008
Ni 3.127045413974329 3.9645039755491935 3.6098401393365434 0.5523696325230745 -3.0154494371494387 -0.0632607077318588
Ni 4.0723550212802015 4.699863049194998 6.250518512989202 -0.6913133329105449 -0.19584581289115302 1.9040376451791208
Ni 3.925914383998137 6.748500712248573 9.523106350186263 0.413387622698501 -0.42216588311176323 0.019003794796012434
Ni 6.077575892484655 1.1091169613275844 4.263545766083655 -0.8274948971718459 -0.2325714504469607 1.1262159468626862
Ni 5.637012167022133 4.901765136710131 0.10933095143167111 3.0888870854143 2.0520485979751824 -0.2671805558803979
Ni 3.790967525375485 2.1954144303370504 5.116358932861934 -0.6057938137804857 -0.10714558204026708 -0.16150435929680573
Ni 7.910912952689012 8.94007765840283 12.118469731176269 0.176512916890496 -0.381580248379917 0.4547965246625909
Ni 0.004146537045203053 2.097133752701817 8.714201098536947 0.3045052604727853 -2.9747193064199284 0.6496072114210102
Ni 8.907949232434481 3.448833868659936 6.936352565704662 0.16388391527257581 0.46852570132322535 -1.8553725758732498
Ni 0.6311251602077758 7.548312713665233 12.636462869853068 0.02480651752071857 0.34759540679404005 0.8449891973018673
Ni 4.632842461691132 0.4973015360065107 0.25293969345183454 -0.2906608983905252 0.2688484305011241 -0.9277283254733119
Ni 7.7529972106365035 3.643817280312661 1.0551727645731133 0.33738195659614795 0.9676804403862175 -0.8030856150895459
P 3.218304709357834 6.4926310856177585 7.415507750107137 0.1919289943352501 -0.1159428686169229 -1.0625140378283509
P 5.230341550035376 3.2569036378533744 3.8024697072849327 0.3833568806643656 0.7589266611841445 -0.02758228049364282
P 5.0022773440769654 2.9441906932059063 7.664631434348491 1.439087577022296 2.172566230446981 -1.504974666633408
P 0.7335094249435876 3.095066379117719 13.37460902142725 -0.741096060760627 -0.06618070959213118 -0.0002666233978253473
P 2.619143644895494 8.149145091190151 13.468750631572869 0.7201027463384115 0.5993750547383355 -1.0104553694598986
P 0.4588025128169459 5.92129411571679 9.689949144859622 0.12731357234770976 -0.5552035024274438 -0.5359443970875156
P 1.7439544906620719 1.6137414628926465 6.144036263319502 -0.7989831628853982 0.31848460547101276 -0.5741281072460886
P 3.3552776849334447 4.7942688948695045 10.687562447774182 0.6569479680567977 1.2444134158417408 -0.6731250920372923
Ni 4.4439654117307335 8.902337728799788 11.14056204959452 0.07530992558690901 -0.8535044338617302 0.6389070513946867
Ni 2.3188861841892576 5.817401934446864 3.8771251142931065 -2.045236717259671 2.070589337091847 0.1679683697545946
Ni 7.7094963862870305 5.735853061326388 5.983111224059901 0.2942650708020158 0.022707468899844766 0.5017929480167874
Ni 8.221767845384228 9.276581137594718 3.331076324831742 -2.319895326684669 -0.8629725212531653 -1.3911462732563267
Ni 6.133746950498484 7.748608846729173 13.592205578925006 0.4478694585254545 0.533015653476495 -2.536771220773244
Ni 3.0380549961003585 7.982938142436132 3.271248919358103 -0.4547245337740749 1.6397166702347052 -0.4064068205052937
Ni 4.838955511168406 4.827106928618613 2.163381241202435 0.3112654620147543 0.5567320232568282 1.6887715187798271
Ni 1.9863415694584494 3.4105990809992592 11.529743635868893 0.7240344772926498 -1.0431168642486617 1.3230956003349925
Ni 3.614032427409717 1.7390059100857205 11.132855335617688 -0.5698094252660768 -0.03916690000744867 -0.0447896455108648
Ni 5.022977349997288 1.5474211462250553 9.211900388378462 0.8479374812969138 -0.8557814028213648 0.9849585107403748
Ni 8.740547154786551 0.9766910777155264 5.692034780864469 0.47270734350474075 1.4480447862155834 0.052321692221851825
Ni 7.396204551081573 9.183501138036897 7.228753921322328 -2.8137206831149477 -1.5902761562153904 -1.6507932397638407
Ni 8.28968477955853 6.977330547654644 8.088796684214323 0.30749519633904465 -0.130033285271718 0.3348998136042426
Ni 1.5083180227273962 7.479396726431178 8.340147229715035 -0.2937289957928877 0.6951712732040545 1.3106928557952655
Ni 8.923000386942176 2.6480881727949073 11.370417081504899 1.5031345281008759 -1.0367667536609175 -1.626492201124631
Ni 2.2098119987308875 7.396839463306464 10.98287599637631 -0.4776400049196677 0.37100144442280625 -0.49696055962515057
Ni 6.48543230142084 1.7184086105547187 2.0844765907597376 0.45935843300166046 1.3517520877294205 -1.596270169015296
Ni 3.122694397844933 0.01807165604816597 8.867159856763069 -0.2116203021165904 -0.05847074254238317 0.590530459863512
Ni 3.9489206152059286 6.912737565716534 5.107981826271175 -0.6974929793586955 -0.006360395000389046 1.5213261114082381
Ni 6.028323510333235 8.850134872191523 2.0180479655361356 0.5178641425470372 -0.6527583554554822 0.7641357161889099
Ni 5.936457313558289 8.038362244891267 5.212578013155171 0.7891949731503829 0.40386657058194314 0.5569909333451698
Ni 1.9767992121961266 3.803703117651227 5.864384505394302 0.05541807175898843 -0.684341529578402 -0.5822617920968166
Ni 3.786943302303018 3.7671676538865806 0.12120194264822405 -2.410757855294196 -2.0138152655255963 0.34387116386491745
Ni 1.720098597506265 5.354056064444158 13.432195560224807 0.11107654166355709 -0.6898249212904765 -0.01136890395857397
P -0.12662297261544966 8.973793364933405 7.989297535323968 2.5675136441624233 0.9029989410474318 1.5104557443526374
P 1.9778076022003641 1.8578745503074725 9.49239994086278 0.6390150377274607 -0.4927231245050353 1.6703786180949363
P 7.707759714613065 2.6250445938091813 3.8751839635349494 1.4173931227679977 -0.21900116796169383 0.08096918075521539
P 0.3211582109329584 4.890822237775257 5.276546353507323 -0.946197845032409 0.6558400797045995 -1.157860827461477
P 6.102907022868884 5.913591136517753 11.86200814226519 -0.6381526897271654 1.8208133498411416 0.10282947116341645
P 7.021512968951425 2.499882853005428 10.195233768399678 0.44243106111870256 0.2499415662942921 -1.0540383962571718
P 2.3551788873973285 0.9931241000068063 2.7266212128471543 -2.075345877940226 -0.9305652807014748 0.20032287482590017
P 8.100331545429464 9.281847174283515 0.8813179245925111 -0.4614718798002375 0.015231986458406026 -0.13438642003409113
Ni 0.8924083472502283 2.3706128566288545 4.072542693864323 0.557049554497247 -0.6179057665526713 0.4337134787400466
Ni 7.268082998876492 4.739685117417902 3.0831281619008832 0.06853378320534004 -1.0645025290132892 1.5849087212558897
Ni 8.846409431342535 1.702647848266264 2.17378072996836 1.7880844921495527 1.5613522740921884 -1.430826622565084
Ni 6.592060207424485 3.2921786141127236 5.874538432520306 -0.38287017083593416 -0.016146527852875417 -1.0346394229052698
Ni 0.37158518070042657 4.392649564848419 2.7828959109447524 -0.3209973445905375 -0.24588565105736362 0.23533538634534307
Ni 5.685386876392088 5.272507191323682 4.917415723053679 0.5544843648732322 0.8672642066499837 -2.493024414704597
Ni 9.087862815690544 7.724659584128529 10.311363882804367 0.006369393861453546 1.407900352786214 0.5737671243622442
Ni 5.549179530264139 4.184818517586147 9.63657170063531 0.21230935776381504 -0.020408388453022917 -1.0305161447655156
Ni 7.515437332138189 0.27106923855579934 9.593087682785907 0.019692593332920925 0.6299986931614633 0.3531500180636821
Ni 1.1389765097863984 0.012446146996747735 1.0130939568685047 -0.6319442469236084 1.6879703630347704 0.28765964967035623
Ni 1.3918863250158853 7.186169984921153 1.3697811089507685 0.8845975557221087 -2.03221665085092 0.6374165828920894
Ni 4.21239051464646 7.473869255296838 1.1750385904657223 -0.6587143159286011 -0.8016486255327032 0.3647557206234105
Ni 8.136241433913703 6.281065260562014 12.865976169595344 -2.141479536344505 0.5624049052718895 -0.20184882455212336
Ni 8.408086572556096 4.057471931773212 9.122623326308842 -1.0576289418219076 1.2093728792978398 1.6888638213833171
Ni 3.9217407698139315 6.521734341573394 12.322428747561158 0.6957919375071888 -0.42866871722728755 0.2276714420421821
Ni 0.2299913512998416 4.936106418521113 11.706275377832965 0.23829215498082185 0.7584978011768421 -1.3743564553924976
Ni 5.008458401325163 3.885083925770997 11.881577444208538 -0.9924429920428779 -1.3080420484359796 -1.8158444358716406
Ni 1.93311164895698 3.0007539028880497 1.630698287769461 -0.9433377498757947 -2.267577234007243 -0.3912385974052875
Ni 7.338997092230056 4.24599417784323 11.718165042938486 -0.2455259537250997 -0.8989862203436131 -0.17061043536313197
Ni 4.1828670961890575 1.8847556134759924 2.27164031140738 -0.04300735679946141 0.7223174946015432 -0.27220320590596997
Ni 1.470400691179165 4.0592086034471775 9.410037819877775 0.5690818030714327 -0.08910106583373041 -0.6243738907755182
Ni 6.760909511467386 6.402006702459144 1.6218151187876864 0.8560945631864094 0.23610131797709014 -0.11496944896006006
Ni 0.9701552165769493 5.48022619525215 7.3673645969603765 0.24940112040978982 -0.8674488118569642 0.1788546776497952
Ni 4.989915229580571 1.0322178865599816 6.67282571090278 0.5021529024593674 -1.7165530597684697 0.5675702515229128
P 4.000815352646232 9.276329040093659 4.824818443525662 0.42560421936935094 -0.29600339364936123 1.0467485474639777
P 5.791884065172961 2.6484243027963204 13.679364088291278 0.3536200157215652 -0.876366168951252 0.4835607412794769
P 5.59627507823983 7.075004323898439 3.2828229957400747 -0.9198833755075965 -0.9549956458296972 0.04769679185533076
P 8.07514046921249 8.238032802674802 5.119351423568955 0.6367856341763097 -0.6861258751723345 1.1657661983514827
P 5.226102577239784 8.547580523142301 9.16612134957497 0.2478353185845667 1.232165451712323 -0.8061267159087149
P 2.730197262584405 4.908627790905638 1.6195873238338798 0.3348424780037459 2.368156732794218 1.145888485590949
P 6.971065457906094 5.326820197385258 8.325757130876784 -0.9733672063583495 0.21698079509755536 -1.031210856839695
P 8.94923720094132 5.700494052566685 1.0162983962153043 0.17886701894496937 0.030240286941780176 1.8617183155856194
