# total energy = -340889.8157223445 ev
CRYSTAL
PRIMVEC
9.13551285875690 0.00000000000000 0.00000000000000
0.00000000000000 9.13551285875690 0.00000000000000
0.00000000000000 0.00000000000000 13.37074650058050
PRIMCOORD
 96 1
Ni 6.187473582430381 2.1158669493873727 11.228873350567214 2.090989498014754 -0.903215170823296 2.0961790126354933
Ni 4.780211807264136 0.4458440780700737 6.042039875245137 -0.5742319798138047 -0.7927901467008088 0.2468991799235425
Ni 2.920522903612121 1.6520752431648247 4.7570706401700535 0.35843234950854397 0.06101099246573364 0.8372370641602743
Ni 3.7159519900602236 4.447697417824167 5.41890929803256 0.07973865078222396 -0.3195215313759594 -1.1953004603651738
Ni 5.257743324512501 4.648094023317742 2.6185266077312264 0.11071144501465449 -0.7942525901789483 0.5032733892170558
Ni 7.3351680366680645 6.236522149849009 2.5117881914782005 0.6237727668564096 -0.9957275763314205 0.050417533220603494
Ni 5.422621056822313 4.586602887669618 11.739715687591803 0.48331211560378057 0.020415844652190648 -1.8122772873456725
Ni 5.380524614530446 7.900765895863826 12.642508059358201 -0.22593697584957864 -0.46742346939798207 -0.3708188960983549
Ni 1.825595170441674 6.444464688791602 0.5311542358509204 -0.25446207987246494 1.247209233419323 0.024191252534222853
Ni 2.979958548913963 1.5585732711905933 0.6052158369056436 -0.6979411226397076 -0.5863570452121126 -0.7502988103058176
Ni 0.5801626070138868 9.347730609007602 4.884894733170879 -0.12591489222797025 -0.9506921333583369 0.02411334810843589
Ni 8.544518065781576 2.1628782974850176 1.313540550888411 0.7660509309337518 -0.2652044059906336 -0.009594585666970572
Ni 6.8042577190049025 0.6142426369552517 4.712104733354776 1.1099519195953402 -0.49306868076991217 0.040075013644014855
Ni 0.7197441047954483 7.656884250155562 2.842246177020621 0.34626717490091974 -0.1535154275540582 -1.275573386384313
Ni 7.757575870585457 3.807297981049021 3.836321504738531 0.5852008201204825 0.08888200784438886 -0.9980099446076941
Ni 7.589665148075797 4.045716590192498 12.895549883600765 0.6549188534419108 -0.9110398090740375 -0.553858301253459
Ni 8.015160785268938 9.167669654673247 6.863511567605007 0.2510782510018966 -1.6393590297849703 -0.07171835158090875
Ni 6.908831932311109 0.40268974341332 0.020833536598655077 0.04594587060249506 1.6487913788424635 0.41543859169025876
Ni 1.8987249492060825 6.432414947606063 9.297910090770037 -0.13407017434525298 0.6580237176194796 -0.4007120841133615
Ni 0.15403296524282542 4.76976078079237 1.3366186829452067 -0.8648820795710523 0.28871328774585114 0.7877194170461208
Ni 6.648296247041632 1.9761484189160592 7.092485883770765 -1.3026581584162469 0.5346655303750921 0.2751697447334616
Ni 3.3970860565195715 4.576782211570712 0.7048523056244472 -0.6098679838498593 -0.4244443947332948 -0.3370153172853486
Ni 6.056780938457411 5.57264444556299 4.773035862077446 0.15422119537183118 0.18369323668901913 0.8093912455925996
Ni 5.404633232414178 3.054942836746351 9.385394500561619 -0.24207476195170566 0.2929630641611406 -1.350151833121836
P 0.23101884389686014 5.866497345467545 12.557403450611982 -0.10019511886436293 -1.4337180851802662 0.1966359128926162
P 4.041559931936682 6.101417053266018 12.627734108300388 -0.1363548566143716 0.14839764671151862 0.6557994562746512
P 2.3411212848019916 8.481391673369075 1.511923689393894 -0.22196744967886936 0.42200004695786036 -1.5977027876967647
P 6.462662629990691 7.675904387493163 5.670921549999452 -0.8245772093044187 0.7197296792697089 0.3826554837219668
P 4.687011307207358 0.9677979391310333 12.696900901677163 0.48816481571039155 0.5737822938708956 -0.2501058597862983
P 4.092051910354033 5.9797228892534395 8.236593735742002 -0.0922576091848411 0.7414673280571166 -0.4774127194002101
P 4.858621912340327 0.9354673598621711 3.7290742404308914 -1.2819494651139858 -0.43100353600805125 0.31723607777589236
P 0.16796188138050108 5.666758496884781 3.642271339883011 0.767077315315737 -1.5786123467242168 -1.3755080524984373
Ni 1.7570696900529381 1.065538788974932 2.7592272058124307 -1.2238520467506213 0.5745060594107976 -1.0030994433154594
Ni 1.8513938581656826 6.369526078522465 4.928457425243093 0.8858283428054164 0.5545635548505997 -0.08178473467797527
Ni 6.116262261322503 5.910092011834036 9.346926683894388 -0.9794890029853711 -0.3760333504197589 -0.32069395441750576
Ni 8.634128309366844 2.3177891854935218 10.097186141595113 -0.5078540666092028 0.8123161325488785 0.01975558536037243
Ni 2.2212816298573927 5.164076913310566 7.148322137088449 0.37626809213838425 0.48978126826789203 0.26212139618993563
Ni 0.5767742453719481 9.272179919390904 8.998846294449837 -0.0008929441279145913 -0.6793080809195526 0.6016630794415638
Ni 1.2454535751068825 1.154719663465645 11.427909678227183 1.0186533318896585 0.2804021967769945 0.07813016864452352
Ni 4.01178729620986 6.9012859988620905 1.51513299498789 0.7385383273357797 0.024167084164506768 0.11031806623097774
Ni 5.700943585221623 8.001722446160576 8.010574757918565 -0.2807030158468649 0.06591819995936389 -0.04710672367981565
Ni 5.59096114842653 2.7597835585328245 4.799656745939968 -0.7587006612162676 1.0836482487038046 0.7131327427784815
Ni 0.8814335431903599 7.610366219741025 6.927918758891058 0.11552789256669137 0.6197273931424423 -0.16664682272969364
Ni 5.441896988514119 4.307960616327553 7.093020311260798 -0.4638038703675238 1.1341557705350533 -0.1586532630012558
Ni 8.30186057876843 7.179261377780694 9.398618155122701 -0.05502623563720846 -0.036206531827544096 -0.047104409686970494
Ni 4.564540624619518 0.26525600465580756 10.42296491755813 0.10941098103567609 -0.09017604406546405 0.32119377687205974
Ni 8.408919651515477 7.251916109887295 4.621785573987855 -1.3535909407103721 0.9963685523495293 1.6935545419907672
Ni 7.5961879041080005 6.600398754216923 7.136128054803036 -0.3480219528084974 -0.7873481497496311 -0.6678643578589852
Ni 2.2504239152113548 5.2332875571480635 2.6920656574623614 -0.3239849664639517 0.0003303867562252375 0.25870080054416095
Ni 2.2327741047712752 5.410909329604827 11.633217535321476 0.033365462834323185 0.18130930983787485 0.953761259201964
Ni 1.1398196423332587 3.3178354842795663 3.7848702974929154 -0.11692065914915994 -0.2768049663440394 0.013072002692609745
Ni 3.7797635459214844 2.7632093757766287 2.7086594026400843 -0.7728345295144883 -0.0660639815086088 0.017698959941659844
Ni 1.1779878141855635 3.3907916883036218 8.60327311539098 -0.3276739852797647 0.3929308975060459 -0.5431859091412774
Ni 3.8744257280022842 2.5686594983791466 7.36765574675451 -0.6235380251377841 0.5588734950798634 -0.8035640973878612
Ni 4.2210453489740765 6.925540784948225 6.296538813755399 0.1388763374846447 -0.42047461145226944 -1.410823697080596
Ni 0.7445908721013119 7.572399029167023 11.256135547417776 -0.23885599790409182 -0.1479099084418227 0.5948468278506788
P 0.27699970616756864 5.794929739366311 7.931847650553413 0.016517795149365102 -0.9261416977124824 0.8538445908099682
P 8.627769992562344 1.7885598021579872 7.951849855500905 0.7836683869051987 0.08735682944911406 0.994160746064933
P 1.9933505892362817 3.408514582844903 10.750253793762218 -0.1555090609453193 -0.8531596489278016 -0.6956438419650987
P 4.002852764838019 5.959825742701424 3.764453340271107 -0.2057774701825682 1.0671168267076847 0.7759831024457992
P 7.257342604401481 4.3072663173661425 10.392733679096272 -1.708656173518896 -1.0262329440091296 1.157656938980787
P 6.174610780618978 7.736664682129276 10.406478057878415 0.09048431933450224 0.6627347499419037 -0.0989098243940361
P 2.4521999831151016 8.76459256552356 5.6304877710099115 1.0677146081926836 -0.8840995330397676 1.6254347063943941
P 7.208001700578049 3.777890765828205 1.6743649804799128 -1.6560197782701027 1.7841437623342498 -0.7560136013024076
Ni 5.033521302027348 3.0122891281828252 0.5536540899569619 1.3684704289253657 -1.6127203441515194 -0.40705396717098924
Ni 1.6690398901561434 1.2606093905934725 7.115924868577241 -0.29476103660182784 0.5196927111153438 -0.6076288101066954
Ni 7.020678013686831 0.536684875209318 9.265712889985867 -0.5237933635472786 0.4521112645209439 -0.6979413797500238
Ni 2.8054063087076475 1.7542742231819939 9.452449163413679 0.12600025285292493 -0.6138719628029299 0.27981187149116327
Ni 6.260384108891186 2.0166370109815004 2.5426881494660503 1.2694562177429816 -0.013203386064151454 -0.4275945103265023
Ni 3.8760701202793104 7.052807611677391 10.652955102730585 0.8843653851066446 0.03911702060611973 -0.6643720284350106
Ni 8.285553688687923 7.302307597665495 0.24225278380274315 -0.3548032373963889 0.2593358630249985 1.0869276907860248
Ni 7.433694540599876 4.215975139453246 8.274552704354617 2.2025722898907683 -0.7136505629551645 -0.6115037196810694
Ni 2.8493389890421934 8.420357313353458 12.442936390656936 0.4061206567234425 0.42775289028123753 1.3376922672022447
Ni 0.17358844362172526 4.8242541137504835 10.620356852941075 -0.24375754897076726 -0.00601149630140255 -0.7921797668103197
Ni 8.664677463668928 2.15293885972166 5.7439654549449495 0.5891040118296306 1.222491933178301 -0.29056036825691894
Ni 3.984216319031724 2.9083726717874288 11.664438149803345 -2.0100951363615316 -1.2442043851547282 -0.0021412147127188932
Ni 0.8178430667352325 3.398291944189391 12.767591498563982 0.47307963924249485 -0.3051724617431389 -1.2342729849736291
Ni 3.108358179211747 8.414446636668815 7.849042450341236 -0.03780601510418005 0.5156511940561184 0.9178455191419613
Ni 5.624040839732704 7.746631526430583 3.570591366976181 -0.5780613808622239 0.405383778557418 -0.09485262360552696
Ni 2.995607682083661 8.152074713356656 3.5575010908997884 1.4427506276961797 -0.2540640731030979 0.806468672629166
Ni 3.6996268289544147 4.769112159394209 9.906225607117873 0.10512495206581249 -1.5026295634399993 -0.45199967864374413
Ni 7.230648636437758 6.175195453428587 11.774639838902042 0.34717708830969884 0.48482855224830695 -1.211988976764448
Ni 0.3132064834538873 0.1390552922529131 0.21234037473237422 1.3270589558581145 0.13393056344359516 0.1847003377972948
Ni 4.799094911911984 0.16466852907012391 1.6099714924628377 -0.30072882414948854 0.0345042044244567 -0.25097592109607747
Ni 5.788507473973261 5.230501225789769 0.476475451986009 0.7985113654553021 2.5048967406621503 0.8435637777092504
Ni 7.86501863486381 8.760783056748451 11.251576926605352 0.48531860451084796 0.5536919508789238 1.1964955091145393
Ni 0.09603890383717659 4.826355281660016 5.692287686985611 -0.12760025035019318 -0.34857782531196746 0.9527055642439398
Ni 7.841787026194491 8.955926742468193 2.463038355323233 0.10527818981422513 -0.17270922687368964 -0.2733378337310454
P 8.634850014866206 1.482574941454039 3.565603377069202 0.0011202296473722642 1.2040316695905844 -0.5809554145805672
P 1.6928835781730212 3.1837261585754413 1.3533869164145473 1.0061125191101705 -0.24848477924310752 1.9897741654159922
P 4.901019826549649 0.9681359530990886 8.336767372604633 0.15466111112272718 0.1715116070211627 -0.07558271963232145
P 8.462855718201931 1.6895673870810186 12.209242668656112 -1.4218313610450093 -0.3699619474146983 1.2403104494169608
P 6.407347100894064 7.777673998415775 1.2872668165065948 -0.8289077183589724 -0.7815677956224282 0.12362018265652258
P 1.961568140726428 3.2721031079529412 6.139298370021108 -0.36356787096289644 -0.6498308973960422 -0.6385188148173326
P 7.240323144334262 3.8833419883488256 5.921155117653362 -1.223551484791067 0.24537143042510648 0.6636870865528441
P 2.3178531340820725 8.663727370353314 10.313859489977453 0.7173411244328741 0.3721651257136042 -1.3904492471893022
