# total energy = -340896.25831244607 ev
CRYSTAL
PRIMVEC
9.03451068685315 0.00000000000000 0.00000000000000
0.00000000000000 9.03451068685315 0.00000000000000
0.00000000000000 0.00000000000000 13.22291961255062
PRIMCOORD
 96 1
Ni 6.423094425985696 2.004983790003637 11.291143571403463 -0.15969764510537013 -0.03335389287009739 0.6244654220480601
Ni 4.75096007967391 0.5572486207837076 5.996924810785072 -1.5871190986436472 -1.2607080392367063 0.25664083269133864
Ni 2.6625606522562664 1.5395980741506805 4.829063424788617 0.7517872219258859 0.05314624500567621 0.4903998756884973
Ni 3.3783016944798017 4.468911689721793 5.036543673668061 0.2367538639594245 0.3137393774765435 -0.5362380170685346
Ni 5.431728530927054 4.459985593137255 2.692001412317029 -0.40860999880419957 0.6286231529701755 0.1497006817936583
Ni 7.594617499174168 6.124476743385763 2.433122928539716 0.2619884701564972 -1.014409726121956 -0.42397259730319886
Ni 4.929129665446859 4.523272340682487 11.424258955701276 -0.7033622936552789 0.18421311374823116 -0.04618935407186884
Ni 5.283896832128678 7.929029913219384 12.423303281414977 0.5462627482943883 -0.9971607092335213 1.2579572159644463
Ni 1.9104828079446616 6.457750809081128 0.3471691431721066 0.3801373452858034 0.6073040797774252 0.1969696420829511
Ni 2.752228171083735 1.4603292771539838 0.44779552349456014 0.702256719295926 0.08038913988202928 0.15806833703206324
Ni 0.5278918816725763 0.22588987135951755 4.701342546837592 -0.5772962205614252 -0.9405193065903932 0.3058376061309636
Ni 8.855202778972332 2.273778552739643 1.3098396253038156 -0.23526930899409806 0.21315139404913616 0.17832888705331224
Ni 6.731740415477166 0.7114541668901718 4.810829071816378 0.35442888477610573 -0.3307683079343723 -1.1855744913266613
Ni 0.9819971074491621 7.4543296168212265 2.7533421262546596 -0.45798109303815965 -0.021584153928678955 -0.6283256763344147
Ni 7.572889500909175 3.8968284023471833 3.7765185335341096 0.5414265032480094 -0.48705924135103856 0.2201964738213756
Ni 7.798092749454497 3.8389984992726616 12.614665059731188 0.686364987766334 0.04457958638258774 -0.9108222937465926
Ni 7.7142705590584 8.885902046375428 6.909821463045126 0.4103123262072869 0.307498024552522 0.10935210277328264
Ni 6.86377978954905 0.5613204747620996 0.28768321428387433 0.06796762628922488 0.04220337284092732 0.04967936950299831
Ni 1.8373213401900172 6.5124095988953545 9.250860141141619 0.04452507899556848 0.37545330954657274 -0.33466224367213976
Ni 9.503221128890505 4.837429381708944 1.1357915833181804 -1.6396703903778018 -0.9865821623867267 0.17525101945893687
Ni 6.330924347690699 1.9147290279798166 7.057773320835985 0.6100255924736462 0.957214507857887 0.6309232618582619
Ni 3.5394231585371396 4.209783853448799 0.5066454228285905 -0.012171859475843554 0.014950450662245221 -0.012198341838404798
Ni 5.880897300050004 5.490732920394279 4.990924815273359 0.10262866800652004 0.4706442903281249 -0.9872020553589128
Ni 5.12064322354305 2.876055174917417 9.268870438248173 0.6700209991906719 -0.11386233193881036 0.4771720641443136
P 0.25221553212640546 5.627786447911931 12.250981734426617 -0.45352228593585764 -0.8224213393036803 0.7075524204772267
P 3.8756876472785406 6.077840599084766 12.622863878203322 0.5204848679993359 0.7156804489009997 -0.13937101773287608
P 2.4409079664211903 8.395237769547233 1.4037587848728674 0.423760995513025 0.6301413893869147 0.8396410456160766
P 6.315050712367791 7.645183655635361 5.715170945882202 0.06782338740187673 0.18087890716867558 -0.019401030234431103
P 4.725238827673728 1.0280460085538081 12.74956566334591 0.46012127930961405 0.5574097660501433 -0.21857924993292677
P 4.013762074506774 6.104889924159773 8.045802771088281 0.2602118378720486 1.3601788783405349 0.32359698699691364
P 4.7167373530927055 1.2640816354441315 3.770317245380641 0.09371953844234827 -0.6822391385234186 -0.2261051259963267
P 0.22519782783889447 5.418592352350214 3.685994543091039 0.4869625678721743 0.10571604868259213 -0.3670195769569228
Ni 1.6390770716125709 1.094919456852138 2.687981958500773 -0.451885521663383 0.30807909386697263 -0.672688518720506
Ni 1.6603081717883446 6.5487644700048495 4.9174317809755435 1.22713226016379 -0.659870026799599 -0.42485834234226183
Ni 5.994361720095767 5.7361463694047945 9.329087259053097 -0.9788742522195077 -0.517827632882147 -1.1211115357565853
Ni 8.603130895566265 2.298939665075613 10.18951599034685 0.09629578380995674 0.5605632240774604 0.20201157538223272
Ni 2.21194636141922 5.377530501159197 7.042870895414735 -0.8073798715895256 -0.04058177807710431 -0.19896558946705734
Ni 0.4269330313558809 -0.0568297827385823 9.037362908127255 0.6419262978369847 -0.19418950823465267 0.5797601087208853
Ni 1.4500299349410555 1.049033176940328 11.240037151201625 -0.030510252773715198 -0.3545142454010604 0.0627004643530146
Ni 4.138230528601085 6.933788213064824 1.614928727927539 -0.20240186884211592 -0.44021039931829997 -0.7368524549929246
Ni 5.688173117518259 7.878292101054641 7.907305528758676 -1.6570759874487588 0.030301222086702648 0.009180123837371285
Ni 5.250586591129497 2.979690047307331 4.969741598004364 -0.5178289184337276 -0.49292238500003493 -0.4628366213582481
Ni 0.6692828777835864 7.628406569241143 6.860962829108708 -0.4960650443940747 -0.8513272237047532 0.7548329507307451
Ni 5.14653613124678 4.445123823014214 7.196547922644483 -0.5307397129581247 0.2996721007502 0.5515162833838437
Ni 7.7944608761478325 7.362385401294058 9.106228466037821 0.6154161673615982 -0.16427009496740097 0.33722331953109663
Ni 4.542813987354911 0.316711097205049 10.53801862730021 -0.31009406741447243 0.24489757611248147 -0.3371726687988193
Ni 8.306428529237508 7.106040194320697 4.717157457840865 -1.136046816910179 0.23777639168666792 0.41551829588825856
Ni 7.138609605441404 6.069664366889414 7.150122282443102 0.7673290263152268 -0.18115838608230733 -1.018230385419627
Ni 2.276796079317817 5.262331455056521 2.5878976488211047 0.2886976040165673 -0.3680868418791725 0.6658997779334467
Ni 2.370745956223293 5.244271468141043 11.32952940052126 -0.8998187435472375 -0.720981549398939 -0.14323024357796624
Ni 1.10610418111495 3.3411788899596933 4.061459773816559 -0.15772715164256063 0.0391491593956358 -0.9247576728807623
Ni 3.6326502745855684 3.011247593228173 2.897287178544262 -0.10847381393338737 -0.6428241270609059 0.1474180564070687
Ni 1.0044478665712036 3.434415040518835 8.414483987719338 0.0008726324129404325 -0.34781986410002036 -1.8136561699710703
Ni 3.639408088598964 2.6446452175121986 7.106076332363549 -0.07865493079974195 -0.5111556201786099 -0.19008705603050488
Ni 4.132258717019729 6.920832724702246 5.853072813955815 -0.5704483444016563 0.5751033266751644 0.12862740606312686
Ni 0.8231297538147407 7.485751645081372 11.460502702329 -0.19123762469518032 0.3569369959099401 -0.9943749189582681
P 0.1479626992037155 5.911379739195988 8.136776680164864 -0.6876117156892416 -1.261793301881085 -1.5395287504591937
P 8.590229614267965 1.6345959542988757 8.042999362414008 -0.9766389351310857 0.48802880435315943 -0.26976425744717414
P 1.910121427516138 3.206131023820348 10.327483810348669 -0.6396439295607114 0.05817172324472563 0.7544058904956555
P 3.9930911139952117 6.1590427813740645 3.6470268914833173 0.09458908553149517 -0.8821598928148936 1.1059682523572438
P 6.759900985369883 4.070462663742159 10.485973521435282 1.3177837012037759 -1.198806159525587 -0.6685991791424808
P 6.072392789124769 7.721398788011031 10.423627266455284 0.3489943440240957 0.19369277110389221 -1.041070523242594
P 2.2824336140027883 8.45830768883535 5.742119084437221 1.6606001985519334 0.6595008163856384 -0.7810031813682099
P 7.206630436600298 3.962301501484984 1.5105331497355823 -0.1305999564084654 -0.05231860689805828 -0.22839675024398085
Ni 5.629430728861715 3.0226581802588113 0.15768473618207718 -0.4696433598674363 -0.7437540672087642 0.6604896626614689
Ni 1.5097751542867535 0.995377217815256 7.043333462363246 -0.6128419788765187 1.777281487996778 -0.26809509727486736
Ni 6.788404866669698 0.624315407611298 9.248784010579751 -0.2677171451101583 0.6380449605047076 -0.5039202787724354
Ni 2.7006230458905356 1.526714861873807 9.128998143388035 0.4060011004264427 -0.4991531964010952 0.2101542590940252
Ni 6.543036590212747 1.831313390565809 2.336595505727794 -0.03128415482526225 1.0000169477353937 0.9839938328342602
Ni 3.9888810320029098 6.842548689373277 10.214943620748857 0.5415745987900995 0.41820098492674435 0.6098397017150852
Ni 8.201140341387097 7.339410640550656 0.10313436049640877 -0.38463729003868596 -0.5865159393874803 0.6396855814319241
Ni 7.622199860381247 3.822691207435525 8.33551694338046 -0.5411886762055905 -0.11358388146644309 -0.3292359304502459
Ni 2.8837977505985393 8.363282705155015 12.364870776475893 0.8640978931068604 -0.04185395992130857 -0.09715787469993589
Ni 0.02783081025168955 4.995759181955936 10.075164381349063 -0.4683202701806386 -0.46500868930890243 1.2899836482723719
Ni 8.475924984725886 2.2309820754917116 5.729266589496773 0.3223258335939739 0.6230207191817335 1.1400960472788881
Ni 3.5783980377534323 2.5364479172121706 11.541453725220476 0.7599548453383428 -0.09552702396473227 -0.1291745368158485
Ni 1.350749696714853 3.070586259591781 12.492961165915084 -1.1227575560004404 1.1410452985660349 0.44896423425153004
Ni 3.0257299139012637 8.3127707557581 7.816253019438888 1.0255896539981757 -0.5841453822727746 0.6564255198944243
Ni 5.866821532359003 7.447562768297119 3.470937050076522 -0.782161463342369 0.7228777379803873 0.7448871523719429
Ni 3.300505522729339 8.347309690214262 3.593764837025336 -0.028274678574977112 -0.0022106344980736123 0.7140943353608024
Ni 3.2563086963208776 4.299803718194078 8.986137232384005 0.36120914092273276 0.2866443210319644 0.7397449460493711
Ni 7.081800602077462 6.066881737589781 11.425607808150742 0.8824573694506543 -0.013882671519363187 1.0448119925628974
Ni 0.7332779309687245 0.0856056028108616 0.31042127084659216 -0.8821488370713001 -0.5384036572612856 0.21576157797847356
Ni 4.689182095417766 0.31893991099796953 1.7665025210632785 0.009315878084287183 -0.02523100665264687 -0.7074140951271494
Ni 5.8296445207746155 5.522841571468619 0.4380608382012002 0.46471404088661905 0.5058241806633675 -0.35487985627059526
Ni 7.8545403723899145 8.785998426910023 11.22681424132194 0.2012371591100534 0.05329434054776628 0.39100077036286857
Ni -0.08940100076143286 4.73327050769767 5.946664020785981 0.3465165719075645 0.1857110384499963 0.2538691834834725
Ni 7.918956433774284 8.71534855313362 2.5835737319938175 0.1875655751602318 0.4973595948357822 -0.19303456869460303
P 8.420028466943965 1.6896884006273298 3.6204482644164626 0.08399254096257147 -0.013640473601570056 -1.4202300779961605
P 1.9444435337151864 3.1523847195881447 1.5836033689320241 -0.937349907723476 0.08607359186131629 0.22801339876263313
P 4.721236539427827 0.9612267673197564 8.323682637797377 0.07764860102241465 -0.21041599739584405 -0.8427168563279228
P 8.591340859085674 1.4998371925023488 12.341162413462587 -0.6685197320547971 0.9357172572160595 0.1328913235458034
P 6.298987352319909 7.574624126966088 1.3248043888489864 0.8615046784583873 0.8018126619143933 -0.45847268796259755
P 1.8492739978634423 3.3033423590932514 6.124605033437889 -0.8749191520920804 -0.22556853676656635 0.2550318363330059
P 6.81298777032003 3.9037488375534144 6.0552642602638125 2.527274337026402 -0.24262857757264666 0.556955452121544
P 2.364277246552717 8.458623896710307 10.087950924361307 0.20363239881510733 0.40709561904220215 0.12368857400061278
