# total energy = -340896.8023794402 ev
CRYSTAL
PRIMVEC
8.99744719399479 0.00000000000000 0.00000000000000

0.00000000000000 8.99744719399479 0.00000000000000

0.00000000000000 0.00000000000000 13.16867344431741

PRIMCOORD
 96 1
Ni 6.405543545945459 1.9005847443654282 11.122182587187584 -0.2548474882363418 0.2710364392913784 2.393142199094962
Ni 4.66845141358681 0.3120593589506551 5.881168727564526 -0.5937983319815064 -0.8369652985561263 0.4272227288093804
Ni 2.86206094334493 1.6957578601909553 4.855658597024236 -0.07313837185688694 -0.4538164201375088 -0.3036624528565157
Ni 3.3961853954483083 4.347953348962216 5.01149708074781 0.6248469737571948 -0.4974218155322853 -0.13865676527467088
Ni 4.883931275176727 4.664411559820312 2.6226865613815384 1.0247134220408096 -0.8796448397025237 -0.6387687260446095
Ni 7.28900288076169 6.15677312993228 2.5688260433035577 0.4751082396367494 -0.7181484508255179 -0.5400743600954893
Ni 5.027053666855328 4.608339469234971 11.588643537553326 -0.2918646888906393 -0.05609581455230339 -0.6033368675995608
Ni 5.6385741592692185 7.694022963832803 12.230734656119628 -0.759923220769459 0.5581628421660838 -0.06046437593364425
Ni 1.6142679814310956 6.607896132156041 0.5120546140101845 1.85859622501687 -0.05273306872765757 -0.6798076462637905
Ni 2.664234073046483 1.5756509383001123 0.40800273679849497 0.311866843044179 0.2251113946244897 -0.7085407525324249
Ni 0.7684782585618564 8.943012586216447 4.520963460555192 -1.1620812933007276 0.5432152197173161 0.26649818510139267
Ni 8.489082380484563 2.2521150041807876 1.348064111836698 0.4641206302769942 0.7986010969556312 0.3980954724261208
Ni 7.0011115645776085 0.6731952933341968 4.790605254702327 -0.2589293716151992 0.22670239326069344 -0.4672848869375888
Ni 0.7019313400144706 7.513975049085807 2.4675462795561405 0.1890527012287196 0.08274298482618654 0.7089163907042888
Ni 7.447429930027849 3.8682634520644408 3.7449993259716727 1.4316624882028182 -0.35881210144546594 -0.13118051150228377
Ni 7.522567611105865 3.951687781959706 12.597877286214782 0.09053754116994084 -0.9218518120878768 -0.07622498120201066
Ni 7.6949047136526625 -0.3940755883682878 6.948108503212205 1.1746563017522609 0.32996458108615434 0.9552075047301872
Ni 6.771208795219992 0.563155615049891 0.27452470871078477 -0.262012124305581 0.17630491464474798 -0.3423449570283782
Ni 1.7534314963674706 6.382663037864822 9.244303800428249 0.6579098177494347 0.1359033708992498 -0.28426450794587815
Ni 0.15463642478547834 4.790564766190191 1.2787225862071867 -0.5750331355588613 -0.5128546051475876 1.0991514865457264
Ni 6.319608928297736 1.8294689221596285 6.884187039740687 0.6033504944463157 0.6524004578954312 0.5916257498102198
Ni 3.54361756430765 4.229906842466758 0.6098199749041623 -0.2612986431783242 0.7667435861254022 -1.3467939723931965
Ni 5.969158362139348 5.53823462874808 4.641878353199335 0.31926673505267594 0.3770180829305313 0.9924391353881361
Ni 5.212437067757187 2.8749452876514465 9.341765047608845 -0.525499804715424 -0.5107933517431849 -1.3116205098158573
P 0.24871283235147318 5.42972541622253 12.300173354178265 -0.6671945854854703 0.7990361276105207 0.3931905789253357
P 3.7639470499067933 6.143906780520046 12.58919924844688 0.4285265352224684 0.5298159155922746 0.8360476718378632
P 2.453945738457167 8.60681397633007 1.3293773138686786 -0.3332360527485745 -0.9019617580321692 0.8672050712772743
P 6.318169336755109 7.706925303033603 5.672445948777816 -1.05313928148167 -1.0517208038675887 0.5966712826539272
P 4.538951156880323 0.9418437693169187 12.437640850328481 2.298055347991442 1.4938525885783174 0.8472610240551794
P 4.0665491921671 6.094798714022166 8.1614034532964 -1.087401802208966 -0.49974969233451355 0.054841887540544254
P 4.80701209956471 1.0372257064631338 3.8317545107986923 0.2188525581989715 0.026598319313818706 -0.9881451359984724
P 0.365870391069358 5.618248926176746 3.4551303709059065 -0.703196457501376 0.038394283507482266 -0.7132494708620039
Ni 1.6135751780012062 1.2177684808029088 2.610465328929345 -1.0269497675704957 0.5545586697545933 0.33876778120008105
Ni 1.9275231011068459 6.366881515578768 4.8079487338121325 0.596003052942309 0.4593165240201315 -0.4955634221673078
Ni 6.091757576888365 5.703211819533196 9.026348741129727 -0.30505753343182945 -0.725688467956305 1.1823089332015122
Ni 8.565839602048035 2.176968325655631 10.177962592080615 0.44917223649727805 0.4780909764141574 -0.09401727218842519
Ni 2.2144606878939364 5.241840725015355 7.091132822716965 0.4998692486315133 -0.660577594389585 -0.34333637440736997
Ni 0.5533286032820298 0.08183358124066183 8.935813728758596 0.6487420352072375 -0.611420930159276 0.6178402034220585
Ni 1.5939607432329062 1.0788928841750596 11.24965571905311 -0.9693161762174275 -0.030515909200670027 0.7261813484323235
Ni 3.9767366748014252 6.913053549404511 1.7048029938022267 0.37707490431039575 0.11340467557610147 -0.7918190410367911
Ni 5.497782106400247 7.703911158241227 7.934533723370157 -0.17073153432202856 1.2922441621717744 -0.4568382376829681
Ni 5.405855188956338 2.892742238097179 4.879362371518313 -0.6706820298134385 0.10234867487225599 -0.4405487564943251
Ni 0.7343590392568697 7.305234275404815 6.751104899327199 -0.06770511665645759 0.11944188290911686 0.5318499153031679
Ni 5.1461978619020385 4.481871352215141 7.065309249676369 -0.10116648163869674 -0.44937921030176153 -0.33485661907113295
Ni 8.346715774365842 7.111312297165746 9.158549131723355 -0.5606089897137312 -0.23350270401197848 -0.013135251830377379
Ni 4.592243036298966 0.35865353871722333 10.383854773996632 -0.6246220022305823 -0.9611423821573832 -0.7573215214805539
Ni 8.117379844178135 7.079524316415102 4.735692035308801 0.38771130097831935 0.7515866758793055 -0.4490213127417106
Ni 7.350959301777522 5.949265006509664 7.000440355020858 -0.3714480450419215 0.5147122271816168 -0.35008886263985517
Ni 2.414518925083456 5.202782806974442 2.510015129808367 -0.9298854810256306 0.10411785095753681 0.7353930968385787
Ni 2.2179786897262326 5.135742828323706 11.45276858954714 0.5704732841023208 0.030807729409475973 -0.39648724739873653
Ni 1.1269032621216875 3.547522456367027 3.900784724757111 -0.11509106213958888 -0.9810067251814782 -0.9058338393930657
Ni 3.7055446205118225 2.5625269305598484 2.6111896234242296 0.6654218098557637 0.14697017023637268 0.2867448511655707
Ni 1.018618985774673 3.330683980258756 8.45178616259394 0.08774712290899726 -0.22188440304675977 -1.4541809810203086
Ni 3.57322816285007 2.5907159324539237 7.2250193349048955 -0.11311645491172131 1.486409759147027 -1.1962499687626365
Ni 4.244410727258731 6.701667526263941 5.960694463613412 -0.42933257606353153 0.687550523434003 0.42514347768284844
Ni 1.0419313713180978 7.425890041571285 11.507248131988453 -1.069536749003087 -0.034081257954425175 -0.7612218849762244
P 0.20506441677900653 5.380329431416123 8.005170881388032 -0.13402595137087886 0.5580491994063551 -0.19555245002045032
P 8.346805748837257 1.4826893144349396 7.967877362731553 -0.45480063842764895 1.5153066446870354 -0.6124771393379324
P 1.7881616423333597 3.1416566132646198 10.440176993612505 0.04223036942412082 -0.10488301125833549 0.0736245674646861
P 3.9943896660928946 6.119703647709621 3.839023548344247 -0.6790293733368693 0.9055273638962404 -0.16334449782933805
P 6.686083947814999 4.014274024275438 10.387923419593983 1.6166425620240612 -0.25547509451801165 -0.23497980277813724
P 6.4065512600252985 7.673472794561795 10.083437211902263 -0.8408846882151905 0.16541243610196027 0.17176254668970417
P 2.426161621684456 8.368948466252295 5.6844818338188965 0.024019759953365086 0.5708715479820039 1.2992709871115686
P 6.78435406549361 3.947998828631723 1.6790981870638981 0.4591889973033318 1.0228043779435547 -1.2950199251446988
Ni 5.344105709224758 2.7772060193541783 0.45962379028297573 0.006661471180575624 -0.6354275774865186 -0.840833780372597
Ni 1.3469718217537294 1.2447968120157407 6.894208396366802 0.5294220225879657 -0.9885572838352265 0.07754164313090517
Ni 6.623506702946408 0.6084370672785258 9.133383272068798 0.9030009979299609 0.23762495371046816 -0.7153377208496003
Ni 2.706998939309662 1.5329580516140646 9.14264164517732 0.21785985526839902 -0.09507836646308787 0.3200781752103778
Ni 6.375231146526008 1.9796633072913865 2.5096723270722787 -0.5025182562185861 -0.5529118781797896 0.9708351839651151
Ni 3.9879205015982127 6.760735766747377 10.433671839329257 0.4473431537083392 0.06165222559415834 -0.5434905848658899
Ni 8.158255246541616 7.024226006283922 0.17246126731734956 -0.5517055165765145 0.5453466642380221 0.4454369378245619
Ni 7.4379466207407905 3.657813163426579 8.221163597465011 0.5974577831109646 -0.06582589735587373 0.1169466272910889
Ni 3.0887336291787757 8.462692868018772 12.260377645471756 -0.0235998988071271 -1.7127018043431796 0.5722010654267049
Ni 8.99358723659838 4.820571252406833 10.187430605707533 -0.41569595911670343 -1.0150633005455552 0.16323779704814467
Ni 8.60440266049617 2.5608624028386853 5.9416918552507285 0.15443562537548242 -0.6183073728664641 -0.5002397445970547
Ni 3.7180690669326824 2.7295825316346316 11.471323125042183 -0.6498162421080229 -0.5446735494303975 -0.14347809792271418
Ni 1.0928299297971222 3.3567045973917486 12.601564440053338 -0.5002400017073707 -0.9784304798138698 0.04766182485233727
Ni 2.9533220497003736 8.411038523979869 7.831462567896882 0.5613060157807559 -0.4167066597694049 -0.21271250673950462
Ni 5.721953501928777 7.83616463377299 3.5417146042372396 -1.0213619890700731 0.45961220088367943 -0.14961917782344553
Ni 3.1438789827085514 8.414322592186487 3.6381096539315787 0.5216359508846435 -0.2403829760715796 -0.5574318775373303
Ni 3.419821689088824 4.3431127224001305 9.393333016155191 -0.19903038126672176 0.3860711942717351 -0.4269975001724517
Ni 7.15935866490094 6.0334631168590915 11.275848187426503 0.5927827462327985 -0.08326029078223725 0.26364194659952017
Ni 0.48745469378082246 0.09132228899600553 0.5430877089456633 -0.25393577505534976 0.04610785010165608 -1.0430585002069002
Ni 4.599198062939285 0.33615632188481165 1.5041257322493777 0.11800206513879678 -0.15522855359042298 0.26482311139181486
Ni 5.9025232686099764 5.601954549403631 0.3416546618329347 -0.17853200420305382 0.11773749862350046 1.3644008868416826
Ni 7.996742072905948 8.771098363685295 11.187907139066244 0.340439255365233 0.07882950870439326 0.24367810188308353
Ni 0.00785927007803216 5.00087109567379 5.511366452094365 0.459985267952382 -0.5003713850789124 1.157696791079787
Ni 7.737102740745932 8.90949709561465 2.4398260446581332 0.5602881160392028 -0.18078737589613383 0.3598415711512448
P 8.475046362943944 1.778975248801968 3.631801543740728 0.7569047456581093 -0.5785084957019714 -0.12990550144460206
P 1.8975705995730519 3.2410244194944853 1.5985188499547507 -1.1831260297861688 -0.047480819189782746 0.25696890545471873
P 4.687579986209474 1.0321691411696547 8.078348918478646 0.017674020240995368 -1.0820783331135237 0.7151284330522716
P 8.40004364357305 1.666228238672808 12.414832321824978 0.21294853400971067 -0.34699531131619593 -0.9032959034625605
P 6.213996893751725 7.592549754971846 1.3011028362267598 0.20455413929842836 0.5380971817644604 -0.016477428829732913
P 1.7940369753167082 3.217694039056778 6.001938761309691 -0.5161137355148337 0.5293497745891336 0.5521495460924685
P 7.027042207239187 3.9714461758822686 5.95152966395516 -1.4261520999075505 0.6047332337264554 0.470330615742448
P 2.3799417357189707 8.3203802465829 9.988017485478055 0.1202911182832896 1.144606533554732 1.0801906291725072
