# total energy = -340870.41534295183 ev
CRYSTAL
PRIMVEC
9.23482647082417 0.00000000000000 0.00000000000000
0.00000000000000 9.23482647082417 0.00000000000000
0.00000000000000 0.00000000000000 13.51610201061623
PRIMCOORD
 96 1
Ni 0.14487411135338008 7.797785923556473 0.35209807738450216 0.5912585962787882 -0.5735094998254834 0.45946744777569903
Ni 4.028351377235303 2.1576987448523406 4.812962554304627 1.4558609398258926 1.6193273079450756 -2.598517291632789
Ni 8.206870268380607 7.611464063852385 8.546785762630611 0.5532216961107247 -0.21842189841945608 0.10780481289082078
Ni 8.420693441437132 6.928530173644378 3.8551171136638787 0.4541216100827534 -0.5870640985814665 -0.6829639325045851
Ni 1.9848043228965544 7.942671116701669 4.632279479668705 0.3325194862975241 -0.16660825618227434 0.12230583472047325
Ni 1.688033938110146 8.754375427791604 2.3005892154709646 -0.3757546428370755 0.1088311972728061 -0.7467681714447397
Ni 1.4909442706931826 1.4774060150267376 5.0954623616821975 0.6453587205573015 -0.7674539819288654 -0.8147216566665776
Ni 0.17744811490880388 4.109904130161889 8.625705666518654 0.913580316107704 -1.0491131910414124 2.8282566719475937
Ni 6.376038207916956 1.2118585786770617 3.5809157213899017 -1.1689032013185674 -1.4148433597629504 -0.006585109416685433
Ni 4.9321361434753905 1.9846750353253877 0.6806168722361708 0.32438014501984136 3.1415767024985315 1.057074097759702
Ni 7.101840162793201 7.069139642114564 1.455062352281196 0.6953162834223509 -0.409846699424778 -0.024785434474796024
Ni 6.002655702387827 4.592617746765399 0.7993776646618521 2.9594330696848195 -3.535561495190388 -1.5938957552458486
Ni 9.1290508090324 8.992910996593974 4.668218654005066 -0.8043498265139503 0.956694630798675 -0.23532407349143342
Ni 4.776981823248964 7.338159373232714 9.103811104692726 0.649966651642958 -0.7378420725997034 -2.462539101631546
Ni 8.299116950407972 2.1996063875633416 4.299863588029015 -0.0595169244187104 0.38194843035261317 0.8986280656732459
Ni 8.574924279012368 1.6162516316331494 8.851924747202103 0.2135185475805678 -0.8723218236785493 -0.20422786630726117
Ni 5.497030481208294 9.098732873593832 10.640348637357809 0.48951258798753755 -1.934300300718404 2.0281514796426103
Ni 6.281639811312318 3.2994742251305955 4.930309494791336 -1.562408997491477 0.3484423281753677 0.21127011786602323
Ni 1.287131649575556 6.4339498049730794 2.636437692125128 1.0196666036455213 0.30739929419112866 -0.43935987839254653
Ni 6.012610845367655 6.142757255399858 5.127346523697182 -0.18432084297068904 -3.124137423976162 0.8607917115517626
Ni 5.671587171936223 7.399386273006608 13.06786777278688 0.6615353303171638 -0.3886217286077307 0.5082150494930473
Ni 6.546060598827541 8.992301498044188 7.846962298214991 -0.6388412311537578 0.4328752991094674 -0.3877886911834741
Ni 7.847266124007232 2.6213147402292414 6.766877306001529 1.0160652594475081 -0.3448530681622125 -1.2798393607495184
Ni 4.245840776417053 8.63568943746067 5.352795419849539 0.8004561478864989 -0.7366128281782927 -1.0054949401308297
P 2.889466397655273 1.0046844807091038 3.454417991312551 -0.5510712254266251 -0.8968552900435394 -0.8894695391024293
P 0.6309344290848016 3.382015104493955 5.292500314070693 0.04362262178595713 -0.4357901587634172 -0.17861247973200206
P 7.881342633836143 0.03696054614857616 10.241312707261272 -2.439144891077322 0.22188028928170175 -0.7419473530173287
P 6.946556554995608 4.35184734994715 12.180643820930584 -0.20731936074839133 0.12677544045605263 -0.09036964813350888
P 5.830343074502291 0.8767294950081752 5.713189141889679 0.6378906943150304 -0.4920916615686235 -1.0729074652475328
P 3.529522988368529 2.2493082238503854 8.601795777196696 0.49193405294483666 0.6995246650767437 0.8862597739158801
P 3.7357736036852964 3.7952828257279783 0.9976724769386184 0.8543495554708448 0.09144925435093282 1.8224506283342485
P 4.264624413542257 6.0397704701391515 10.671327786374627 -1.1061173763405985 -0.2756220017795318 0.7359767372561905
Ni 6.4897096874519296 0.2099454694041789 1.311733227403257 2.01823010676384 0.26102944867733757 0.43478717142019957
Ni 5.410841845372736 2.8208793411513935 11.914619867532894 0.5944573057217439 -0.3081824522140563 0.044020114334691926
Ni 7.710018132387379 8.807217105092693 12.616619057074717 -1.6870910457536108 0.7132911227332167 -0.5451492035152353
Ni 6.990865252599702 8.021231785838399 5.279821820752508 -0.36132201235151323 3.122305512973745 1.1752705382974922
Ni 4.670956780065843 4.240410698428056 3.1007426055598164 0.8892774776962815 -0.7292029088674667 -0.35278594985604406
Ni 3.8322683059081366 6.361188606885822 4.338087458444418 -0.8783009240801196 -0.8964140887410627 -0.3700089986025499
Ni 7.693570906369685 6.438105476903433 12.603102964991898 0.21583434019793796 -1.5549332579397221 0.14024647835929396
Ni 6.090091039802494 1.5841883139838338 9.61066455779834 -0.6087845209776934 1.1355904460990507 -0.988798196201439
Ni 5.843770512250593 4.584518803914462 9.931131507414284 0.11720245205563687 -0.07012503895185987 1.260415447696952
Ni 2.481397883747449 7.511238491718738 9.685206230437093 -1.0896096084935623 -2.1107219434466744 0.39392617153977966
Ni 1.354084141786829 0.13509165962932473 8.534783258613095 -0.44951522165899355 -0.11751304131752019 -0.42029514845161164
Ni 4.047707573604245 8.217471849216269 2.9479560948510404 -0.16080810456072953 1.0464526134901138 -0.6098782682625045
Ni 3.374128562652792 1.2042121423252086 6.539779069834148 -0.8797762230740656 -1.977988485634974 3.987083977087398
Ni 2.0304520703448747 5.302157172154187 11.033559238890637 0.1714984943950401 -0.202925859666386 -0.15877770439426203
Ni 2.2793491144935953 5.353946079232921 0.7046107984793886 1.1236029347198715 0.5161057650950337 -0.8786449376830996
Ni 2.573090476184101 2.8930033362093304 12.94529022656383 0.34295816513234484 0.4132909492196366 -1.2090664038010146
Ni 1.0445789312405105 2.46230026252084 7.202717713678588 0.19028554519455615 -1.3187764041343482 0.5770427097897223
Ni 9.31110617888799 5.415422319322637 0.9845424006039993 -2.5190887158918165 -1.6616957456089574 0.2246056586326648
Ni 5.6671821596900465 1.9851183069979592 7.4270842881637495 -1.7317410803628177 1.246979119686388 0.06848647490717237
Ni 0.2363256748180716 4.173633667920509 3.255393627741345 -0.23000368971978455 -0.5594491650776753 -1.8051010813122073
Ni 1.840103826281598 0.11196950100883027 13.196419328280477 0.6732929850737244 -0.24971222389230543 -0.5862516299825
Ni 2.605218437619 1.7305787838504678 1.3301502419159386 -0.07423649001707215 -0.2425887254736467 1.621129651261137
Ni 7.896293817958909 5.02196330095664 7.31764512961918 -1.510128700030522 2.4363385319767783 0.47509975499631724
Ni 1.2254060691700186 4.915153297520007 6.6654521299039855 -0.5215138234844825 0.3126841967391518 -0.892975752483475
P 5.7084064252391675 0.6608192511599603 12.735479585626726 0.8434501349495216 -0.3099086908765437 -1.9097174691727175
P 0.5507096442106265 6.269569893061264 8.954484883477958 1.667414650370606 -0.7806164874527525 0.2661852818466642
P 6.411666168599865 6.772997225530965 7.333715574715188 -0.432964516389164 0.235455199752659 0.07049990579277536
P 1.9121539427274394 9.136558722986573 10.904128527913107 0.7524235699583042 0.7050054856856568 0.594599487726563
P 3.037491431814513 7.470817656076154 0.9183028369994453 -0.8322187850100764 -0.11507177886587923 -0.0028904341739176024
P 8.398649910553228 8.709337178893069 2.2039495264718876 0.7263888364574393 -0.17849343765563455 1.3503827181857195
P 1.0981870991420881 5.860365495492477 4.60928845558468 -0.18458232416219178 1.0268623500630123 1.4877601025273344
P 0.1629254267361904 3.0359492157870256 0.9527450459582264 0.5038950819614547 0.43248114899484225 1.1543715833612957
Ni 8.930160350445615 0.9719285510713956 0.7197226685834612 1.0814347859922535 -0.9684152616697129 -0.4493691829994325
Ni 0.5463129433083111 1.6153835579410307 2.7877096912859525 1.4977933183936205 0.02176953046660767 -0.5994545018260192
Ni 9.247570572486119 7.850212033664528 10.91244171873912 1.3525756120719803 -1.5888278538046379 0.4424991953524766
Ni 7.62840073567521 2.738818672766653 10.702671711038665 1.1983230492415815 2.0268810975706186 1.1084056581541428
Ni 0.5436597776514424 3.720646957858805 12.42470366295237 -1.8323671161170119 0.5880398322311743 0.3657805623434991
Ni 4.750145417405383 6.032918228867323 1.5250761894811637 -3.285007235012762 3.04259951520167 0.17829032050589294
Ni 3.708863319229621 3.419092932939232 10.623399036777867 -1.8151931754408868 -0.1622579496333786 -1.6404694892403295
Ni 8.287702704839266 5.35345663342779 10.53089562657347 1.0460456078596823 -0.6822224263528702 0.017993351253627075
Ni 3.159769769658577 3.4656456933857185 6.9110671167103765 0.22606038880132037 0.8103543808368173 0.13844053549880672
Ni 7.35724775963281 2.2156842205205587 13.154384244963612 0.18262751442866615 1.0319821877880808 0.33621904663629837
Ni 3.6546825920843053 1.1636158449788976 11.756981378974764 -0.1141837198339711 -0.5790813374863059 -0.4320594880763914
Ni 3.698917411076305 6.146968336289284 6.847135336251147 0.18996852817476964 1.553547433335789 -1.0978474230223223
Ni 4.418338100832827 -0.12044153085084704 0.6901767646412894 -3.307043131766879 -1.6356679540866281 0.07791368175834323
Ni 5.322326033256176 4.5722087801741 7.550743232571342 0.7834452151507991 0.2714809830279647 -0.5661944542213088
Ni 2.379399224923517 4.15370491230783 3.9394033752379873 1.0747555741998651 -0.16735207632683435 0.9483344317594377
Ni 0.029074927790065007 1.0872253600724633 11.56280899325291 1.0281209050604616 0.5993210615719485 0.07574418491085019
Ni 4.204588806388397 4.8202008113246535 12.659884219282967 0.1390102919593477 1.1323315728421208 -1.197773861606331
Ni 7.467114490644882 5.07617173258149 2.7934131201397014 -2.043218658388378 0.02716267645772096 -0.4272067879697804
Ni 2.594053532366113 5.158047704435993 8.528822178099663 -0.3090453144349839 0.011991625144237412 2.095291467824217
Ni 1.0024311830402004 7.250797914430143 6.8020869290434485 -0.015460043308812083 0.8964835085264173 0.6203076911259445
Ni 8.154610385149766 4.680265485189838 5.165611027349239 0.3483502826821936 0.7469831156690232 -0.8000589124480801
Ni 6.5667004360816374 6.923358670797715 10.473019121858092 0.2578284252415366 0.7275049523397535 0.5194456281015442
Ni 3.6768831150189123 0.18105062073109596 9.022187243601998 0.8400981877581531 0.9123235608824675 -0.13478159858998076
Ni 3.8445783296484985 7.93456293902422 12.058714559528667 -2.3512147056232413 -0.7394724091142748 -1.1246938537912048
P 4.24437243900166 4.381952884375942 5.380571007549379 1.1697133559246886 0.7726167570767274 -1.0372668332257877
P 5.778637280862164 6.920495874579027 3.147061724895552 0.6077010581055277 0.11557314398233 1.0818407631814209
P 2.9867091208255765 8.328040427043243 7.056689249011221 -0.5466736105795617 -0.9142205207948643 1.022973299421251
P 6.9201357163450625 3.0178951299562615 2.61167542831612 -0.7859648962488592 0.5814002154274697 0.04043702496912391
P 7.07412644843099 3.4253356756612763 8.532944604654576 -0.07872897857078699 -0.17551018665759452 1.1399471804058496
P 0.9795657525967366 2.8195587609601915 10.581931895291483 0.3909542333956493 0.6716127691578239 -1.8693843167713096
P 9.11281598402448 0.11971290303905815 6.88237174028995 -0.4611350652861091 0.3066534171640396 -0.16373787661301475
P 0.5749723039053406 5.932738830866234 12.483998637019976 0.1460826254250968 1.0696092541122353 -0.33567191588357675
