# total energy = -340867.1533800797 ev
CRYSTAL
PRIMVEC
9.28812002469336 0.00000000000000 0.00000000000000
0.00000000000000 9.28812002469336 0.00000000000000
0.00000000000000 0.00000000000000 13.59410251369832
PRIMCOORD
 96 1
Ni 6.140069590030074 7.554445919555825 0.4158458487126244 -1.3013150141247913 0.3982050014207916 -0.36756542215806376
Ni 6.8779364149830196 6.761899932465748 11.642057414150491 0.23187828103467806 0.23039269762808706 -0.27086597515178507
Ni 6.747103957387703 4.306083865588545 3.4996930069031547 -0.8778427534967784 -0.18806128384972773 0.11312982464816
Ni 3.2910502532508294 2.705954425211683 8.191887734001027 -0.17300053286186334 -1.4972191910577055 -0.37648252214203554
Ni 4.795604939357081 5.3301733948761 4.820060559181622 0.37647686571508066 0.7006690630938319 0.07006770335136321
Ni 8.732263122111881 3.316471837550019 11.982671348903827 0.2527975476858485 1.0962692799019247 0.9472748801466719
Ni 5.70258985233328 10.041200713981658 11.267892932518993 -0.16798251082198168 -0.40794691129890387 0.8286310676588181
Ni 3.8041445754487935 1.1421972625533543 4.096269880010707 1.5942461966067318 -0.5317491280592455 -0.7422664269196443
Ni 8.39938619127569 2.776209764502538 2.910225260804224 0.638407743160765 0.4045705386275032 -0.8005335380916536
Ni 2.250307124895519 0.7311682328460495 9.787467853227088 -1.0470313688117194 -0.09646110574322743 -1.3393169472898612
Ni 1.5546362288688496 2.6314822794641852 3.296175437838441 0.3879900085610028 0.4756715683393872 0.7937172865007686
Ni 3.309617205027987 8.09527456792017 10.787668338006965 1.0820518507509622 -1.3433684916514153 -0.06936553507801603
Ni 3.1243656526540975 5.750312212628946 10.818214178081769 -1.6378461926848695 -0.2854261323541471 1.1256793576329258
Ni 7.324091256711763 -0.062362294958574434 1.888642595090784 0.09469835741584981 -0.09213933843942196 -0.7133384310313844
Ni 3.952262224268368 1.7508198984221857 13.64276953572852 2.0227092255811163 1.7881454272944752 0.7657904781835134
Ni 5.302680559828383 3.1540690602495705 1.4513198266211205 0.0022553716930799866 -1.0686435477648564 1.0395018932038937
Ni 2.417474707729576 3.038998542206947 5.642966623947534 1.6062018263067113 -0.7558174261312015 -0.3884594919982536
Ni 5.185826722755637 2.825241749710949 5.34728118300934 0.6598643703726442 -0.5558141394282493 0.26432611715073834
Ni 5.829177639112109 5.589163331521552 7.034078070626149 -0.16888136848716723 0.5259530902027587 1.018474383109633
Ni 1.1166642208147823 6.287592799172941 7.8444767530693404 -0.6858255703230962 1.4847886786038365 1.0024319849347898
Ni 3.9885973495071068 6.573759774787858 8.644925072611647 0.5547139643855351 0.8328350784378366 0.49018313169200095
Ni 6.83775600808558 7.229389585716317 3.2921787598245786 -1.80996895092747 -1.5607092411915509 -1.1243449550922184
Ni 3.682888169520434 5.719048400882116 0.2578335657118565 0.33980779242882125 0.2870677817226282 -0.26547411471225246
Ni 6.939953191879509 0.40526389365523796 9.170405102761006 0.792322463035771 1.3014021745219588 -0.17501370663715018
P 4.504153023491438 4.478852184751579 8.218572502613219 -0.7768341375921848 -0.21775341159752173 0.21657121836396248
P 8.910985126161936 7.585338206504713 2.440290974383196 -1.8601694830412607 1.1231555627698075 -2.2709484644723212
P 0.602494334326776 2.31115359867849 9.077258263044948 1.8047714658869303 -1.5915879330482783 -1.8407782229988428
P 6.443921146027036 1.3542543290987674 13.881346042351042 -0.47169355752824577 0.5414319025646482 0.005028563562842953
P 6.649736595967022 6.778265599815098 5.533506130353836 -0.6062748671819623 0.4423912090197027 -1.9967703942281676
P 7.424449392755878 5.027900819270391 12.88888070386432 -0.4978349918103039 -0.2417783137572094 0.5406628856091075
P 2.0973039249830063 7.735852190271013 9.090865358769577 -0.7244623088586878 0.5299830372977582 0.7441952685112408
P 3.901892749787365 1.4126673154552174 6.318715431496553 -0.5975721972016419 -0.9683905790793645 1.2484513333565403
Ni 6.3916290307166825 9.39103231758295 4.300168261993312 -1.1667655861502744 -0.2871497999134732 -0.9779651101416771
Ni 5.842376057559003 2.5656945258685844 7.93126123062064 -1.0843563305144226 0.6416252216567981 -0.3866376082981664
Ni 6.043677481203991 5.529487160852098 1.5489797638201808 -0.39572620086299587 -0.32503140545059506 -0.18716731128054861
Ni 7.204274509375429 7.737654085541032 7.44417085784264 -0.023668033040901173 0.6781654826746772 -0.25926490057774704
Ni 4.636480868398472 0.23322283428417567 8.399021168161712 -0.7795335388012188 0.7039117384008458 -0.1702527949133971
Ni 3.03891494912741 5.366684994393862 6.701892175914131 0.8356218971543544 -0.37270994247348066 0.5553410564465726
Ni 8.216503109488682 2.450986244503955 7.467920580551089 0.13164433851257976 -0.8889023537450498 0.28378422587534996
Ni 3.101173217142561 3.808630737383944 1.6166381447734202 -0.9471941475074075 -0.900111592197308 -3.282379824692244
Ni 8.83084722724582 1.7236893000524622 0.5318117415182878 -1.2426961760403177 -0.13992869000855904 0.3597384699144772
Ni 7.4410472631039415 3.460799933430584 0.9871060932764064 0.5701336413747149 1.8758575832004791 -1.8335020010524035
Ni 0.9494409092610344 7.365618441001743 5.836954581945033 1.0118699904192379 2.1441529694116106 -0.3055912944481124
Ni 8.42705550060243 7.769075795326987 13.378975783445677 -1.4033973227095378 -0.6469371207880149 -0.06548702595921625
Ni 5.259332904028486 5.23870398962275 12.005971526606766 -0.21209184243637022 -0.7956443283201523 0.5767837997013808
Ni 0.7243414646838631 4.099906178970565 6.994750313139986 -0.8211604703133857 -0.5815249139307921 -0.9430826964421951
Ni 0.15547012457084894 5.830626585824082 0.8476440434368885 -2.061409470364792 -0.2458617397979637 -0.11754723698956529
Ni 1.9214426618771039 5.625591337959776 2.2036993389936805 0.8591780872077397 1.546005359322473 1.3228783421178636
Ni 3.236408243593492 0.6055677732177521 12.016751318619058 -1.506295956547993 0.113111826926031 -0.13802324545573003
Ni 2.047463873339071 5.078326022471086 4.701914744624032 -1.149555392919575 0.8975001227163898 -1.7699630999584937
Ni 7.028803347307366 4.01804068974402 5.962441726509957 1.7154338585623619 -0.11692837245864379 -0.34259306848344223
Ni 4.265634103212597 3.802491290097951 10.342569555516372 0.31909215714802464 0.7014902734435466 0.014027424627343585
Ni 4.305935255669368 7.677262729635541 3.307241303945147 -0.5713785695254094 -0.07872615035730957 0.4354901110244952
Ni 1.9420158475631488 1.640356287874045 1.015268601772414 -0.13061049793142665 0.7494038092953739 1.167726664511963
Ni 2.0324264071423634 4.543218855995051 8.885404715011628 3.3093846354158614 0.2682113111377574 0.612698254209803
Ni 3.884765456602233 3.3964332621871116 3.5515950211756686 0.854209944569187 0.6952748886614541 1.1852351057093717
P 7.2066894205620535 2.6896537747019726 9.528555007977209 0.47141099329082037 0.10513189404434796 1.5256093121646241
P 4.1066029134534725 5.548778585985243 2.7649860003567066 0.49746526717571093 -0.26758679017988113 -1.1035619569085962
P 8.321737508505786 5.592962172580509 8.40474450767401 -0.4062672096036358 1.1781674002293128 -0.7270210707247995
P 5.779997043984521 7.914016907124156 9.431710567709631 -0.24971325233356997 -1.3244498003700416 -0.0009214833730048647
P 8.720123549339121 0.16253095335573892 6.410897235549957 0.05144828847796301 0.2254808621487665 0.2281365546040587
P 4.034703576931724 7.826318478569919 12.995391290562358 0.26038307334259025 -0.12155918636243582 -0.5392744899020132
P 5.987697982274062 1.8994298175990332 3.2506487890986135 -0.31159224922655365 1.095761744137887 -0.12034639700125725
P 0.6369746220117892 5.603634222401396 11.42215931674451 0.7062450145197127 -0.6687038230411452 -0.02513099073967285
Ni 1.7500118319866615 2.8625521275442862 11.047668822102818 0.7429184586813463 -0.2899229917832362 0.3110060377057805
Ni 2.6199092820082885 8.607152146404871 7.245955876456556 -0.21428627898452773 0.5756573994064216 -0.6927523793499165
Ni 1.5681597315139428 6.8913484601887305 12.848058487878436 1.3153894899399863 -0.8678807571880601 0.33325816423576154
Ni 6.4492896793573 0.7026639215359353 6.568847288147069 0.0591068334644853 -0.1995201764189467 0.5312801588426269
Ni 4.4943169044659195 8.54965868392333 5.701597881122775 1.2521161838026371 0.2098035606228258 0.3906302743973272
Ni 1.4115155885815966 7.679872691341084 3.459521888125663 1.0715995450693867 -0.613932126616904 0.75261511714382
Ni 8.947357403880469 5.721463312068741 3.4138057617388853 -0.010208822212201775 -1.1077119745212278 0.8545485588555283
Ni 7.8565977496022015 1.8587014116246283 4.916932863809044 0.5124200887133304 0.06311132663818808 1.0791709296587415
Ni 8.612195595536935 6.027934117891194 6.22611287560948 -1.8010341103316851 -2.0729570659930747 -0.03735838604380017
Ni 4.9100717296030485 0.2203151339916716 1.7322696652609355 -0.22118686275910296 0.37927525439582416 0.11632056367131581
Ni 8.931781226726747 1.3049251240520028 10.73546631746011 -0.6098515287896271 -0.6519574568207417 0.9739400481426841
Ni 6.432097369332529 2.9906631659946776 11.639310917081703 -0.30618444794742106 0.49686080082249273 -0.2616038331235688
Ni 0.024197410089970228 0.04285167019464404 8.656561229283195 0.9557096411775864 -0.2584082090044066 -1.1328905306693844
Ni 0.555283749440276 8.30605916203263 11.562369060239886 -0.5290471557470502 1.943845778314994 -1.839043756806239
Ni 1.659471238728167 0.6349674592909069 4.508891822289189 -1.2543239900872334 -0.7249708730639902 2.7225233968738207
Ni 8.294226097218173 8.046056820312785 4.730666119924779 1.5153243852988483 1.1202283618206836 0.8959795723068054
Ni 2.7195150803365706 7.724074854176249 1.13397820521088 1.2030448801972828 0.4479882434915059 1.236577978957722
Ni 9.406264834298577 4.23538269654016 9.712374332255031 -3.1172970040155605 0.5713513158318998 1.3887260938506083
Ni 6.422131216627731 4.903059199041891 9.35437396577 0.3263871481475411 -0.29146153991494966 0.7113833641875426
Ni 1.1620645511233092 1.544029195887602 6.736040877716982 -0.7793913567963996 -0.7458775413096703 1.6579884719606994
Ni 0.07771648604552736 0.7160703938696767 2.8004257508324053 0.07749716304621493 -1.0760601519439017 0.3433019216250088
Ni 8.056468802775115 7.547024711716931 9.637334682378677 0.14902371033129175 -0.639103483676209 0.565149300786246
Ni 0.7766103596943451 8.867070895045178 0.7839841981215012 -0.01493605248454202 0.20864553575898262 -0.17808026137761587
Ni 1.4234322464755902 4.1961496778774725 13.12696865537755 0.31115259058597383 -0.03803227218237321 0.1362761808576363
P 2.3246306607238405 0.1216818018220029 2.5751990590119385 1.5271735713279506 0.5986955121728076 -0.926422719288011
P 0.983193937154076 1.255818833884003 12.707019315271653 0.7519350603576598 -0.7647684646769022 -2.3962995137770213
P 2.9278568989025624 7.185698269478324 5.308035160978724 0.7199865324755212 -0.8535316875552398 -0.2355300188546524
P 4.095011339757678 1.7730556575790215 10.23028268702233 -0.35282297374156657 -2.0177863343582025 -0.36385454896537983
P 0.8634719286412177 3.838854279696536 1.7077453133487763 -1.434907220392361 -0.2855814269850888 -0.9386256891121061
P 9.131243602621922 3.840349667008253 4.684432645256867 0.029109772881762766 0.307254026862516 1.298659321669499
P 3.525816773070455 3.7863578257473147 12.73964476540294 0.6574459907391387 -0.02837649426016403 -0.35138855528788515
P 7.5145998849765325 8.838519214323327 11.602933066491202 1.301370549953075 -0.012439254204617287 -0.3898142062539351
