# total energy = -340893.462010775 ev
CRYSTAL
PRIMVEC
9.03027388049502 0.00000000000000 0.00000000000000

0.00000000000000 9.03027388049502 0.00000000000000

0.00000000000000 0.00000000000000 13.21671861818036

PRIMCOORD
 96 1
Ni 6.209143879112032 2.0917274232947967 11.353742216571218 0.7010205328959798 -0.626195003144657 0.39892722429879685
Ni 4.683695882447035 0.5292534988512102 6.068323986676331 0.06937736215255792 -0.597924438334738 0.2654198644355493
Ni 2.830485075516283 1.5395713445616157 4.86971319723399 -0.7693913081608943 -0.31651025535346133 0.010790405747284643
Ni 3.121124431048664 4.311874367329875 4.9621768776162405 0.4360920062745522 0.5978077102512156 -0.5527349862822932
Ni 4.999141399534409 4.570293706688898 2.656798599318094 -0.027447811798307565 -0.01647562905752001 -0.055303914778627325
Ni 7.054043367124341 6.042697876279258 2.532389423079658 0.9114208465625401 0.17389990474768113 -0.43869833354914767
Ni 5.198999414654577 4.411622769418136 11.740569337314852 -1.15737514607431 0.2997214659308967 -1.165392874172464
Ni 5.6574393140584105 7.7563096837638374 12.45942697562344 -0.9646372826845193 1.1356904620120247 -1.809931412821315
Ni 1.8105969458539364 6.40047731596212 0.4931974224563153 0.12314941366769114 0.2775300174355221 -1.6493019999302951
Ni 2.3856086470464137 1.6006972665003663 0.3264507115129544 1.8540839389688133 0.08679478629805698 0.3284460875590989
Ni 0.756619533384856 8.890493986269847 4.488344876876227 -0.28243979603231356 -0.32736339601788134 0.657098634702049
Ni 8.781733371137582 2.406920092721617 1.3439286611538128 -0.7347456930625669 -0.15779400032475405 1.090455244323309
Ni 6.731147874324237 0.5520901577359651 4.654135281846282 0.3879699539563447 0.13019063678518866 0.547116097433619
Ni 0.5795160016597617 7.215603991944283 2.473257385549842 0.601405454904803 -0.27068368393764997 -0.004003207622122138
Ni 7.574512215826043 3.9139824523549565 3.626469377539845 0.7855018405695118 -0.40053673487776176 0.4432525285787334
Ni 7.347843318413638 3.8209706343657213 12.660888767333404 1.9491170540162626 -0.24718560081570978 -0.29631141180808324
Ni 7.966931785004703 8.825448925592521 6.743896814580276 0.18255346665762107 0.5243852314950066 0.6829644467252174
Ni 6.931656069142972 0.9237969883785165 0.6003109156855491 -0.900581846965507 -0.62227381371338 -1.446348115239451
Ni 1.990461935243216 6.629530205602601 9.011964711481712 -0.055824820279103855 0.35781477052920313 0.5299804661945969
Ni 9.210337246596131 4.715003840987682 1.435057667099285 -1.1541273285609734 1.2278148880531112 0.4992161884285467
Ni 6.348553242812791 2.155851396065821 7.046162647361311 0.5889538594050114 -1.1159029949724524 -0.13588820139059823
Ni 3.732952557672414 4.480144485428069 0.5966662972641456 -1.3919793106805833 0.1331119241970417 -0.49473115607399953
Ni 5.805725436699307 5.485358420504736 4.836936013180056 1.1283239943446244 0.06998285694704076 -0.09672695781010439
Ni 5.3432219141794395 2.949540202542503 9.235445922316428 0.28912697824450206 0.3754980467415791 -0.1449783366173245
P 0.08530989764331069 5.621390461882389 12.502777707025297 0.21295521887793004 -0.7594280263005952 -0.0009317677856500082
P 3.9500403348045694 6.150230374203123 12.342960828035812 0.37656942542888694 0.5355060239985164 1.185047415178598
P 2.265217039528697 8.356840938125012 1.5730673383934086 0.4856088820577572 0.5090303463054912 -0.2779653052007277
P 6.437546589053946 7.571478043899404 5.798002746724123 -1.304399823697702 1.5180446124434888 -0.852932363408344
P 4.719934370368471 0.8981546234889796 12.595149278616915 -0.5911853198386915 0.37937244209532084 0.8123343873813236
P 3.9419492096668654 5.807703066615776 7.883428845106988 0.5633844955763395 1.3112083619791028 1.314695292086439
P 4.726959923222415 0.9040477800345886 3.8184557031705757 0.8137001573805986 1.228128305528472 0.7786025423465172
P 0.13405531448854266 5.403661535325259 3.602890430165894 0.2653442740026075 0.1809511551675077 0.09084967309372095
Ni 1.4933273135011427 1.238231114823677 2.630152971032576 0.4867386247868263 -1.6626635088388655 -0.7943495207681287
Ni 1.7024955406938267 6.456979737822183 4.751344371000701 0.6358055296512276 -0.13526136643987674 -0.1361275710949139
Ni 6.277792018952242 5.913944235416102 9.098944306712033 -0.7939186038782972 -0.9948616287866996 0.030462687365231406
Ni 8.44593361737567 2.4912447875161288 10.324411129814566 0.544778707549694 0.26963981605416787 0.3680685870467274
Ni 2.1015613912355997 5.094654603308402 7.099571297489033 -0.17250251017952226 -0.4115071178463365 -1.0056980572805712
Ni 0.6127663720498744 0.07848210778101357 9.199351015745092 0.21812827843843724 0.22769406775000142 -0.4044630665153615
Ni 1.4730091979209698 1.0588356996611394 11.27877740035397 -0.6664623353051361 0.6059321391305629 0.888052861260561
Ni 4.152878340209831 6.918462839426246 1.273944943849466 -0.2894511943531402 0.6915527026148607 0.8397901695994311
Ni 5.754316089144675 7.9528535884760405 7.935343887982727 -0.12449101529725012 0.2572491556992989 -0.2851867626498314
Ni 4.988070284111612 2.990600856561634 4.832401912809921 1.38469074743897 -0.9886449584530264 0.1688021785097996
Ni 0.8364426367941609 7.351699245237074 6.870327869075779 -0.34448745729267766 0.24066579741932098 0.02722155472011441
Ni 5.307398818843197 4.344202746786328 7.080407250873813 -0.20611248492448372 0.5489899174175642 0.3891716875739297
Ni 8.333660225816432 7.20980655629874 9.379495040588338 0.334024867198457 0.34460392826588393 -0.7382755605926963
Ni 4.6864049645243915 0.31433118132622123 10.51259119512661 -0.29600647897315474 -0.9164152144533378 -0.6752511372413597
Ni 8.092831859413044 7.096648197927565 4.542414543030823 0.29359761242134597 0.1606828918367749 0.18904601636050025
Ni 7.429883353989579 6.220404630280243 6.987758449882945 0.2337158484640491 -0.9613614401467251 0.5134531579635351
Ni 2.3656517424098884 5.3058275512383295 2.449560141591847 0.31877899678298005 -0.3770425084105635 2.0502010032434823
Ni 2.443366276935651 5.048536996078206 11.289469244285938 0.12400584813071547 0.657136687028836 1.3806011507506288
Ni 1.1541773282369008 3.200672111113437 3.803771575283945 -0.9253199731421354 1.1922891843426755 0.30395504439627
Ni 3.578083365583542 2.571433617005877 2.8029617046377013 0.41184547502236163 0.5785437198152811 -0.613862449721233
Ni 0.9909912541705453 3.3828849716364258 8.390435361938948 0.5018518262791808 -0.29784378929220967 -0.4024128688545522
Ni 3.470460564923765 2.6819731960356075 7.073376279855715 0.43519032039588923 0.13985361379624947 0.46436205686383897
Ni 4.308253227619809 6.956976956292663 5.916873656169083 -0.867898497799873 0.17871558096876963 0.5830467498919572
Ni 0.8853018350866418 7.3800904254077695 11.40700547929412 0.1512759967005782 0.32940947991363273 -0.35708072057665596
P 0.2009163631850566 5.6307006739549035 8.11555383382319 -0.04627548602777192 -0.5949627846032527 -0.45297824050692953
P 8.569404548187983 1.724086924850357 8.05898639399327 -0.6133441153239179 -0.5940029917931446 -0.3599426155054833
P 1.663042275373927 3.1648219249564216 10.483447793165771 0.19864188757905143 -0.08969936153936164 0.19637751702490694
P 3.930598155762742 6.1456429952188 3.9036500133119194 -0.635086649207332 -0.2587146845012319 -1.4013208997964834
P 6.834688991320797 4.154052275776685 10.368647731055718 0.4568747473478583 -0.20440578664602216 -0.2420246254400606
P 6.481009295848334 7.888205859836726 10.191966816134691 -1.1430636145476445 -0.6378086761241855 0.3115814505932763
P 2.496635860850068 8.390271010959589 5.804796221546773 -0.15420833985602472 0.19384883706578226 0.049119383234470244
P 6.823789451096233 3.8210157857336777 1.52083442988726 -0.19984927762359128 1.400779939691349 0.2864378614481132
Ni 5.183440253256961 2.747569103401996 0.38312109646181286 0.07981629809769479 -0.6475256463016332 0.6641491137909271
Ni 1.444943107599558 0.8698049825768044 6.940072284129959 -0.2122790187465118 1.1312041441058969 0.3628980985893815
Ni 6.868823425495487 0.7470203525574233 9.118953586935385 0.1741950673905968 0.36486087874270706 0.2572640680976343
Ni 2.703447186635452 1.6409542261698815 9.240151597884795 0.4479159954926738 -0.8785420935566483 -0.3347409194288751
Ni 6.3344389251897635 2.094255899900329 2.6872631303053254 -0.16752716845211793 -0.767824992115039 0.06089040772746933
Ni 4.098209063888779 6.574725475177681 10.131434183170882 0.6858661937530446 0.8305390833148083 0.25180355920369535
Ni 8.25731829287653 7.35569062616438 0.14544339251438967 -1.2966834288900506 -0.5094967444189483 0.7290581557594863
Ni 7.6849434315726795 3.927103439882952 8.347190284738108 -0.290250550325984 0.013779570282595625 -0.6810353480233046
Ni 2.805462187395101 8.381493585028954 12.518293523109675 1.6319133721402026 -0.04767673725067272 0.03789651793545731
Ni 0.36390557728712425 5.248927797340255 10.304110171754218 -1.0763841109422236 -1.719703432471993 -0.14572395653409742
Ni 8.552626299855556 1.9588379171268762 5.655724465103445 0.431970785017327 1.027037956408928 0.20677300132661808
Ni 3.6512105211249812 2.6067961683889687 11.47219050921211 -0.30769497105467647 -0.2518534386050243 0.10870829854169665
Ni 1.0749908591157746 3.539009371754472 12.74296492400371 -0.24718560081570978 -0.03752756463181279 -1.449149332133672
Ni 3.399238797110067 8.354222158783568 7.8090844086854565 -1.0991134342189395 -0.1978877830218463 1.2826629462412427
Ni 5.636416837138126 7.764003476863529 3.475150889027028 -0.3057242204815509 -0.44782420710981585 0.26213039505100016
Ni 3.236007571675755 8.357175058247885 3.7104482128558143 -0.6951751298587964 -0.8342604980304535 -0.49855618624704456
Ni 3.4009184279980276 4.150051864575789 9.378252474942192 -0.255527802132818 0.3606879783119401 -1.229625716009605
Ni 7.199683619603018 6.078728667908098 11.421306723580486 0.17742514429212025 -0.07049347803487215 0.0865711003230251
Ni 0.5088179897143521 0.15913780241542605 0.356651558511323 0.32906135254559454 -0.2535061437170989 0.1518562946840804
Ni 4.607895765922604 0.38210880279224074 1.7736838964952377 -0.6198641758306227 -0.3309901941371913 -1.8772722041598189
Ni 5.9963364516621 5.6592363385030575 0.38331163523458694 0.42554482688632517 -0.1057805833719404 0.5405227604868175
Ni 8.021546879684205 9.005052037047657 11.30811856530646 0.07475199620090997 0.13111751947483224 0.47960869861026434
Ni 8.850778843015803 4.635663857215507 5.867310999563848 1.6862749776102184 0.011356305553083668 -0.3776477460947303
Ni 7.904613866951915 8.731868200367042 2.4337264598770583 -0.13390639507387905 -0.3114243561901217 0.3180914837976522
P 8.492809767587527 1.3950959973762012 3.5004871276418243 -0.18805665586403741 1.5196952606730343 0.4598009198557178
P 1.9135601253406602 3.303454685128337 1.5995007552495337 0.3019922642429444 -0.07867292852187097 -0.2486513867279589
P 4.681122254473546 1.1036800383149783 8.387183560418762 0.6885761364850399 -0.11068059177671907 -1.6517018676210393
P 8.521146766116674 1.7866667208372886 12.517209890278732 -0.28182350260455336 -0.2046464419019185 -1.275967536498938
P 6.3161616514412 7.870614886881094 1.2292938530504787 0.0033822862086715943 -1.1187762027551893 1.5470021760181034
P 1.6474921442499015 3.0800005651143945 5.994667657102449 -0.8382557352327756 -0.116226975516245 0.5314660496011879
P 6.939756224554268 3.7926065450158 5.738408359186438 -0.9281790398574853 -0.5809862678185026 0.42481746180199736
P 2.604990113670731 8.45680606677946 10.198151650517294 -0.838046190325131 -0.25457315152903254 -0.37769248328973665
