# total energy = -381166.74565939745 ev
CRYSTAL
PRIMVEC
9.28375481895704 0.00000000000000 0.00000000000000

0.00000000000000 9.28375481895704 0.00000000000000

0.00000000000000 0.00000000000000 13.58771359385841

PRIMCOORD
 96 1
Ni 8.674183427841388 3.1107077093636297 11.020913318396467 -0.23773062605039702 -1.0369968673938528 0.5104071720483597
Ni 8.949363202853318 3.151537662823448 5.94697555897016 0.33613600000418886 0.3303026811518634 -0.31401397129416886
Ni 9.067953886231154 5.451495068493145 11.81921782045142 0.41503492849393686 -1.7052777439649665 -0.3155872293185597
Ni 0.34300317382867546 4.025352512641196 8.837204304777202 0.5235588789389694 -0.6582476607048277 -0.17973733736506467
Ni 2.364572338839396 5.185719737058932 12.590959643370576 -0.33286015746639447 -0.7293265789295246 -0.02338109792810167
Ni 7.9911590222147995 0.805500340373894 3.8999048479933704 -3.2279434001202345 0.6624622130068075 2.2163256349211182
Ni 4.001428276609829 0.5273404800821547 5.962777437956963 1.8054975454196776 1.9265407113776434 -0.7585613074249259
Ni 9.149910873303293 1.7012944795995821 12.975518760281751 -0.9349490115914671 -2.027345695911863 0.10165164880523136
Ni 4.353653932422812 5.703976063102789 10.136108359687011 0.14134022564410498 -1.85950742397723 1.1190657089711502
Ni 0.7228535703226575 5.402727504708602 6.592487096714738 -2.229419234880283 2.408622811229065 0.5157447822111891
Ni 2.8682717374105398 7.718810792406426 2.5255210817114935 -1.007123733983504 1.5252904953726247 0.6951327066566351
Ni 8.269235328713647 7.537174130414307 11.293890058402482 0.6773666409224657 1.5076221315585843 -1.0934701198902328
Ni 6.082678987507723 1.3248382238479626 7.2906913697588225 -0.8670631463827713 -0.9637253123932112 0.2910205957227891
Ni 1.3262679220818898 2.0245269692790924 10.03781474935356 -0.16517486616985746 -0.26768526343095833 -0.75692994246909
Ni 4.355984154869018 3.4284070812027463 6.823111347479349 -0.9804241132051309 -2.0319153175604163 0.8944356248584531
Ni 3.8826612018914455 5.741584553658888 2.7277064065021484 -1.045485107370522 -2.1152332010534667 -0.37511520948086363
Ni 8.03923030439191 4.126972492307219 3.483590647905908 -0.5260597909839521 -1.126205405339725 -0.33944321000055094
Ni 4.632055170338461 0.6710882821242491 1.6754058010597803 -1.4341983672507945 -1.023084885298451 -0.5222239621776297
Ni 2.2296979496024165 1.8611421691564598 12.530562319990963 -0.03996805575250536 -0.3056002933091769 -0.45525855190067394
Ni 6.661418975850515 0.9162221132122692 11.711291386173016 1.8200741576822719 0.8589592863287142 -0.6639796780925984
Ni 7.3833423139456436 3.807555625836437 13.321204010862255 1.301948533943732 1.0031027857495691 -1.1223513217009573
Ni 8.801482273189507 6.179016510712027 9.225948538336784 2.0546107022754034 0.5708412089647008 1.181964662488216
Ni 7.493067011522175 7.641792762869671 5.004572328942968 -2.1018308116046316 1.791833417669024 0.3434160786053699
Ni 0.6842062276082698 9.092277323717447 8.354976374228311 -0.39380764368404436 -0.9349551822390544 0.34129851804173483
P 6.392069398831483 5.591391969058402 11.59931444969031 -0.2705648989715985 -0.9185908819484181 -0.51850151902072
Ni 6.0198186839887535 4.398875101886835 1.5501271007486914 -0.2217936431051664 -0.2162860830233759 1.0345304081312312
P 1.3923032697307496 8.774308722990122 12.72281495555773 0.23571565250289725 2.5934437337646243 0.9024790639882201
Ni 2.1893878864094813 3.974496104034356 6.254926988305228 1.709016385071792 -2.2276526298981634 0.8136114543215343
P 0.6222315942939539 7.295852209033109 2.1659770420166606 -0.9350135462808156 1.4749277266493568 -0.3525612354397476
P 4.223495690606839 6.8608433119738335 8.49376108097263 0.8132088195664768 2.659992368219135 -0.9987198261905251
P 5.6024025022105945 8.665141050699537 0.28683831424677286 -0.46391108536934944 2.4047748982378843 -0.37379391956627883
Ni 1.3974000510971525 5.385431869579989 2.244513893833095 1.2454377433411972 0.2104147118442634 -0.7037464164675752
Ni 8.697411382265322 6.309016928696982 3.8610031303984007 2.385082304904963 0.2624751799849286 -1.7347356442147672
Ni 4.125960563037751 6.996943156839893 11.9345369086498 0.05043218850862283 -1.0757801588096376 1.1639723396758535
Ni 6.5581372040814205 2.4415810846213857 5.044860111124466 0.09811792462036005 1.9749638398760376 -1.0509379029549772
Ni 3.76503602900925 9.07713551969449 12.477203011099274 -0.3393143977321705 1.1543067915616314 1.424501708788321
Ni 8.035247573597399 0.08837948861909417 6.711610667616126 -1.5431167249207682 -0.8541904041851611 -1.4269866799937039
Ni 8.055365470174804 5.868892682761772 1.401069919356058 -0.333746930946722 0.3794760575527207 0.49454937908049673
Ni 6.048041298476668 8.142298549801394 11.05008566099692 -1.5405433077666373 1.0916600632646876 0.9802359084537245
Ni 4.596164174414028 1.0864221177084472 10.845563615131722 -1.283665676474144 0.4105354979616865 -0.16825376220549734
Ni 2.794103820586873 4.759168340591264 8.428838855520185 0.20709876009715303 -0.19243293055486216 -0.24441857959353389
Ni 5.215752683726169 2.4897823393652185 2.83928878340731 0.052566975463438505 0.7346960707715541 0.2769422632528521
Ni 5.487618158286723 9.092472282567527 9.002811635790758 -2.7987218957132702 -0.4795616474224128 -0.6798570114444873
Ni 4.890013580259904 4.828657245012987 13.12528243541206 0.045990350687185315 0.7065347778459897 -1.0031822328372528
Ni 8.774327290499656 1.7197134490548525 8.086320293690283 -0.8710509273859256 1.8222277136901648 1.2756759734004481
Ni 6.046490911430786 6.096669605939725 3.325959918987094 2.0975787211964967 0.3345360025069206 0.29365520513215876
Ni 5.55514819045287 5.414304346901506 7.77202248959734 0.682901968918398 0.23000548949199745 -0.9394787811410208
Ni 3.121755377534886 3.397111543887365 10.690894403983187 0.44687187049887556 0.7726815488763918 0.6763993919131899
Ni 0.44493601603030447 7.812483877992958 5.627582830261769 -0.07636510632430074 -0.7371830988594659 1.3094430425485641
Ni 5.2957786498070325 7.555435276038559 6.3869456945762595 0.6289193440543556 0.6001674687326438 -0.2741665002799278
Ni 2.349281994740187 9.10974935018661 10.119707678517816 0.8362050233513342 0.6652189498163382 0.7611110704299731
Ni 5.007991535823199 6.875734454618113 1.0615778615797935 -0.6099584866811366 -0.7585006293903195 0.9729337183653567
Ni 7.634523582888081 9.090643382878673 13.392729771079589 1.5336512086324943 -0.036863962905884895 1.0669458483474592
Ni 1.8153361231421934 0.8181132495986572 1.3615564023220248 0.46586075289655254 -0.6976351613635146 -0.16342008826227986
Ni 2.115424212190661 7.159622391600328 8.744223787296196 -1.4837558664639479 -1.1651527331371998 1.904337692918043
Ni 6.703771465091918 7.073311323543045 13.046704735074657 0.8959931991535601 -2.393423220670491 0.6326726404492006
P 2.908052626581827 1.0009280200705517 3.5627532247935543 -0.23209836746528414 -0.2869952766134799 -0.8912173750314716
Ni 2.864177601558839 8.999681153683744 7.609010896416291 0.10390624916736299 0.33918815656695134 0.8940494451636279
P 0.6477052889957262 3.5877627317570386 12.99624010091893 0.204699406627041 1.7998449751195909 -0.025200667635343694
Ni 9.17193193960768 3.792794455758876 1.6049263200045503 0.488155816849327 -2.187688945021032 -2.1060312228392246
P 4.393314132782144 6.3409623288459676 4.6635206003660565 -0.36111632409861033 2.0014873400878628 1.6704524087556651
P 1.6120126100172558 2.276942977605376 7.495417658228867 0.5386368563180143 0.4277135524028698 1.531621065576343
P 7.916322675047998 4.916360876285134 7.597569597042967 2.181216192812495 2.141310871977125 0.8096270157524895
Ni 1.6953435927947291 4.203414929048497 4.191048967700503 -1.560209932957629 -1.73483308902458 -1.05411887178612
Ni 0.03443251805073198 7.1397458726468335 13.388123171964816 0.44161782118878784 1.0162570637433401 1.6146234747115031
Ni 6.589692686530244 6.627199055783919 9.611731254126088 -0.6884951467354593 0.8255580851604493 -1.2124319778391377
Ni 6.294747797622008 1.8651898862343317 0.17849596775486226 0.39405524091847616 -0.4845292758403333 1.595808141777213
Ni 8.697012180810395 0.8422519403651132 1.7855881877462647 -0.03021509013079958 0.5528869384791252 -1.8456023838603632
Ni 7.606189563342976 5.047735289975422 5.367269131756252 -0.6921677104910402 1.2419970930907642 2.4731443879512183
Ni 2.5772260255039243 7.352910165823478 0.30371710878640346 -0.4704414302886995 -0.43561300975560463 -0.5620449508293095
Ni 2.2036848687487534 6.227737655722743 4.716689592285047 -0.3892333940498006 0.6377402847800951 -1.2731074413423236
Ni 7.198558459087931 4.487581378673684 9.94545902856829 -0.3045543685431658 -1.4954060491083663 -0.7321987582709971
Ni 6.7380285201775765 3.408168495813387 7.142340682103864 -0.27395901225481206 -0.6620955736960081 0.5119575472546151
Ni 4.087730060912346 2.5655377782538307 0.2491499833996884 -0.4584292363191717 0.24129314659067477 -0.10268728915859734
Ni 4.909026710020183 3.568350400541832 8.956749358144958 0.5852823240906952 -0.047036018342880286 1.656644042117663
Ni 0.6538288536392223 1.0384343893242272 6.0991168036959795 1.7171703816374941 -0.7645185534496253 -1.7080295956784906
Ni 5.329098045661349 4.647883972214084 5.407489142527961 0.5830138397714927 0.5034189136559846 -1.3864853774455477
Ni 3.7492257946431584 2.719750228667891 4.688766843076067 -0.6260103979376767 -0.06207800027766727 -0.40106972456309636
Ni 3.0664613341500115 6.78263696182706 6.702628634880252 -0.38056851928595103 -0.6650055482539515 -0.8048625044843106
Ni 0.5715655026598117 9.131723997717167 3.6807348938587547 2.2526062145197074 -2.3835285872645984 -1.2539367819511438
Ni 7.181179270166425 8.17428108496944 2.4146860470649756 0.05338072961398549 -0.24114736504142983 -0.44565213915916146
Ni 3.506223513649357 1.7777369163408603 8.942549855230725 -0.9711344603730888 -0.676165421525513 -1.7620813832175717
Ni 7.878222145489314 7.159316027693058 7.428171708958551 -0.3964491950719495 -0.6295832028905997 -1.5626069724348959
Ni 7.641365710150446 8.85171667022704 9.006941978286045 1.1569210892560269 0.418710320462995 1.230581395054655
Ni 2.5002822660052946 8.543950915987288 4.909322861797211 0.35699921660644324 0.3931306722216778 -0.13589642892071435
Ni 2.3043207704096056 2.9900188974087336 2.2448806021463423 1.4778150754994805 0.01143266731697386 -0.5292656995157595
Ni 5.659738971643937 3.1575442521568955 11.579137137082403 -0.5186627271889325 0.9528253776512559 0.8147939046654096
Ni 4.912898035757506 8.766668192817901 3.703942424022205 0.028274164354344853 -0.935148529196783 0.7094172416001072
P 6.079299700772986 0.49806415942832655 5.237303063663932 0.5322633486915027 -2.582316770613527 0.5967507297416109
Ni 0.6392877085496105 2.122535568341234 3.518212554553861 -0.24379405863565756 0.6555557156949613 0.7027678546043897
P 7.308394561721653 2.4476712277477257 2.357318941240907 0.07231561884527546 -0.14916614944642698 -0.5975004634234419
Ni 6.411648837632474 2.1173366656724077 9.771862098203322 2.0172749419394225 -1.1901338285625696 -2.042042892912722
P 3.419049056398859 4.461967499274949 1.0777288097457884 -0.531676108729465 0.05423330742226788 -0.3905431140001597
P 1.7792780196319766 5.228582832812451 10.280776181826393 -0.6836401326360033 0.03823924598685672 0.29325205615646915
P 8.836138529730093 0.8149549162273453 10.40113634886258 -0.598974219755491 0.1921318543746756 -0.11424979718521613
Ni 1.6214356211045036 7.242247809015604 11.35597238327208 0.01556828675190222 -1.3622234195743894 -0.8082738441587047
