# total energy = -340859.9073450254 ev
CRYSTAL
PRIMVEC
9.32969740300084 0.00000000000000 0.00000000000000
0.00000000000000 9.32969740300084 0.00000000000000
0.00000000000000 0.00000000000000 13.65495520956011
PRIMCOORD
 96 1
Ni 5.079917608615933 5.193264102350563 8.011512852638779 0.41747027740830683 -0.19941347563775333 0.5428202982717425
Ni 2.3766751052301305 3.417906654062104 2.543003084570178 1.7925684960628354 -0.09351256463786477 0.9178848570203288
Ni 4.5410622757794 0.43627624287333466 12.214944575083436 -0.3886114441950856 -0.10610479948057855 0.13965306774966915
Ni 5.283995409583197 2.7733178605708217 11.77634710349653 2.1041599739584407 -1.8294116330331138 1.6445464875231803
Ni 7.006863980289054 8.623038131507773 6.194611194789784 2.059076194245925 1.0047575477441728 1.6499275493294356
Ni 8.063135001332752 5.787481859569455 0.7746513060607412 -1.3592239706264333 1.4469600377918372 2.7112257124728147
Ni 6.566586230200082 4.908876266148488 10.968506331898578 0.9889007832175744 -0.3515626189719042 -0.1829447885587688
Ni 7.921053039600536 0.8419212232370358 1.776373452335516 -1.4868540457732975 -0.4618233496023853 1.5883398584246258
Ni 0.7477733808158572 2.7047165955752885 10.077575275240077 0.1481150824740933 -1.5881570529898583 -1.8798829023097883
Ni 0.7729710275586746 7.005165975361924 10.941264548455024 0.5267737863318412 -1.5562746024589649 -1.1646318276367231
Ni 0.14268745909359273 6.49994420165893 7.339647755823554 0.2729634811107622 -0.9207948315782722 -0.5150022476182098
Ni 3.2813572028891644 2.0545766321299275 10.768980490293659 -1.146892244265115 -0.14066891060869324 -1.1455907518448722
Ni 4.360075475881624 3.697387069430824 3.9544202328507807 -0.12338595515852943 -1.3669959012623683 0.7841607531605849
Ni 4.443231068823986 4.251832326625786 1.5084357385923195 -0.12143885873448765 -0.761450713157579 1.3446342457377165
Ni 1.9484326647894974 8.531299216955743 5.272573994023898 -0.29099257069833107 -1.5137974071313607 0.7411263997779302
Ni 5.893607167515082 0.4736957932125275 4.381083155521288 -0.5298477972714746 0.8533290846261303 -1.3036737441649549
Ni 4.370496747879449 4.195079777330555 10.499199228343864 -1.6493904458790432 1.3676258215368833 -2.0962815996516286
Ni 1.6433235706579963 5.053038750401308 12.177284318551276 0.7355944142161074 0.18519733203837135 -0.36519743614651945
Ni 7.7598918466816125 8.25319959680249 4.056109269681845 0.18976746790755702 0.578345744871862 -1.261549561301395
Ni 2.9634291045275725 4.4152233172237425 7.464536018213967 -0.6470695326008211 0.6342800941456366 1.2192551714085584
Ni 4.807630389944011 5.028231085009887 12.826399881221919 -0.18158596053802922 0.5743034564816883 -0.46179172503350147
Ni 1.4370532908013056 4.810373320980144 5.838872631767863 -0.7322154704415454 -0.07657490834226167 -1.4134516216217463
Ni 7.909129686321018 6.869764076969408 12.156337281944726 0.05067310087483531 -0.6033744057057157 -0.8944289399902338
Ni 4.992554322145352 6.635868563105947 1.6207746250075536 0.5949699836921043 -0.5025197988804829 0.8448835249619384
P 4.774295381127333 4.996220893224266 5.741662782659409 0.09367660101955479 -0.14404965415546803 0.17960209733878102
P 3.1224817858336853 3.791411759846299 13.6579595425245 -1.2710366748562238 2.35797490716521 -1.4506585696893468
P 1.2292436108733158 2.3296534303249916 1.2924224557389152 -1.1841246462540123 -1.2739237665960317 -0.553996112382904
P 8.289501449392947 6.996125498579567 9.856857025986939 -1.0253114606361244 -0.6956127316168472 -1.0460132119598502
P 5.324253053872022 0.7703381869518829 6.447350831465427 -0.10231036543515283 1.3923174107462923 0.6023320804841304
P 9.116168617378019 -0.19343075029231518 5.411376567119375 -0.026187714138961354 0.31034115042827204 0.5478609460194436
P 4.4990972968660445 7.293406976590947 13.077036604103192 1.385092610863079 -0.24958315451360888 0.21465111852311416
P 2.5193728269908653 0.3625445772765442 2.8768803006401704 2.167905848856834 -0.7582124087259393 -0.5819622585785268
Ni 1.024829940799586 7.197684281248342 13.268615409461248 -1.381369396375221 0.9669826429882443 -0.09986138967402801
Ni 4.889218593722869 8.035957592801267 6.283559596848932 -2.2442943522199026 0.41523058944451063 1.1192024916593306
Ni 0.7125621698516736 3.9125112321218354 7.970410870735089 -0.18534979845583563 -0.04657064867068754 0.5111939296157131
Ni 4.788681774520928 6.472281648862553 10.601502159263969 0.06268015263804043 -0.06479334232630132 -1.065697577762655
Ni 0.5747606732874104 9.285148096719661 3.449761039901116 -0.5775587301941923 -1.20290295530278 -0.8850207593024565
Ni 0.36617942738429066 6.73467005859115 4.572525747297276 0.9235453977402158 0.4054035760517599 0.5115070899807578
Ni 6.325320255389189 8.264367244592462 0.3950893607232896 0.8437861781327017 0.9298006346213084 0.3147932726623547
Ni 8.724153391948626 7.903961033960414 1.856513687077612 0.6451453189949147 -0.08577354412239421 -1.125801485033087
Ni 3.480938089708755 0.7725446603874118 4.865820645608861 1.1527217064626984 1.5282112685638454 -0.20802692833837721
Ni 6.633284236925645 6.213457183541448 6.472584864028112 1.1517778544921906 -2.219834676515642 -0.35990147785490273
Ni 2.85475678919125 6.131906298552197 0.4269726686242464 1.2137576386290967 -1.0705819024381498 0.6121693782895263
Ni 1.3637498583152583 9.714454122664101 0.3571482802993353 -0.8366593372799332 -1.8251040067966955 0.20337991648466913
Ni 3.1896556071267415 6.516149886045879 6.20034615978268 -0.7194031491682256 -1.050965670869119 -0.6403795221751551
Ni 9.34163941448764 9.02439238403638 11.619765859032158 0.3554280154645814 2.3586925020575245 -1.2131215477069945
Ni 3.0621186436439536 1.7831850644085798 13.40229784462261 0.2580639382911104 -0.388302397595099 0.03344799524580046
Ni 5.139478396829109 1.540137117393941 9.089079840971854 2.1185532665656353 -0.5476051212548957 1.5807980415216258
Ni 1.4714425554243895 1.2961935194287282 6.296709805336788 0.07245060176124297 1.3938515880026319 0.5301571009817773
Ni 3.77767844527083 7.519838732532956 4.043300528118896 -0.4361668253765456 2.165204133654955 -1.1133511750848761
Ni 0.4452056962566102 8.772975698452315 7.347553741401851 -1.168388209355362 0.567826590508093 1.2260783649779785
Ni 7.141314249546586 0.8181454223782547 11.951868566656325 -0.37976299266552016 0.46292789552047375 1.2275374660220084
Ni 7.944209348551836 6.14005112438398 3.2244124618274568 -0.8494269213582468 -1.3367196188763302 -1.017470367325151
Ni 8.16381176599572 3.0728291362612348 11.902996812756406 -3.0692130040241397 -2.086053237055401 -1.8323169796053669
Ni 4.357033994528633 2.6670432774667665 7.371040321641175 -0.07274525018352633 -0.4920633794338493 -1.5601376849587971
Ni 5.984198529286689 8.176593451436203 11.56271569238981 0.7058212967187327 -1.0098712148216542 -0.09934434082829344
P 8.552179079741002 8.546245392193448 13.379439153018428 -1.6620713837808212 0.9517082333276772 2.8954005167839423
P 8.470488249290725 4.8318036359121095 12.794133122757748 1.2657592285073684 -0.19469807243995502 -2.452113535422848
P 7.349637062831675 2.2826690742094593 3.660756811491825 -0.8017291010616515 0.8998845637881664 -3.0057869743590104
P 6.0427703695752735 3.440018036904402 9.154145150652099 0.5720663396210535 1.9442543266073227 -0.38031089474919016
P 2.272453055554474 0.3617898047567375 11.582241816082066 -0.15807527901059873 -0.411550312379446 1.5838568829526078
P 8.21043226391258 1.4785611145419733 10.223655945278711 0.7036075768968657 1.591785393771065 1.4245783276625272
P 8.303085488809987 5.301647197067427 5.496297338810161 1.7777167757619834 -0.7483941370839369 0.1891303485441904
P 2.138525249351444 2.118755620557001 8.594551766430817 1.1280779397720893 -0.2288250960306511 -1.4670750633741572
Ni 3.0713270549795433 5.495462330892698 3.510716617875863 -1.2239052685860599 0.4368044589605445 -0.17856028633782797
Ni 4.792255048625822 1.7281771685274885 2.182171439736607 -0.6763536262769191 -0.2839698595235948 0.18148337352189392
Ni 3.013762822010355 7.49305317129235 11.611040726021983 -1.0290151347399568 1.2242446542033496 0.5349558079220014
Ni 6.4829175039006195 7.406454920008718 8.196072926641449 0.3083665432004044 0.9615725277162666 3.230119324725631
Ni 9.108620892179951 4.632763871541823 10.499677841820578 0.03233033670158948 2.640499549601846 -0.23871767255401466
Ni 3.60491110878405 -0.01794567295238792 8.963317385934891 -4.385285121853447 0.8133360891729606 -1.8436190348817476
Ni 7.8542990546905616 5.108597098429107 8.341443606707804 -0.3910884449806684 0.3893123269168521 1.539749094000116
Ni 7.7238232365262025 1.5982051540228273 5.440871472485468 -1.452592810597582 -3.0515469542029443 2.4161569148225808
Ni 0.7349637062831674 4.447065574456132 0.8472326199678881 1.1212172080965142 0.4977555447226201 -0.9851641989932776
Ni 8.332343419862074 3.2946053731997393 1.9354942404326627 -1.392932418622472 0.0505759131753387 0.9028516168362903
Ni 0.9734139784181927 2.8660457230474448 12.177625785476183 2.815585504237829 -0.8605477138617568 2.5438880343236834
Ni 3.663445630283027 8.46789459341302 1.0625340469095341 -0.7719572691158576 1.6428181919781644 0.6215873291693166
Ni 0.4841282608472352 4.528420535799944 3.3143712701152213 0.32467890720718273 1.6274237117999653 1.024792612018177
Ni 1.4215846525090992 9.003997665516017 9.71907792069644 -0.742004174397193 0.6421882932491199 -1.0921290324813062
Ni 0.5374605430749608 2.18079810827906 3.6768701318744963 0.2672777435798946 0.8609524054993429 -0.20079852891073807
Ni 6.66130131822329 3.523071003175344 0.08889055793525677 -0.1386246264851548 0.27178617297320934 0.6362143350538721
Ni 7.999431827473169 9.222741750798932 9.04919351863962 -0.5280110011730519 -4.181595387437843 -0.01950207458866964
Ni 6.587652686933376 4.530603684991968 4.289266804480822 0.247364035375103 -1.5863822204776226 0.041586308082218706
Ni 5.864013367356529 6.845087027341611 4.591697342488263 -0.22071917909406502 -0.8456175749144856 -2.03854439284116
Ni 9.117763995633728 2.9939278853340996 5.92750662302457 1.9118098329253719 3.502162865125285 0.6235465097782164
Ni 8.268276387803823 1.8543146774000046 8.093101056417634 0.8844078083088059 1.7245797867276882 -0.9938519565752625
Ni 6.883273478807233 3.4849591892889364 6.989930579504763 -0.7459721579060056 -0.06976534161959598 -0.3415620561157666
Ni 8.851009287521082 1.9160772742000087 0.08396541067683952 -0.15106310935882372 -0.4254067586465641 -0.7443024835130666
Ni 2.484685012050923 6.846346536490856 9.321500329676088 0.7661830856362417 0.3703810372299879 -1.0840192588899782
P 2.3502627318855973 4.889694408290361 9.942227489092492 -0.9486812735758953 -1.2431733727870526 0.27910147568769994
P 2.439538606323549 2.9468688916393533 5.086607001653032 -0.44369321566057773 0.2544479388050779 -0.6152806702249984
P 1.1431398335519807 6.578388297413375 1.6480434645735735 -0.4330321364023058 -0.9688623765094604 1.8825149406159964
P 2.3996261608385914 8.03488467760006 7.503889614824556 0.559870311775494 0.29621088167447696 -0.03911110706884877
P 5.873538988403781 8.231349445487446 2.933712152363316 -0.7056194651205718 -0.1014791277831091 -1.858848193126676
P 5.633047378477239 1.53519237777098 0.18971099993821222 0.11715437242652083 -0.24672460201889118 -0.6399866576121107
P 5.217036171330383 8.530300939333749 9.598641789906171 3.476160784634568 -1.8216006216291272 1.0142976260241243
P 6.351760617825929 4.8658663611261295 2.0161270831975746 1.8781700333837397 0.396852086937323 0.6477927839200908
