# total energy = -340891.168542552 ev
CRYSTAL
PRIMVEC
9.07256493880755 0.00000000000000 0.00000000000000

0.00000000000000 9.07256493880755 0.00000000000000

0.00000000000000 0.00000000000000 13.27861585686397

PRIMCOORD
 96 1
Ni 6.358153283289126 2.1170830204656004 11.588686547162574 -0.07704927687551891 -0.46758030669082057 0.2222818955954946
Ni 4.475704936383764 0.5421456319723792 6.0598555145375075 0.8412166176333126 -0.6388628284203126 0.32604827675088366
Ni 2.765989152695219 1.77523784742886 4.953640397501019 -0.5690357803248458 -0.4138257386771841 -1.0791259353534188
Ni 3.2809932994992894 4.204017907753539 4.538007146839471 -0.09239927696902797 0.5719758367897763 0.27101715601766874
Ni 5.114440723355435 4.42382801025982 2.8070860571996334 0.8358144727811346 0.777592613024764 -0.6062609832248914
Ni 7.13603499820115 5.951593504788572 2.67234758128989 0.8376556397549314 0.5261191834669778 -1.0150597010011293
Ni 4.867494579219788 4.65010685154301 11.342859050279651 0.8823828074589771 -0.3787417504898574 0.5197040239692533
Ni 5.654212972348797 7.6324313143860865 12.568674161426232 -0.9961566934490392 -0.4959084642115523 0.33236547721816306
Ni 2.015107390938995 6.407716705362422 0.26658280361495146 -0.06632469136916319 0.39394519770317316 0.651128276051227
Ni 2.7478803131458327 1.4358150492216217 0.41742508223018676 0.26304236534230824 -0.12003606484969004 0.42254563504868514
Ni 0.8235330469984974 8.610453811091428 4.415883165172947 0.05406669993741656 0.6100721294408655 0.045907046944759645
Ni 8.787768019585021 2.2450424758787 1.6310657185314146 0.570295877984192 0.24439646810634683 -0.9114704688535528
Ni 6.803344043153053 0.9526465326674498 5.05907267425624 0.31538488349976646 -0.6426297516619126 -1.3762210194050621
Ni 0.6460410162327772 7.040165204855275 2.1956859082852267 0.27346098957247095 -0.09250186398516327 0.5911786349704722
Ni 7.487161405135196 3.816782692499574 3.8969551340476802 0.1445564185885575 0.37153057745339885 -0.2095657335804068
Ni 7.8320640325447535 3.892774496139685 12.459843301857784 0.7101209525353512 -0.08527680699163379 1.0115663431358901
Ni 8.158894110664543 9.103139448230424 6.908040534894518 -0.40866296352932197 -0.915371603680172 -0.14158628021664002
Ni 6.804205936818979 0.49817726067568996 0.21415063651885202 1.0031418665176206 1.45092467886654 0.4249370180989972
Ni 1.894623729007205 6.539051154919997 9.077062174925413 0.4266786833804523 -0.4388965656028828 0.17652397263408953
Ni 0.1450204137160162 4.722451484091511 1.296242710730759 -0.8185546572594224 0.011314396571554707 0.6492811955401593
Ni 6.299952779426745 2.019171900016212 7.089824796116558 0.7820894724538531 0.6686220619606162 0.8163136837440458
Ni 3.41778036056447 4.192522968019535 0.40759132913019674 0.6470337942668792 -0.17885030677442104 -0.17035769592237757
Ni 5.812483867107838 5.8115403203577705 4.8259667278824105 1.1476147242534365 0.35532594266907835 -0.04219797352428861
Ni 5.160883183101583 3.04393625110955 9.565502758945591 -0.03315668925762676 -0.6362675568893107 -1.0475494460987185
P 0.31830821790499014 5.5037263382778185 12.601950514982963 -0.21884304511727468 -0.315087921084638 -1.126497482658847
P 4.022058546028842 6.1451294593314145 12.690359938207866 -0.3651673542395324 -0.5390250928953684 -0.7824471129035879
P 2.486136815650943 8.478030653745314 1.843058899115976 -0.8182085867739134 -0.639287317552241 -2.490474908809866
P 6.296623148106793 7.92737132686655 6.088949415673264 -0.16719086815862175 0.5263061026668033 -1.1039687054287115
P 4.749052244391512 0.889485150315286 12.63627565704266 -0.7289357712490091 0.3603802172635342 0.2526715636309455
P 4.210214469583314 6.040559076242121 8.282868895571585 -0.3178474861076461 0.30680331247834264 -0.6161625586093195
P 4.734545213109213 1.0000960471179965 3.79599744630336 1.4668117824104414 -0.26530750722740115 0.5055768405392519
P 0.22311251613151933 5.663076868260497 3.847492417444824 -0.9060724377664331 0.13066731931129108 -1.009112996499391
Ni 1.71162102231849 1.1788618659963088 2.791776103923286 -0.4208132257386108 0.830284286991525 -0.3948324854041329
Ni 2.128587032764509 6.390061494058261 4.7624551445249335 -0.5787319245666871 0.49126170946816033 -0.26423972808451907
Ni 6.124716188296285 5.712241097477993 9.4236341542774 -1.1298918530523767 1.3339212301955867 -0.15471896094385612
Ni 8.690038350433722 2.4820541614439167 10.579537894782865 0.12754445741159326 -0.5390999119973618 -0.9122543982074289
Ni 2.4126308947946655 5.451305058259604 6.996184131967719 -0.2185828494773526 -0.8673500814955708 -0.3358827463428022
Ni 0.678121605735097 -0.1408633644767733 8.93823469401321 0.340251307724143 0.7338162392697619 0.5847763309885541
Ni 1.5684831658201581 1.0697642730196695 11.18229461111275 -0.21461178064474654 -0.11863404229584086 0.44935144238761965
Ni 4.173443364025367 6.513330433415733 1.5002048568618551 0.9102088285323099 1.3864573524210895 0.7884773782580679
Ni 5.511864428997157 8.183725720808166 8.15187466719793 0.15937162922451908 -0.6630836486408903 0.4524205682312466
Ni 5.116336889420476 2.86914421565941 4.940083263764222 0.6648096301930616 -0.656626837271953 -0.5026159581387151
Ni 0.939645547159298 7.427001227253441 6.8613395070485925 -0.8490618247093441 -0.07368755949213761 -0.0875558328337976
Ni 4.727441394788988 4.63289619591917 6.505234076494955 -0.8322604368812893 0.3851815925779302 2.1539406449259935
Ni 7.914978203206999 7.613914209415997 9.165418070017378 -0.5473546958069864 -1.4281421337543856 0.055947719010213316
Ni 4.610613976513712 0.5274562421354996 10.51562802582608 -1.2765426922761176 -0.30260675789849173 -0.5709265695896555
Ni 8.084988996952468 7.301926847479973 4.936457866828382 -0.03924608998481628 -0.4244904174798818 -0.25081059916280674
Ni 7.2387545780499245 6.202930770337998 7.0477444255764965 -0.5333691801611717 -0.011933003992160093 0.31351620572214395
Ni 2.2839002713646828 4.967946017842438 2.457394022776989 1.064122262855735 2.8458252769589762 1.1009877684235168
Ni 2.436092547637708 5.185451688862975 11.360665773417718 -0.6065435474623166 -0.5505176669160002 0.35746612894053276
Ni 0.9416233663084796 3.5094586289244654 3.808705387965096 -0.48144060961268054 -0.640233226405278 0.2102033671644057
Ni 3.989451747762061 2.502848480205036 2.549680152985586 -2.020180802732308 0.09941838859933845 -0.10865764780941932
Ni 0.8396831197850019 3.464077659272145 8.251955945172474 -0.11617401079112251 0.12119100438973966 -0.435747735561256
Ni 3.432015214899634 2.6476012532563695 7.07926795959368 0.7615975231480884 1.0128621791291783 -0.3046965505479849
Ni 4.0967711180174184 7.100334455301933 6.160042941521435 0.5201645085454397 0.14332537439493379 0.026212653839625823
Ni 0.8944042950065072 7.043512981305035 11.20290294229333 -0.6879390171216733 1.6830335878547853 0.18256220840836945
P 0.013253202812496888 5.72505155912315 8.249380243996086 -0.3357426212205121 0.6273424864855389 -1.2597711292447338
P 8.43006400309521 1.7447721744795415 8.093807530039644 0.13481039494538719 0.6058817455086016 0.6784717010611864
P 1.7415967767629654 3.256960075067263 10.430325956080969 -0.18911080816016462 -0.8248363765030763 0.23910770890358174
P 4.061333679500432 6.227753307916716 3.672891813114169 -0.43049317203053605 -0.48140641394063544 0.5801218629356784
P 6.938479897405613 3.921071826076828 10.516902721195162 -0.4805692627513207 0.8833390007246593 -0.332895124469388
P 6.022477454387448 7.993700848883366 10.48673372111822 3.078647667074479 -0.945381776889017 -1.2268586947874291
P 2.438705446330205 8.72308063181592 5.87872175621912 -0.4574303627410122 -0.36906643218362245 -0.14533392018453034
P 7.155568230440543 3.7271638963729012 1.444049309128948 -0.5358706064267867 -0.016370213827907293 1.0676508448342839
Ni 5.311569413600461 2.577760648621511 0.5825276183623187 0.19297209088778378 1.113044956698367 -0.40975182571812657
Ni 1.4056759886088652 1.2416440151354646 7.042300886633795 -0.8159879249735108 0.45444402641917864 -0.5586464666707217
Ni 6.970079640967995 0.7830095285960477 9.586656351276929 -0.536876679093798 0.8024973466862437 -1.2249527360139676
Ni 2.8019437274117616 1.7273800675576105 9.06609435121236 -0.8512619176844565 -0.09054191204531503 1.7658796739177396
Ni 6.574842423468258 1.9213877954754865 2.605636104290594 -0.3289204560923561 -0.77043826136817 0.4662554172318099
Ni 4.170694376859303 6.83018069014057 10.505496692597221 -0.36707254168204523 0.762630592398293 -0.4780706646991832
Ni 8.196264005506187 7.216835261240647 0.07623222661008017 0.16114491907485798 0.22716133517498296 1.5578190641279492
Ni 7.280742408427961 4.127164210447501 8.319463993370386 1.4672691816628343 -1.63695093456411 -0.8952925735421097
Ni 2.8161604366171167 8.37091995248276 12.265869142430056 1.5773815596409093 -0.2364543304411347 -0.17607248691896774
Ni 0.017522751856555645 4.937053934342608 10.220417650911463 0.44388347729451294 -0.8764265898755421 0.35375576996848107
Ni 8.599893345542588 2.806815694765479 5.8350881625674065 -0.35147288747157535 -2.0770389493719326 0.8448881529476288
Ni 3.5477811430810826 2.677867329777789 11.674267144650253 0.15520489944133917 -0.2609525726928151 -0.3576054827318744
Ni 1.239829502154564 3.1790630327972065 12.760338445829275 -0.6898681158235861 -0.02441031052356441 -0.495483717969308
Ni 3.036469530193145 8.591301626578025 7.990951861717301 0.5453140112278737 -0.3436487634414662 0.025589675543646252
Ni 5.996983547005796 7.929993298123951 3.6930220201242783 -0.9343363177081329 0.9677413755311399 -0.7365940591252153
Ni 3.2462907387395687 8.428403723717686 3.7830645050319913 1.3812801790955243 -0.21793133193628272 0.7941749428634775
Ni 3.064585408832197 4.302273785669299 9.117283576916542 0.8340720361687314 0.05697436050251478 -0.2526520232469197
Ni 7.5263095226981225 6.225775488767535 11.398404014394485 -1.068761304289643 -0.1763913037109672 -0.42226949856916307
Ni 0.889541400217694 8.877250727238126 0.32065982672823706 -0.36237256510321464 0.04281812360679078 -0.00785780548152195
Ni 4.681026152737554 0.30907506860167816 1.5425102270115492 -0.15135904333268774 -1.4547373677444106 0.5822785042673649
Ni 6.030107481472135 5.090570805091691 0.33056616034746306 -0.7967745852698536 1.276461445416221 -0.23467127039878294
Ni 8.06697995561703 -0.28570141963820905 11.487476642113908 -0.10402117747867246 -1.2313311287364859 -1.1807598435468376
Ni 9.096970104095362 5.037124325239268 5.965484508913855 0.38044562055484155 1.1671335110126544 0.33376698555138
Ni 8.423059982988935 9.025242405960366 2.3340352650269627 -1.1062145640400949 -0.423183268632684 0.12540478536077113
P 8.733223759379154 1.4929268452954634 3.9025855678274137 -0.5935180817369261 0.15813467149362442 -0.13387245651215007
P 1.8213446222735403 3.2005196487963543 1.654435738468922 0.2169085470987232 -2.593756379909036 -0.5841564380163681
P 4.7297186085800185 1.1813840390397605 8.315281540949409 0.3505776293508156 0.4743654479334539 -0.22639206110912624
P 8.703402238538054 1.3502244719125476 12.520141382726086 0.48795475658211446 1.858108486747174 1.1514117294020236
P 6.478791178824293 7.826620493602053 1.3186274501196376 0.40245066407102303 -1.5170819914199034 2.638148018650534
P 1.7325423569882723 3.559638985411267 5.964900235734006 0.010337634480582196 -0.7090171779482112 0.5324322701691991
P 6.658700140880573 4.091200563166054 5.971605768454923 1.8037702783159257 -0.30938752826575106 0.43097576809390936
P 2.501678119332355 8.349544989567752 10.072454097140424 -0.7494788855076834 1.2759708789330475 1.3279169329830356
