# total energy = -340889.5088206564 ev
CRYSTAL
PRIMVEC
9.07655165067077 0.00000000000000 0.00000000000000

0.00000000000000 9.07655165067077 0.00000000000000

0.00000000000000 0.00000000000000 13.28445081265635

PRIMCOORD
 96 1
Ni 6.218046060994755 2.2361718955301537 11.304695411118855 0.5575082393012205 0.1986215758640773 0.012179315675011283
Ni 4.910614167682145 0.5454853285700247 5.994993432959071 -0.8708802061360164 0.25704295322576376 0.20895921034465945
Ni 2.852651288732226 1.689754405097911 4.683406294266487 0.37893946832296027 -0.18876550900560393 0.017690218190911468
Ni 3.7707354192239273 4.3593951813870655 4.624158195222526 -0.3282774231917185 -0.08742162124877847 0.14832411316110583
Ni 4.029653133748107 2.674051980427792 2.4237615283187846 -1.3267650787667795 0.24753244263216725 0.5977241493984738
Ni 5.271797390498548 4.6798156104038435 2.542284956061884 -0.25275461026305507 0.4153056656568202 -0.21489743020596538
Ni 5.064243882189482 4.527184316586323 11.258944144490846 0.5360127884316059 1.2156504847764353 -0.27241377925487925
Ni 5.963675698885096 7.965109813688041 12.133578821872149 -1.1191022186360404 0.7916472913456173 0.131832800374302
Ni 1.716584691998755 6.634723321061415 0.2764626890097454 0.9520005677571152 0.08678218789256667 -0.18167646336930646
Ni 2.907255823913375 1.4426180547135468 0.4644190144880903 0.6547270491460788 0.30674623398816203 -1.1041990762719627
Ni 8.043957818528241 0.11506435388047682 7.079722145477433 -0.2278197946945883 0.25311379337468665 -0.20564994346576843
Ni 8.480349348942882 2.4713816569470928 1.2419990319228316 1.5204097702415558 -0.7938892933022585 0.5434044529099866
Ni 6.994554137670704 0.9221595022164915 4.796098945181067 0.9973635692729469 0.06588297584605428 -0.8242874459781416
Ni 0.7969602706792209 7.393051064631007 2.3031123721615527 -0.004930347422081831 0.5568592928633119 0.867552427314364
Ni 7.494399841198945 4.0621018061670915 3.5459255707741693 1.620541639968151 0.4224841856831304 0.2257580270695531
Ni 7.971835538516704 3.8745530178612255 12.634827760297167 -0.8014748189590004 0.15301251977571068 -1.7351711890902892
Ni 8.07193175094651 7.117831863207668 8.583256569442105 -0.3511075337123566 0.8294779890401457 1.145938107881962
Ni 6.855564901096745 0.9102964491111454 0.15164104202425935 0.5258980685951071 -0.4622689217802361 0.04996656172611394
Ni 2.251901559670601 6.416014730681598 9.051400600758377 -0.47519745691644616 0.9807187616274142 -0.4431774523664238
Ni 0.35290540764266426 4.8044820483548225 1.2109054886764778 -0.9044022491528618 0.1017210685905861 0.15628347721749858
Ni 6.599197697607456 2.275210144501916 6.9630984400105 -0.015177479071386763 -0.9421529855390742 0.5390878278125039
Ni 3.2461470356917284 4.418111394499907 0.20760524465390207 0.7060110441320357 -0.7043094880598967 0.08994593033252897
Ni 6.312759878251287 6.088559974077488 4.360475291042411 -0.9098550447373168 -2.267925104264965 0.7677458021376713
Ni 5.567248225718227 3.2960226874238456 8.850526526864172 -0.8516879494782815 -0.9885858230803167 1.1252890641730426
P 0.10529072298236151 5.716947793328383 12.348707620251394 0.5283452445840191 -0.8752917049401506 -0.5411683644906163
P 3.940530472354539 6.279784765832218 12.71327276624075 0.7167772815096042 0.7313101850184567 -1.155729640051087
P 2.4756930190167483 8.53763146688308 1.4927206202388035 2.6087623663995654 -0.11136064856287918 0.6479300808289035
P 6.768284779703472 8.080690623361704 5.637004248694904 -1.0819541488308335 -0.8576855618226131 0.43108478286794794
P 4.836331668359918 1.1873763436382307 12.73539141514084 -0.627888588796996 -1.1021213678073278 -1.4448285932711311
P 4.268348291027673 6.5406539389774 7.7525660172402455 -0.6066893290115616 -1.7417866375242774 1.7062020555514485
P 4.853386509052301 1.1148637719024923 3.7053125420410473 0.6008670659028297 0.25378639396167907 1.0175449293168282
P 0.355439580884449 5.598063118826606 3.2755605092136757 -0.16194684615086302 -0.8915418482504258 1.2892521694229861
Ni 0.48599125497429996 0.007794034966764122 4.900116227956329 0.6459001948830683 1.2536233644757828 -0.9812640926079229
Ni 2.25604046725747 6.591546164502783 4.842700684705763 -0.3552943181001946 1.092733755944841 -1.7767952923889787
Ni 6.009539514754502 5.641875634006029 9.120585708631513 -0.8950483187417875 1.4546646055249464 -0.7272542697815281
Ni 8.562900586887125 2.4089985169371126 10.160439949418558 1.1779786812572746 0.3923925085040726 0.6691085146787316
Ni 2.5954036597255543 5.446929456043807 6.709683838797544 0.23421901335271275 -0.7326178480862866 1.9011598094106938
Ni 0.38955380054507893 -0.010618657863767726 9.083655034970432 -0.04932095772231506 0.49650187482117714 0.1162046069187418
Ni 1.7770708326980866 1.1050974022457576 11.39873665589252 -1.4641704881328526 1.2295411267155987 -0.32924364375972975
Ni 4.209986063432129 7.067293623199582 1.461489113406221 0.4399604880910229 0.09164131575708087 -0.07475996662070995
Ni 5.8722475933532285 8.014785781282194 7.7564190134477595 0.1365939692083712 0.36594974093151167 0.48181470512264757
Ni 5.779739378166015 2.916114538397551 4.76780279517654 -1.675013545763786 0.30105226892717835 -0.6069294700468256
Ni 0.8612395023446766 7.807123354352422 6.748594108389976 0.6735814628484206 -1.6279227629235706 0.8351513852758391
Ni 5.252201115322999 4.702770209717861 6.991752206153015 -0.3787774888237993 0.2866180957797193 -1.2207968048640654
Ni 0.6516374163111447 7.461987474986863 11.115976655295562 0.13332686842132524 -0.5545524991070062 -0.20967629101634214
Ni 4.398043138634628 0.6324150950666901 10.571593220105024 -0.01891072086157388 -0.5870643556917825 -0.714269427486086
Ni 8.323806061331632 7.228847167363359 4.395160425806581 1.1484410768094737 0.22208263510049497 -1.1099272370049917
Ni 7.7256431495118 6.185297862368827 6.428132834890434 -0.7971481665591884 -0.19537195857852804 1.0040890609222386
Ni 2.500145249365487 5.328498609128308 2.2498284752564763 -0.0749088334937484 0.1650951619718576 1.926256347368005
Ni 2.311434662438746 5.50381220570808 11.555426075986555 -0.7614910794772112 -0.7137942876218805 -1.628841160972782
Ni 1.1613266401857876 3.436754621929118 3.889076408277342 0.10211830402900478 -0.5115844801859125 -2.196000035989889
Ni 1.6119683568096048 1.3265561877984278 2.42018808990442 -0.9140107187769033 -0.5261873177007519 1.7443775381799052
Ni 1.2416359698538078 3.4805943667637176 8.10829786309026 -0.10017557848033716 0.49201375714283657 -0.5753336975184156
Ni 3.5711601998816547 2.797456777688913 7.220962366879338 1.00734716284822 0.026177943946948463 -0.03080952918168887
Ni 4.663350745573624 7.077613662511578 5.733409935193086 -0.7813767626575446 0.5627391486828567 -0.5851414276374568
Ni 0.986811780157869 8.938660751774824 13.571395380722858 -3.1860027940223907 1.4604526729616332 -1.9305009815769723
P 0.4652685797296055 5.894022240942918 7.7972553273163605 1.339632678758067 -1.8458620652796536 -0.4853453439837254
P 8.709641198634737 2.0407718899816527 7.923537391474494 -0.43314166539697657 -1.5033253039554433 0.7054034924550239
P 1.8066785444269613 3.4079728764072725 10.73666574337281 -0.5372260920134168 -0.14069333608872545 -1.61065420565111
P 4.0915733696200824 6.252618646517528 3.5585991599486104 0.6147206839564703 0.41606876907508983 0.6527017911859339
P 7.064116830095626 4.058244271683716 10.262397762607284 -0.006231068511376366 0.23610748862467723 0.7306355275489352
P 6.5282916755271465 7.859957961947082 9.946174331108418 -1.020048155354656 0.4595348106785247 0.21945728166250592
P 2.609454161796768 8.740728388294883 5.6393959200745964 0.07170395340320554 -0.519135295949977 0.5477300768685341
P 6.867609485236603 4.061811356511873 1.2229655029542692 1.7032877101181312 1.1438043493684107 1.0354470064082295
Ni 5.285593749121445 3.048632193591165 0.36638499461033797 -0.8034478835249711 0.4223227204046017 -0.8690225841019872
Ni 1.5629368243879675 1.1379272898372168 6.927947678142807 -0.5132811511620451 0.603653113288399 -0.9673276850324889
Ni 6.889356903171117 0.903801268696313 9.28467524134742 -1.1930743992481323 -0.19882109346939308 -1.2916126992353627
Ni 2.3664385658958214 1.430437322297805 9.020315226408576 1.305369386699823 0.8570558986584144 1.5196767487302731
Ni 6.548750223116627 2.1759035920722365 2.359172786239487 -0.9219564559865412 -1.003722421611439 1.3970580107550714
Ni 4.121761980659394 6.862953214201375 10.505556768025494 1.117287791135121 0.4499543660789412 -0.18466382813240456
Ni 8.269501052357427 7.366955978419936 0.02294279979677381 -0.2032423624655403 0.5093239662865099 -0.2855749992271856
Ni 7.925172986095446 4.125292759280649 8.148297318889762 -0.12817206369326314 0.5570726944256987 -0.3259783427448967
Ni 2.9264164246060957 8.394857308239551 12.176288536016912 1.5509107670438904 -1.27276831283535 0.926117015122134
Ni 0.3353667867433067 5.070915147707791 10.014576132567639 -0.28147023303019264 -0.4968870260747377 0.30652640466787207
Ni 8.863679357969724 2.7190989066418947 5.795302033754712 -0.25965622247889475 -0.838566067384343 -0.17438815723800935
Ni 3.6437998433415513 2.8616824576991875 11.602519764614778 -0.19944124355189521 -1.1114927817198985 0.2845928378195744
Ni 1.2066186332964817 3.0933977467017746 12.953070724554975 0.41928470490922626 -0.1323616762945785 -1.3878066673601324
Ni 3.2737397529375216 8.479931827563506 7.943690059270822 0.38233409582680605 0.3476144329574336 -0.33165739540754496
Ni 6.0468350657949514 8.09467758957084 3.3216040408072485 -0.9791712146346361 0.7416961562384711 0.03687733264232358
Ni 3.224281622584782 8.449570762041407 3.518626026149112 0.7453586926917227 0.1033056394688866 0.2728328690701688
Ni 3.1783361177498453 4.307223162068375 9.183168532779456 1.1864910896036598 -0.529750609571978 0.9971709936461665
Ni 7.226405574949175 6.1849620299549795 11.086977072532301 1.4976519077197497 -1.0203733999045588 0.685205163130278
Ni 8.034908496457827 -0.18529235754688422 2.154551911792958 1.0459167955913018 0.9586792653288714 0.22349828450109893
Ni 4.792900368352969 0.442168755587979 1.6868598927526204 0.07627871725808154 -0.7424381766108181 -1.2078196758781068
Ni 6.068591560281191 5.74704563885044 -0.11245847588005993 -0.3004053793717988 -0.2127662427955755 1.4278644546129668
Ni 8.027837862663594 9.022963764202103 11.14807224985242 -0.09038353209057982 0.7377641681739165 0.9088047490959316
Ni 0.49855592552803424 5.027502000804293 5.449082414113117 -0.5229099325010607 0.5828634302365575 0.5322453509693736
Ni 7.484079801886949 6.266914215485333 2.1570897156554336 -0.036429960692259844 -0.7833176884339994 -0.014782043405180991
P 8.730816793810538 1.433695804367292 3.5219870732530985 -0.4240404744266569 1.6858654008766256 -0.48563279331715714
P 1.9759743872126658 3.278096497765805 1.6588423928860692 0.5366234254324113 -0.08305100298490858 0.44502067622274966
P 4.74591106006959 1.2729682264105446 8.279574209462488 0.2334818780763721 -0.5234367515388082 0.35703238383722385
P 8.83839208486223 1.5357071692111979 12.473740750892086 -0.6169750272082858 -0.06691681642720733 -0.2479456189101859
P 6.459119274826426 7.9084085950582805 1.0898633178295274 -1.4857160755141123 -0.11382582227392009 -0.1965559515843002
P 2.0639715561922602 3.4155699502015913 5.9032912155650905 -0.634114772212366 0.057037095419650165 -0.5332930755075976
P 7.100895017687717 4.120291579279849 5.9433569301921905 0.5057061670282645 1.2182264730337278 -1.0316643994373458
P 2.28464975829653 8.408027384793382 10.048279184435097 1.0244244300454808 0.7547876993151065 -0.15728749300198072
