# total energy = -340895.74006361305 ev
CRYSTAL
PRIMVEC
9.02104496981812 0.00000000000000 0.00000000000000
0.00000000000000 9.02104496981812 0.00000000000000
0.00000000000000 0.00000000000000 13.20321117453359
PRIMCOORD
 96 1
Ni 6.321569270385342 2.127649486266963 11.335167340671124 0.5961658037724183 -0.8216960311018815 1.0937917648957098
Ni 4.593137098072173 0.24853790154583966 5.975179194432935 -0.020483721775648594 0.6013200942798482 -0.6487258372573215
Ni 2.5882369675915635 1.57269285591017 4.636623946349067 0.4291245738177835 0.6210795362949627 1.0370603736419366
Ni 3.336216892264561 4.241677194975508 4.69028202257107 -0.2013891113068854 0.31702087644129273 1.176306178650858
Ni 5.058731259227848 4.593227308519579 2.7988034876149572 -0.39542641023438996 0.2340729746931517 -1.241522724557507
Ni 7.1405538382121865 6.151892439858002 2.7200723196407237 0.09726020460575507 -0.006756859107859331 -0.32642262937116684
Ni 5.23352302212315 4.5615183362561105 11.533519366115645 -0.3793333613272693 -0.30793074121456643 -0.41452507873705385
Ni 5.534528221985225 7.786343368062827 12.479964981396895 -0.16779533451184006 0.6435085547224401 0.04917131951832822
Ni 1.79682973353696 6.259396230032616 0.38601321076686945 0.5959020085880705 0.9132046779358403 0.48264414300247843
Ni 2.6733144405408615 1.5201272282062617 0.3906473214501538 0.4486320477230919 0.1519308566757577 -0.7704472602292345
Ni 0.6866052467798212 8.980819902175492 4.4308124190084825 0.22742281636648576 -0.22547237750833427 0.9249775022010521
Ni 8.692922280321618 2.392759949105895 1.3348448923820293 -0.9362967838686133 0.10843833270976165 0.05819306340096429
Ni 7.006753702618506 0.6129339828006316 4.698045533674895 -0.26518872226134976 -0.36794825941877923 -0.08409409953744226
Ni 0.579499284678271 7.1096477389306365 2.417732005157029 1.048561689413317 0.5074653158112163 0.2749416878830555
Ni 7.480845687919896 3.8024154634178613 3.824349231600336 0.7990857499015335 -0.22718113266932488 -0.04700799331842227
Ni 7.583604408560916 3.7868361191507165 12.663833719510265 0.201198335452318 0.019384575174198875 0.3311652862624748
Ni 7.973719488371369 8.877186140194627 6.9814884626133 -0.28107711135683205 -0.3866964865605598 -0.5442385187755079
Ni 6.917472422820055 0.6494421508661399 0.40274183613397563 -0.5365581194121147 0.0476584824182276 -0.46452197948047097
Ni 1.9740842416464668 6.5848123769629545 9.128858854787852 -0.7001077912737234 -0.11828257249369306 -0.13190170593902445
Ni -0.05481457415775839 5.012714910005669 1.3761838299061686 -0.6586469530257754 -1.3035289910569743 0.33978208139720834
Ni 6.4313102796556425 1.8090983543842771 6.705237009519636 -0.8052072894182389 0.8524394829323255 1.856193014892016
Ni 3.4710364059139365 4.268442634721088 0.5499878389136296 0.2856986692892434 -0.3820962687843871 -0.6819478325352448
Ni 5.681481040810807 5.590990941017104 4.699893945742259 1.2058790072119683 0.7190550218001874 1.7670125019706022
Ni 5.624711606257745 2.970151917732745 9.270252003739756 -0.16057207729052345 -0.2717560910662223 -0.8367603816341718
P 0.16442207196589753 5.705702545939517 12.416127558289514 -0.5362683560858378 -0.9886686126021101 -0.06713253198243921
P 3.9940585378887428 6.057451122467883 12.65597729164561 -0.6985250201676356 0.3771247837117247 -1.3738455771943499
P 2.1990059501656956 8.350835242710513 1.2969898823367383 0.2925282906165672 0.26374119118154576 0.5457127893281892
P 6.2307995182046785 7.799468988160507 5.8035502098237135 0.34770956377440115 -0.37305112786298333 -0.07169341188024428
P 4.68034353758027 1.031673739677719 12.581022332999824 0.3650089742847972 -0.8769564942370832 -0.1258776112321316
P 4.0304404113278816 6.03278758614688 8.177131417810935 0.5318460586484259 0.47127678170580123 1.261193720623873
P 4.553164848826246 1.154513305911479 3.6690934431954374 -0.040591291158801064 -0.8460400071638848 0.5725787604810978
P 0.12395546946818141 5.524316399338781 3.7280982926352393 0.0937827875801159 -0.26622641949724474 0.4643630853051035
Ni 1.5546868506077844 1.1799346099906984 2.4536718474038755 -0.07942189087275354 -0.16710267932018963 0.40708302063671187
Ni 1.9305937849516768 6.442848195878965 5.001191427453931 0.08626333927461918 -0.26546768695434925 -1.9350022118814352
Ni 6.002422749549771 5.692730283602428 9.236939991825869 -0.16954779842657253 -1.0722166098280952 -0.1361252571020688
Ni 8.4916898352914 2.5190726175648144 10.066999696280838 0.7629175275110925 -0.8448174476106934 0.7544017767305975
Ni 2.4263633407649063 5.210005158484213 7.094203710334603 -1.2215048866746834 -0.9999282446763296 -0.46872958980391527
Ni 0.5298636923061336 0.060317411449569626 8.993023571500677 0.5959603726298316 -0.2093890987932265 0.9029338921374513
Ni 1.6316634253799571 1.1655640857188045 11.372387269166671 -0.8864137829952412 0.5952042111900974 -0.3465150292456677
Ni 3.80146825372009 6.793902151962301 1.5239810185194778 1.1420035487142461 0.539697950592677 1.0567956472873348
Ni 5.689581938987932 7.824321966421065 8.034853304369971 -0.853536058430614 0.6631929205252449 -0.37515120492512166
Ni 5.252295816228494 2.862278264723763 4.819291081302978 -0.19091160881432928 -0.2878555677312462 -0.3161898958995651
Ni 0.7658172364387329 7.370274742533454 6.7296768239310705 -0.4295639753480473 0.09997426110280846 1.3964764272199885
Ni 5.065668442633426 4.32212687197284 7.106918872896582 -0.1894576499766221 0.39693256246627123 0.23970523327826457
Ni 7.994386701872254 7.247083355554807 9.050431696021379 1.1772636574681208 -0.3173767171188147 -0.04651048485671345
Ni 4.807693626184368 0.34201126083528305 10.361576499660707 -0.7592169387310538 -0.17158025547556902 0.04098389861152942
Ni 8.148727756340449 7.299648983258716 4.871166599084225 -0.14389281686262959 -0.784736937379029 -0.6598432873267217
Ni 7.114609313538008 6.106309100783376 6.875572376313045 0.31521364802922486 -0.4267645582260392 0.010194166924182443
Ni 2.345967790036018 4.901864312232265 2.613799902073212 -0.5815477967489274 1.987762277192286 0.14299215942523116
Ni 2.2028759783594447 5.3627585090780485 11.382131801695547 1.3192728841547923 -0.7918532367088362 -0.5943827437300666
Ni 1.0137669658674806 3.390866381303565 3.896808969270853 -0.5499345407190207 -0.11703995833584357 -0.29444016292729935
Ni 3.6536494145994034 2.837416265418465 2.586997476044195 -0.4523809732425629 -1.59040368293219 -0.2615189867192464
Ni 1.1319155888360901 3.2600251483848273 8.209214763431142 -0.5604493242074153 0.7970810607666788 0.11929481580829134
Ni 3.5954095497536116 2.4728487843136002 6.840662737375585 0.9434686190267042 0.23763086724773916 -0.4401888020517451
Ni 4.08861712886049 6.804258311324594 6.182548656200234 0.4731773411626238 0.5111916156228681 -0.8658819815904765
Ni 0.8968921144162543 7.434017444671057 11.344053069740687 -0.17953550576690372 0.5853928815266305 -0.2657119417546714
P 0.16186640999086455 5.708138228019499 8.045640669670869 0.45088202009953315 -0.6074622026218441 -0.692621253088691
P 8.442010941904506 1.7315985590171454 7.983427034616809 0.10812080146934283 0.10184139621853429 0.125430496392384
P 1.8291070316190923 3.2326913828205845 10.392352695897994 0.16375484589387926 0.26625907250739306 0.033692507156438754
P 3.8438761850459997 6.279540222938541 3.8060238813141307 -0.9118931582132682 -0.4433697708828881 -0.27948225606588645
P 7.14247532074195 4.1722422136065385 10.496262501847921 -1.7025441470838871 -0.13963301314501114 -0.46832592660759337
P 6.253631782443325 7.623829247059581 10.213872227808228 -0.44417735438584793 0.46430112171891647 1.1734548252449921
P 2.4085738405362966 8.56906333603216 5.861090041597629 0.09211259896654458 -0.4413712523956205 -1.0084008009237149
P 6.766433070726947 3.8739974534351105 1.7999672528977668 1.2725878213934276 0.5374230385155712 -1.6367074510947361
Ni 5.444101269504707 2.6804230237965125 0.595823767240995 -0.8607606012035113 0.5979941152304089 -0.8312646486269232
Ni 1.531529828758474 1.1046900758087355 7.024333012504658 -0.9665010753661354 0.45766356179774087 -0.5892901596985077
Ni 7.054511113475636 0.5274821364945956 9.276100347045135 -0.7303627335035228 1.0455403860884898 -0.4686876808223863
Ni 2.8974242550334295 1.7203583372702655 8.94087110764589 0.14204213680713604 -0.756811928833987 2.1058679577884827
Ni 6.3398278649404665 1.6950452857279337 2.6086245287054872 0.8158040910974788 0.4274844671111992 0.08048967001563558
Ni 4.063313098362898 6.867883739880569 10.350828826956668 0.3146955707422258 0.1325341973167008 0.33856697804318464
Ni 7.969019524061478 7.231558137556107 0.4325040669424078 -0.30006907907830255 -0.0036005728670647666 0.7456870225654191
Ni 7.656386197528675 4.020598451515807 8.0939510705706 0.10074764893372327 -0.562708038334605 -0.061834773918609635
Ni 3.1263513074175173 8.250214509673032 12.32929007951131 -0.25895945352218624 0.14696245692688883 0.43404592237880085
Ni 9.105932771683902 4.959409556633026 10.171726808884273 0.7026174450694544 0.28849937196283215 -0.05194142606429765
Ni 8.536993521979065 2.226817831101194 5.841259078944206 1.2123864693131832 0.7070495126988791 -0.8551090593446887
Ni 3.7639948338673297 2.6231935159616757 11.451936645898883 -0.4785632880648854 0.49367109024060135 -0.26895435995136907
Ni 1.1307879582435056 3.6293737832022495 12.701356755109098 -0.3750190502226316 -0.756024142825369 -0.9781715697255284
Ni 3.1970402140054404 8.430752678068144 7.8894990146724355 0.02967284447408438 -0.1420308239532264 1.298671662964673
Ni 5.480988321449323 7.871817766980715 3.631120257464044 -0.14279572714370892 0.6334357438674703 0.34149597876452153
Ni 3.053623644718203 8.468153929562979 3.645049652648119 -0.12370965704653533 -0.9811877308440329 -0.43299511251678335
Ni 3.597827189744112 4.2155342073170345 9.41414037366693 -0.45624971216934973 0.39266196011537535 -0.18401102503975406
Ni 7.217349992089545 6.195698633118715 11.659333170800403 0.06010544993232875 -1.1177143371495784 -1.4098430783348816
Ni 0.43884044876825734 9.055234500241314 13.417631315936523 1.0073954995876522 -0.31536354334352784 -0.06605086888248624
Ni 4.430541787666262 0.22363801385263085 1.5839890081344423 0.04945285531448902 0.40350841591157605 -0.26373810585775226
Ni 5.846349654491368 5.535331094967145 0.46182967918539136 0.7333087035057242 0.14705475953037897 1.1585295713937274
Ni 7.896382071809571 8.57908571673905 11.357876918701296 -0.3595682628852001 1.026562045213774 0.5243698048760389
Ni 0.0615307419671903 4.6444939057808305 5.856455930914345 -0.3847781864919244 1.3608365665291917 0.6552353562410651
Ni 8.371249866958658 9.016164355469453 2.3749271478625302 -1.865664187607245 -0.3179503302340976 -0.20039126616999034
P 8.610478952436596 1.7044181512134942 3.5743201513588634 -0.42202781487200225 0.16633726190907483 0.5041961581416413
P 1.6848966103946752 3.189579810004903 1.525630967602547 0.6764644408231705 0.011796992634928071 0.2133838217749164
P 4.908810516682585 1.0819931272411993 8.204264014077461 0.162500661771804 0.05698618757705669 -0.3901546203124894
P 8.512609638045022 1.545593637509185 12.276860669582987 -0.5432357885426063 1.1995834040112436 -0.551602929560379
P 6.151684955828967 7.874848838013581 1.5531731193002993 1.2422475185386737 -1.0554553312093564 -0.40377195398560783
P 1.783514671499725 3.2949726757101994 6.037075288712123 0.1754893607219881 -0.7200932332567147 -0.5127059953848654
P 6.78761448377805 4.025560026123177 5.8885131155048045 0.9103903484154965 -0.1541198939072765 0.9512006975636391
P 2.416521380952831 8.54789996507054 10.148410114543053 0.5535361420273499 0.0029477697744142778 -0.5473526389244573
