# total energy = -381164.4361855745 ev
CRYSTAL
PRIMVEC
9.32509698999152 0.00000000000000 0.00000000000000

0.00000000000000 9.32509698999152 0.00000000000000

0.00000000000000 0.00000000000000 13.64822204010026

PRIMCOORD
 96 1
Ni 4.754391245326576 6.761347889765285 6.469639281186215 -2.4204686548240573 1.309836164221925 2.071275050304962
Ni 8.434717848696977 6.432311851465027 3.6616950600935416 0.9647493827823513 1.6521001315007222 1.919920120737332
Ni 3.3034248435285445 7.930062263583376 10.653842824092827 0.511885299255783 2.200507436941939 1.2061908820254323
Ni 0.34473204112488587 7.075258621161107 8.397423056814361 -0.04584251225541137 -0.03210999316066728 0.211861471593119
Ni 6.497475627450352 4.620445555822682 9.938758038563194 0.7532224117105157 -1.5446706996714494 0.13480345296685173
Ni 5.344138338148547 3.1589231445204446 4.981177597925762 -1.425919415071454 1.341511640948335 1.1331522689712032
Ni 7.945346097132309 4.126150153181849 1.0283632753668126 0.4017605799825339 -1.669870053889634 0.6637775893841213
Ni 9.069747611264901 2.549770525392599 2.469045027975632 1.0041289130212385 0.752551096675104 0.4816396129973641
Ni 4.6599093652058965 3.1278705723923492 7.481736790317881 -1.5517705439410243 -0.7154665331179807 -0.33290592310266537
Ni 6.514130250219355 2.988758779297174 13.257214005519147 -0.5474747663246184 0.22094697883415496 -0.5213366744766699
Ni 6.2928457046939155 2.2055998550911697 10.893873611584967 -2.3023010106416737 1.1964165762474879 -0.07427917032954949
Ni 0.7309309224116985 2.104012251258294 7.639237674174799 0.8790547715270086 0.6436090848560465 -0.07806666239643975
Ni 8.626572388926238 3.4877447055957944 6.4464785384250884 0.5305039427982348 1.2252401853473995 -1.0442818310910404
Ni 8.863765549481867 0.0048471852829381915 7.8434283848750095 -4.201553832837641 -0.5909850309024275 4.25029346413519
Ni 6.951831640774477 6.71613982079321 8.774237160746905 -0.047176143465170364 0.20531595716511736 -0.8154500501921699
Ni 7.27060074756932 4.337149117008403 4.156812003756742 3.161946524404135 1.450392974732786 1.752664717889362
Ni 2.9492576695270203 1.1891363356680997 0.10682084812064944 0.2157412662634994 -0.7085934601472312 -0.5223057232581585
Ni 5.451423576086608 0.6587621337589181 0.01613707990020112 0.5771198428845609 0.8885264584628697 1.7098589355777456
Ni 8.919007422540977 7.137186588579331 12.47622130128472 -0.24925045376453844 1.2916859756754593 1.08099538446199
Ni 4.449563158150804 6.058823077028243 12.592531367843074 0.919718567794958 1.031648458597746 0.44118793274022083
Ni 6.832731505272964 2.644233755319809 7.4666553113681005 -0.05205224061054907 -0.6958191912006985 1.2512517789198128
Ni 6.882760649257119 5.82965882476159 2.308555450615094 -2.2511982784285873 -0.43706542593141495 0.6844981097609243
Ni 3.9091458270578507 2.1548620037551434 11.83209397434197 0.3205072923279964 1.3972037923043163 -0.17465529485646697
Ni 3.2827511040666866 9.228143704408396 6.807405475049933 1.7888162281092548 -1.2216671232841607 -0.7042539522316129
P 4.824767750386858 5.3018210491643725 4.815679511108768 -2.285989932186476 -2.229223059709077 -0.9686965403555576
Ni 4.842979664310633 7.19751996445584 2.51464381850091 -0.5948167459436917 -1.1765648316288833 0.06325350864300719
P 4.366625747788256 0.14850869307519965 11.984762593070727 -0.33483887845932014 -1.9915466839353833 -0.5982013461452085
Ni 8.22534145170234 6.902072924595643 6.139529924251739 0.3063644251687111 -0.27877777379969404 0.5167451984512454
P 2.521142478415646 6.325175815074729 1.0371260687688462 0.34395986692398184 -0.3069987163186003 0.24212129891892492
P 7.568509612967602 0.9935797320349778 9.864375471945483 -0.8998794215818438 -1.0341138894191029 -2.907723814235986
P 5.931703358334489 0.3813321133007307 2.4757460424895203 -0.7667127328874667 -0.33525745405397744 0.42725743870205773
Ni 4.0174568256367795 7.958112154562749 0.2504198777647853 -0.6750289939282245 0.25973875489037207 -0.010436107731659447
Ni 2.671491013076693 1.812798805315861 5.629454592915662 0.3935960418938705 0.7190329103130003 0.2998510495302255
Ni 9.036764744112627 3.608178329930436 9.429965840537875 -0.23257710687391556 0.5067839734734756 -0.315293866447857
Ni 1.1542697989753221 4.827546629213937 2.7657434958176887 -0.5535117165473177 -0.06774291187292851 -0.46451580883288385
Ni 1.9829258701521912 1.966933329251385 3.3578992611263514 1.8390861800084004 3.273812394738207 -1.2265607039310358
Ni 1.544058842505173 2.9393171164073353 11.886863997506282 -0.634396822229159 -0.09819351505330186 -0.024372001086461252
Ni 8.419219537923134 1.9048095348017233 11.531300856523503 0.6124277741572356 0.09995420649815044 0.47525993472326544
Ni 2.0211680918630983 6.509505002238714 12.457618665807743 0.4286329788933457 -0.2856289923935726 0.11699136448609529
Ni 5.279021187646897 4.887907980380653 1.0871841205528794 -1.144394674654242 0.09944384252063518 -1.9412510210046245
Ni 1.3741089545068108 0.31798393364974176 11.995121843033822 -0.08233237965132917 -0.25343003906352485 0.22244516064623623
Ni 4.218906890406525 1.6675604236656836 3.3508429604268533 1.5656575863357616 -0.3273058033070686 0.9899474793145338
Ni 4.168644619003992 2.7632499649507056 1.3410113886646937 0.5552017026552309 -0.41965185844065794 -1.1059052603297923
Ni 0.9291386510466277 5.625746934453761 5.018969417464361 -0.739568568372507 -0.7784606174520141 -0.17129974812067272
Ni 8.744012657208891 8.779951580026214 2.307163213672534 -2.3643242464220053 0.40189042069217884 -0.6270691782194943
Ni 2.0017998659441627 8.902156972740535 8.717992839788764 -0.047829203668136984 -0.11022987739254565 0.3501557113220486
Ni 1.004965675148613 7.999711411098315 0.601520959959788 0.6966308884687165 -0.33411742691226326 -0.33894364465631305
Ni 5.898906993116918 3.5726497113694617 2.8067431486331835 -1.6718271776160045 -1.2393005200952074 -2.5808160176982846
Ni 0.6449106350685058 4.671752238059554 13.552629340050446 -0.04447905624898146 1.2071295917896179 -0.5006506068822281
Ni 0.0177745668868959 2.0639050102003544 13.449749277810078 -0.11884692963759534 -0.19318960621522857 2.2042964716707263
Ni 6.492635902244802 4.968691293397378 6.349316625502721 0.671386769189947 -0.5353304176526006 1.1579837261925863
Ni 1.1028605406743635 4.9618932978774435 7.186320523276909 -0.22829442033816166 -0.2514700871236766 1.9489589311718436
Ni 4.248308920412496 3.7732045668526317 9.97851465598389 -0.24613067718863418 0.3012551289666037 0.332895124469388
Ni 4.275193174299974 0.9265490716832727 9.814982299558666 -0.33940747166660906 0.3564495147505603 -0.4867393961177746
Ni 6.480802354487879 8.31144006985811 12.223114863150537 0.6296199696658059 -0.22799051594449768 1.9995654404748018
Ni 2.7314420599870615 6.082154469059623 9.155718475595398 -0.9443949874957155 0.11964962804454876 -1.0619229412115714
P 8.191332823909198 8.707933857940542 5.039223527573137 0.5483579402605201 -0.21692731615180058 -0.8550242129403661
Ni 0.41505446062410384 1.1702809900695985 9.829844638735171 0.03956696365934476 -1.1878200928277285 -0.15030154860245082
P 1.2563143325482207 7.937093386521689 10.588140057516208 -2.5386964628204147 -0.30311840742758767 0.04835782247809736
Ni 1.1400490264541971 7.653190816419625 3.0826960737685214 1.0036807697402261 -0.8809669009480571 -0.026142719833638847
P 2.2116798181624966 8.620893405014524 4.738389379329035 0.7392880610176108 0.09513698761516519 0.3266483722287278
P 8.352517120976506 5.368420890046913 7.836290023324241 -0.11004810039904273 -1.2292415931973089 0.28291622144809986
P 3.159380074260468 1.615703560721437 8.12702509180416 -0.2724569737879888 0.5377639667947578 -1.7056119873759334
Ni 6.492318848955806 0.006386758753913751 7.970998505741072 -0.15782562489363788 0.59767658398999 -0.2899569303449651
Ni 2.8926916327315157 6.462198786501228 4.153344932790608 1.457283531205032 0.28865646636598674 0.47611585496565745
Ni 2.133694034166321 7.07286207130017 6.571182124554761 0.16772977138122727 0.21288374221004627 0.14981021078832907
Ni 1.790950103665372 3.1076537626705143 0.9759198638379244 0.577925626615308 -0.5430344711650776 1.2746318484066501
Ni 7.004938066681236 5.842303655934472 13.52145740668414 -0.17156765707007873 0.770592527557847 -1.7346788228349028
Ni 7.277566594830488 6.363557913236663 11.108096261352864 -0.6832724648839394 -0.18070330082275976 0.24114093728352665
Ni 2.116218802884624 2.6435809985483476 9.618543541774399 0.3220635810715228 0.8182736356838939 0.1303644433588916
Ni 0.44632244248678193 0.8056967505052222 4.044895922779999 -2.186916328521066 -2.35937821527064 1.8842008129588517
Ni 8.81187138615068 6.199324309536957 1.4217350210623134 1.8744930987527846 1.7835308113405994 -1.046962463246997
Ni 5.286658441872996 1.176733957010332 5.956493195495248 0.35237071669549636 -0.924975445318523 0.4004817132701103
Ni 7.101975023307352 1.986683884136462 3.9937832025552185 -0.30493514892135226 -1.3630060633766847 -2.3513057226751504
Ni 8.212295641369845 8.341951786375565 10.129041299992581 1.546041868987363 -0.6858093723731803 0.390615876219624
Ni 4.824823700967269 8.634358844700099 4.320276286975798 -1.0331911204945172 1.5473058233014514 0.12828904888710163
Ni 7.390195113197798 1.6071897474022325 1.295223298675692 -0.7030691878948924 -1.1328313952966749 0.12194845138105448
Ni 3.059526938420333 4.52529226873707 6.005668160618461 0.78226302191724 0.08174102592423342 -0.6795536212714555
Ni 8.350689402016414 4.217051196156228 11.82166665117271 -0.8342941794818663 0.0055160447222227585 0.5911482959531691
Ni 6.588115567716145 7.902879606600374 1.238610636396512 0.4817861658775574 1.4555318386212481 -1.0379024099272576
Ni 5.057279712381435 5.249544556867044 8.240795934521527 -0.7366660500137313 0.5059774184117803 -0.1063200008151782
Ni 3.1599395800645778 8.992778262812859 2.357853507015211 0.2980461351110028 -0.11137324696836948 0.6506261396038279
Ni 3.241030621273563 4.132174165672766 12.987292552952114 -0.30956801970767334 0.46304668048652503 0.5818023359618948
Ni 7.888024727501257 1.2990978763691523 5.839418471004612 0.4882848862280235 -0.9799715990487446 2.266651122648548
Ni 4.868595705042129 6.459177455159034 10.374476913552419 1.5436489432751543 -2.2516919302355545 -0.6512352339427365
Ni 1.3108101978685183 0.7447721634957023 1.5518984513304253 -1.5756038989151961 0.44165407374336196 0.043492523965996066
Ni 0.8908656565164945 0.09738944528270468 6.484461522446757 3.5824370766960043 -0.6093198246558732 -5.166727190531289
Ni 0.37669754022335417 5.805534799507721 10.783255584073757 0.22584107370166265 0.34189964196084344 -1.453861907117993
P 8.421009956496285 9.277753219039468 13.626261236380975 0.08107665286735714 -0.36888054142506144 0.22261948144057142
Ni 5.827915031672115 8.551225607306113 10.116703264502284 -0.2638808020832036 0.4786152243487435 -0.8054224907528387
P 5.271365283227328 4.213162630817664 11.98555429378354 0.6737010191454204 -0.5752524506585189 -0.7299400441438074
Ni 6.10165324633285 6.812188317165399 4.884384958834108 4.18593309558125 1.5016983098749812 -3.286663796779578
P 0.20035529841303737 3.4665580858135017 4.421710026712543 0.26023934867587445 0.3181575611488972 -0.3035272128302321
P 2.175824821215792 4.6998674047160724 10.64939382044048 0.3941056345404374 -1.6518383931989036 0.968667486889835
P 4.237902112456053 7.552656948517822 8.44692533283298 0.5254573815132627 0.7452661329779164 0.2504023079807946
Ni 3.5156080946404638 4.666063929051104 2.5878122575236997 -0.2967600693097276 0.5033548931872686 0.2070409102760241
