# total energy = -340868.4168291228 ev
CRYSTAL
PRIMVEC
9.30685477602170 0.00000000000000 0.00000000000000

0.00000000000000 9.30685477602170 0.00000000000000

0.00000000000000 0.00000000000000 13.62152271600407

PRIMCOORD
 96 1
Ni 7.387688381582326 6.209682524604535 6.681424664982081 0.09174107455973878 -1.012635664940669 -0.7180862301290148
Ni 4.9465654792147316 6.132900971362425 5.862758338548351 -0.015073349393354685 -1.4098145390897914 0.9845936712017881
Ni 0.446499157728022 6.663670908501517 13.494147647379158 -0.2074438021413976 0.27563485729533815 1.1252612962589006
Ni 1.5427973431447892 7.91136649525833 7.612864944761341 1.8661575823038958 1.4706152153169318 2.238032944691223
Ni 8.820664836453554 2.0713522488085334 13.264189222132773 0.6309392026978617 -0.7411827069371622 1.8686266126696787
Ni 3.229208764844608 1.6359682679334873 5.700144315636501 -0.22188311749517914 -0.7743833620588471 0.5169812257214516
Ni 1.3936549927563278 3.7582569338200895 1.074999447890153 -1.7147841407935047 -0.8643092377867179 3.5660853748108585
Ni 0.21210508541797898 3.041191681378293 6.251012406015149 0.46064141347914217 1.1097760561391081 -0.08633764415598034
Ni 3.5977788341166113 8.539988705220155 9.349690668977182 -1.1418899059545173 -0.20101141625249253 -2.4681564478183233
Ni 2.7988504856363186 7.1988709085913065 0.2574713498153927 0.013290803571635175 0.33560301031885426 1.2470107442552718
Ni 6.232074817586416 7.9241727276536205 7.992918742341883 0.6125041359211258 -1.3702637733803626 -0.7858198860305627
Ni 2.845794261945797 4.925494759634109 13.54931496071224 0.02029705968613924 2.8906046380571957 -0.5676293868956224
Ni 3.698767517053597 0.1362281584758855 0.06910712065987404 0.1280980159222181 0.7508410559625327 -0.26757779131881665
Ni 0.9600113937547697 0.7080171280706474 6.138947635015929 0.03333435248607162 -1.3114677862880768 0.7822108285230659
Ni 0.9555999445139503 9.077264133961213 1.1634918167012986 1.9946299508463967 -2.3750490890386775 -0.5959611439607801
Ni 0.5474906327214892 6.060623935910519 6.71855715481546 -0.8628334245721399 -1.6296942530016965 2.0954439342416813
Ni 3.0463290653043105 8.033751637698783 2.565954816971364 -0.9442294084521288 2.0981849873219285 -0.8703883541012624
Ni 6.022409989533294 1.5288929018667636 3.3956553506201064 0.801620086287613 1.022025076575369 -0.34712643757742156
Ni 2.872235036825898 2.7776029358118657 12.991568173848593 -0.6214335772002717 -1.7097190675657719 0.273474873529542
Ni 9.2942813774157 1.3732822872960881 2.072201033978919 -0.9373144264998503 2.6855812724318326 1.4384448012319742
Ni 2.6399080169976825 5.241844065846538 8.039749905706607 1.4669133409853126 0.08899462216285317 0.09020869707561238
Ni 2.3407763924213616 7.94484325247189 11.684692157909243 1.4310276828322968 0.509694205141735 0.4958863527243654
Ni 5.71353408783643 3.5649535567487423 10.290284240588397 0.6058434360714986 -0.40358786299925975 -1.3609993173593014
Ni 4.896624895615076 2.0709427471912423 12.128372269276413 -0.2190991269921388 0.5445442229413847 -0.6844405170501116
P 4.2364617542668865 6.866392822770564 7.919430885062486 -0.3459606994040945 -0.02414060180194552 0.31323287015377027
P 9.101285126557322 4.971610225854067 2.280488447501151 1.228226521669233 0.27452594050187556 1.042652008797101
P 7.560423609239727 0.27807393459261187 7.155767140629426 -0.8805241569836835 1.7187937761735301 1.9181116067736836
P 2.696084193406091 0.5240857539223065 7.629551204980466 -0.4217997580215962 0.2636254915392879 0.6365051268214135
P 2.355946565971015 1.8651030365178194 1.5535756118489938 -0.789037621636912 -0.9209123309927431 -2.851790750513792
P 1.416010058318455 6.027230940391405 11.699389543228023 0.10173983764366348 -0.9283803572350141 -1.5393873397853228
P 1.1220158176681516 1.9444532817229379 4.428003343698388 -1.0156615962511863 -0.23803967265038364 -0.1265216725740337
P 5.013165333154191 6.844605475359682 1.2639462861648179 -1.3260863075322 0.06069628943879223 -0.32883638101898205
Ni 2.4386193583891553 2.747364964116882 7.818141590710989 -0.18157310502222276 -1.6686174124294553 0.9280381434042468
Ni 2.028140521329368 5.957671506581524 4.944912581777666 2.5535962627503825 -0.06186819825970636 -0.9054522876839309
Ni 5.594853073661475 5.142763288171934 8.119721848821612 0.3348553335195524 0.22051091973800088 0.8274391042332458
Ni 8.351850632639641 8.361371545241662 5.765445863312047 0.7445130568619758 -1.9249265728129878 -1.7745864576631176
Ni 7.327649860374467 7.897741259628456 11.51586674001148 1.2366093464162895 -1.1165568265063672 0.9901261709842433
Ni 5.901951366065099 5.5135483889192844 11.333039158858838 0.303263160535568 0.8432416184831413 1.0496862899360633
Ni 9.126087894968258 0.6317279074547811 11.43879667426628 -2.815704546314196 1.5614252934219688 -3.630131040337858
Ni 4.851198136660562 7.302037395583887 12.605207120676273 0.1297959724499313 0.9100237091046973 0.096430252505292
Ni 6.247375287105207 0.3156894501972949 12.59034686539607 0.3878226297452031 0.028476253062821925 0.39540892673289324
Ni 7.677857504852932 3.9705276812559727 0.9734160569226012 0.5523698896333906 0.378912985960399 -0.6402782207106006
Ni 3.4829973921608612 4.056960443069242 6.303373702584292 0.7738089776126157 0.58646348888299 -2.290547212539855
Ni 4.85645650970078 0.22843768514944301 7.401567694352019 -0.49664945614263506 1.957141466982636 -0.7775607313455641
Ni 7.356882691736098 3.2941613054599634 12.245082091575409 -1.030880984304102 2.34633346627154 -0.3953032543929644
Ni 5.688135680709434 8.596109040498932 2.3354919601873165 -0.2757667548875122 0.8052234873681552 -0.2049583167153825
Ni 7.806347944133001 3.758052183011444 8.048208906160152 -0.5378842944227059 1.1122204039145425 -0.9315870370977699
Ni 7.068295733805028 7.7910660883240865 0.40845366542518324 0.5621745344286383 0.720149797526263 -0.7569553963903867
Ni 8.756875652705503 3.1442371792566735 9.978528797973578 0.5676237304686675 -0.37636399428630024 1.753434763286167
Ni 3.8039070572931255 3.5218907389485916 1.7889013003383745 -0.5330894441372238 -0.41063834208813793 0.6361415728344076
Ni 8.011247662457642 3.131291344037307 3.4274475670898092 0.1047950795302195 0.7717862907556321 -0.020779141528880343
Ni 5.722422134302638 8.275590263274083 5.408166870451357 1.4552029945269196 1.004773488583773 -0.2824295116196684
Ni 0.8770370592366237 6.0329546561785445 9.04290694827048 -1.9286333322406142 0.18760362748701886 2.305482750803765
Ni 1.5605920497870818 0.7990968025546785 12.71803412309495 2.0705965361806986 -0.3877007594553581 0.7898318354034333
Ni 3.6969619871955404 6.33176054083202 10.08346824083193 -1.235328422821337 -2.1675412664285636 0.8013665755159102
Ni 7.117072960537379 6.535375913175157 2.356277890006823 0.552774324160661 -1.4201290336419221 -0.36465596182075266
P 9.06823648467093 8.671420110660769 12.998446870333591 -0.4474308283261391 -0.5734220823179996 0.992313151333233
P 5.891369472000094 3.7931017987095994 2.0911758498274056 0.6242417360730281 -0.9904763552348103 1.1072697447774864
P 4.833682635666423 3.1274569198026705 8.280837468088373 -0.9227732954608817 -0.6462262107639193 -0.6670706583130963
P 7.050017070705936 6.699883881066978 4.391088634270569 0.022392251652271114 0.7677424597035616 2.2610749141123514
P 0.7414799250017995 3.9761583284937276 8.121914543845108 -0.7782657278323888 0.43851244279058677 1.2690147593301886
P 1.2068198798671945 7.665330478105795 5.6034181722613186 -0.8030658175952041 2.8706209958464175 -1.9374745846813277
P 1.098962737985642 2.5287469416129844 11.370648159665064 0.23261181676659295 0.12815766551555993 0.4410061557467179
P 7.712060196751691 5.985778208495605 12.914130487333324 -1.5322188470613418 -1.5855548394803207 0.5934003252121394
Ni 0.5534944848422753 7.142108400321775 2.4868949456403247 -0.2116634966497 -1.2788849672560492 0.05423433586353241
Ni 1.0473934547717596 9.06060486362141 3.8154298743924056 0.08003844141082989 0.01987025656136578 0.428697513582694
Ni 2.1758775366221252 0.9061293570886856 10.143703136678994 -0.797621249540865 0.8717726360432987 -0.297494633482907
Ni 5.960621779597008 4.472911710832831 4.329356265463914 0.7127133958528757 -0.21409756001248936 -0.5200557508817173
Ni 3.2908015308271876 3.3225937472968905 10.192372403894058 -0.844788651255287 -0.28546855555630835 -0.6634567157095929
Ni 8.400078754930622 5.565918061657873 10.979629025596056 0.9000871667172757 -0.4016459087815405 -0.9714787310863849
Ni 5.5186299317156715 7.63236559791385 10.16808523524671 0.9575672632116153 0.46302791143344774 0.5143281043693206
Ni 5.523767315641689 1.8746239491198409 0.8071165194551302 0.6479622196184196 0.36133075410226156 0.6394284711157955
Ni 3.426523396394422 7.9432331665675395 6.156056426449258 -0.26769246251980994 0.7779368837380602 -0.6259247802024059
Ni 5.311347658526791 2.6057890867933704 6.0632391621482205 1.7026809297720675 -0.1275863663931222 0.48788610812770816
Ni 8.02465884042393 8.915566836260801 3.3596945938234777 -0.8308044211610529 -0.4293364327182735 -0.23101259060027313
Ni 9.32174590633903 1.2979432965694364 8.331604500406563 -0.261422313240382 0.1279110967223926 0.13723777343995722
Ni 0.5149045415255379 4.220165451269683 12.773092546225254 -0.9005401950942942 0.6529684145837593 -2.496040575823101
Ni 2.9761181516487376 1.2668677079299935 3.426834245349366 -1.115012621947699 0.8077398260321057 -0.976049381176203
Ni 1.4960117833692639 4.006359072768958 4.05873712167699 0.6800038214349966 -1.3506804519317965 -1.6888198555192593
Ni 7.290925010787392 9.327050813653939 9.614384138224803 0.06530730584824236 1.6088750022634999 0.10636808044429422
Ni 9.021246174086759 5.249131333263336 4.858743203959154 -2.7373406643923115 -0.17688675529014697 -1.7950537243785343
Ni 4.575166126041443 6.935161173910679 3.6940750007936365 0.8796684938516076 -1.453952152838954 0.08316515996526969
Ni 2.6721283487945526 5.716940396743898 2.299857873999027 0.058072992883332245 -0.646791596349086 0.5350550525040269
Ni 4.952372956696316 1.283880638757457 9.704789996411291 0.2047197183420152 0.14175211637054297 -0.23182454497860722
Ni 7.950157466641738 1.5164682505239495 5.288624041509102 -0.7156426536845288 -0.7372664026018916 -0.4387153028300122
Ni 0.4271027413508244 7.932399987419199 10.568408432197675 -0.9770888781843109 -0.9249795590835811 -1.1369652149593903
Ni 8.725185811640124 8.02107570127263 8.263415035643618 -0.005372577165823005 -0.21529646541659694 -0.19106664633495482
Ni 5.218949202697983 4.85919272505268 0.19960877129213894 1.1436236008161724 0.10419241294921411 -0.07953784762532755
P 4.0021151469170295 4.303266359014992 11.924662897698399 1.911096866018747 0.5556295342212688 -1.0100694468753895
P 4.53093064451905 0.21610703304150713 4.104437502166694 0.9488255124632434 -1.9279890137883955 1.1518079363991778
P 7.595836192280482 6.488031942103325 9.159711700489845 -0.8593873750050683 -0.7654130402394366 0.25696736279282195
P 6.869640915144078 1.7957762740813983 10.911793221320773 0.36376841700947676 -1.4013149862592125 -0.7448727541942397
P 7.379135381893903 3.640125024086502 5.959770202370141 -0.17593030491414863 0.03485798821944964 -1.2135192973660456
P 3.9157009988136373 0.06546627900795728 11.235944464028094 1.2494286096681448 0.4112924307323691 2.659934004177374
P 7.282874581265643 0.593648910474164 1.4417425815377407 -0.25146520202767014 0.4785139228841888 -0.26741015539270074
P 3.828719132559 4.806255334162848 4.1464458533023185 -1.065524028299268 0.42547386443907365 -0.1671409887572928
