# total energy = -340876.6621045607 ev
CRYSTAL
PRIMVEC
9.10942190607102 0.00000000000000 0.00000000000000

0.00000000000000 9.10942190607102 0.00000000000000

0.00000000000000 0.00000000000000 13.33255975401246

PRIMCOORD
 96 1
Ni 3.9468302025728548 6.022603325252942 8.08317100056861 -0.5219473114774753 -0.35803074319475114 0.40174618180483074
Ni 3.328081816051874 2.6573823953113376 6.042089290060772 -0.3155412065719727 -1.4526516888599756 -0.6548208944114658
Ni 2.140076533263263 0.4849127570709148 5.62698021263524 0.379602812938572 -1.2238296781531182 0.8191742931212925
Ni 6.636951860901041 6.305687726341306 7.6432369260441595 -0.9372797166071729 -1.2907084422535384 -1.2030875605097602
Ni 5.9039166647502945 6.119919281515878 10.000006570267963 -0.2498124969155956 0.008693414008939866 -0.006884128714342982
Ni 7.027664084066216 8.551023631936143 6.391762655736463 0.8152852424795315 -0.3004873975626438 0.15357739114024518
Ni 4.673616335165015 3.8267771287556474 2.293467359129096 -0.9298823957018372 0.6087336131351 0.3329120937502525
Ni 6.1003066957408985 7.133779742074915 0.7892785900624392 -1.5543550168387488 -1.19341327064479 0.5884568651639349
Ni 0.6116321059787537 7.371326142100055 6.126631103716995 -1.0642014528331025 0.5219069451578431 1.001488390074598
Ni 2.6386534234797736 4.5418121068425945 12.276474836821727 -1.235432552499369 2.204959816286338 0.183067173069246
Ni 6.802342528495336 4.603000095068574 5.36526196107554 0.9168325044964145 -0.31974984533668155 1.162337889396224
Ni 7.307496421465927 3.882736308697911 11.347928668912743 1.253263410033203 -0.8031707186041845 -0.5608355039022406
Ni 0.9556057062483125 6.86752044359983 1.8720645819767021 -1.2332573992249214 0.9156256286725069 0.06576496221095125
Ni 4.149469297122044 0.4649931837712648 1.136273785641594 1.4517636298280674 0.1263635497296146 -1.1734057171746113
Ni 2.869823228036969 2.349820977048163 2.097745048778206 -0.18810602104473412 -1.994530449154055 -0.8405535301280169
Ni 8.905179744225801 5.148098803934791 6.96112977601147 -1.018600367164536 -1.4047564078405936 -0.8917495933858578
Ni 2.6005304920035606 4.9301923179509215 5.982773288075739 -0.48038902841971454 2.3084911986127854 -0.9060423558594459
Ni 4.168507989304909 6.555759581749908 11.915882006878284 -0.09201181172262217 -1.7695951750961139 -1.3716868789801344
Ni 5.1944384341425565 1.435599375386813 2.9736004973933516 -0.31715714490884084 -1.2855029867931989 -2.215542734008507
Ni 2.435422216494274 8.997476408913254 2.5823435307867726 -0.7152233067589231 -0.33023428980777325 -0.1495682699808521
Ni 4.914533221366068 4.278203650197755 6.784166498585064 1.6640652742823987 0.2399147781859094 0.11082534488469944
Ni 7.371080187703434 0.5537225987655077 4.16794502701931 1.1486789038518928 0.29782682001134514 -0.5268640320528023
Ni 3.3415819795997233 2.8649770154813305 11.019041182578134 1.9106294394640257 0.631369605367061 -0.21144906664604873
Ni 7.456872725013584 2.260175154190956 6.501649614493348 2.1749306169140996 1.1878568596029349 -0.9076294978409079
P 9.048789783586017 0.4621483112503517 5.887098849674694 -0.06307404564234943 0.4154568465227039 -0.23201583505380685
P 8.165622201853557 5.357169150484509 1.8975035541249632 -0.5853779691282951 0.19460242740235517 0.016855380994441938
P 2.081639590510597 5.993389408587658 3.5569268960898985 -1.4208137184137724 -0.20787446192091297 0.5565721006401962
P 0.238306125828035 5.208011473067182 11.275639027977073 -0.20114639916846003 -1.1928062331884104 -0.262689867098896
P 6.01866805490701 2.2119225453428073 0.7907861994195032 0.018425810805355363 -1.086270259707684 1.5674046509338553
P 2.5934889087225304 7.304900236168264 6.703130901494002 1.6873746384323005 -0.9073914136881729 -0.05315344409452782
P 4.387452949407844 4.221297090357395 4.635198258412857 0.7019960094353717 1.4460010163126773 -0.37097573339119333
P 4.245728560421721 0.9325861966090316 10.66670148905463 -0.23020603553857774 -0.07125503879124502 -1.267044008757063
Ni 2.560057329626305 8.572740494215545 11.658457025952933 0.559620657658533 -0.9065617186980258 -0.9918112719961502
Ni 2.3673475051629147 6.491037137750268 10.335440087321524 -0.48305474817733585 -0.027487149676675243 0.12298023507967852
Ni 4.6843199061290655 7.9981363671769365 7.120013583401832 0.0347595149683724 0.8225581219918607 -0.07185899092383108
Ni 3.6080234665167503 7.412883325706861 0.5488690986721919 -0.37695611934434436 0.03833052014908237 1.3599587919099287
Ni 5.013807703379873 4.410581772112289 11.567115939643461 1.2026026504535416 0.29783504754146123 0.3931769520785809
Ni 7.1505866258439985 6.058649308491026 12.229891074101761 0.7393024591953138 -0.4373009389809888 -1.1932893434724159
Ni 2.1595433682846887 8.435753004719894 8.460815757735547 -0.531358063268414 -0.2398265893474773 0.2497703308237505
Ni 3.215890173504433 7.540943581547388 4.537083405832008 -0.4259204650581891 0.6255002910704776 0.9025685383782327
Ni 6.4400881399613885 4.373661284352889 0.35066264891543303 -0.8263201601374542 -0.209336134068104 1.3598474631430453
Ni 0.6888253488292747 2.85709736536737 5.526932340685395 0.031612741809274585 0.3608129339255786 1.453355914015852
Ni 0.6007299496129875 0.3394999630776907 12.089178741910624 -2.376973816865216 0.8925684897427273 0.08056706022079028
Ni 7.584131351709569 7.196060860952542 2.9132041179476076 0.31563453761672744 1.343307813616809 0.41956058427843224
Ni 5.576332736717773 2.445561003288307 4.9024623261452485 0.8888630158666821 1.3946285753779721 1.3495347683631276
Ni 0.615568287266895 7.917691060637764 3.9398378101711478 0.07093005135165849 0.6730351034266474 -0.1856490748638093
Ni 2.474355886537126 1.5420338631689097 13.209367110013222 -0.03889590573424915 -2.0488563162901294 -1.20645004922409
Ni 4.151154540210002 8.006179986888643 9.731222139987572 0.7944071134789416 0.3448265857996513 0.31177042667563076
Ni -0.3400319533281592 4.335957386293141 0.0851867607406947 0.9725359687063057 0.9650589436029704 -0.350402537225532
Ni 3.4235576690512026 3.3661865286838935 8.295345838169007 0.9098401323389814 -0.17137379589171778 1.630303090230289
Ni 1.1740041010254236 6.516871458817542 12.739874782668215 0.8128627490809677 -0.02428098403455173 0.0766453565688809
Ni 1.046362878601362 6.277239001132174 8.323037570401873 2.4830793876767427 0.4237815643383153 0.28495433492405114
Ni 7.414887398568216 0.9235951969992295 8.39667267298128 0.2535071721583634 -0.6250549760029429 0.7006886034778578
Ni 6.764520207948326 3.007648784365548 2.6572320898467363 1.3515317441884982 0.8128650630738129 -1.2453012177633327
Ni 2.4349576359673244 3.804285965597996 3.5935249103070634 -0.5046669271304728 1.9802646832636603 2.1070190406737903
Ni 1.11630502146262 1.523359547869928 7.692087112981875 0.0236430933402367 0.293389610175598 -0.5863269633051257
P 1.7919326395576682 8.461596435209266 0.4069752744350637 -0.9270130445738423 1.0563593310808645 -0.005600119795596807
P 6.150818441269119 8.127116674649267 8.898657398004303 -0.2054547967358268 -0.676917469200189 -1.0911764387600498
P 8.999243636800085 0.21250095491147192 2.312799374703485 -0.8141611561774171 -0.5210718508510576 -0.12866648683117843
P 7.760763046171641 6.759564682327523 5.284040531773698 -0.33412899687648906 -1.3658180789041832 -0.5928025437271403
P 7.147188811401794 4.016735907745724 7.879209217930927 -0.7450481034298395 0.24555295030829324 0.30232213677853736
P 3.704619778434018 4.942681335645997 9.953328980500398 0.9557204398108639 -0.8151646577412671 -0.038103491739940834
P 1.5984576236381243 3.665795421456331 7.333414549216493 -1.5888497081815087 0.3664529058201753 1.0485460056840328
P 7.974032836308105 1.8284796410110895 11.73106640760421 0.2963885449029218 0.22155838716590873 -0.158917572406236
Ni 8.288562962475533 5.385153295166689 9.329285286914393 -0.7623624263385709 -0.9625256356581551 0.9569954498685455
Ni 8.685606233998168 2.890711132905537 9.287181537981763 -0.9466287619222405 -0.41639889872099894 0.15844243254203036
Ni 1.5812863629851586 4.131687705188576 9.594256513104956 -0.5182454371458558 0.5749017521873195 0.7102551641203703
Ni 4.0996407582511045 3.149027015311983 0.09797183465392413 0.08792555746839051 -0.03485593133692061 0.751499515482138
Ni 5.6124880330210205 1.9388220708728263 12.130709508193346 0.5664639058326115 0.1846255186953014 -1.4408354129513379
Ni 5.609090218578816 2.8609506509144285 9.795325143284611 0.38200396618089694 -0.49761953336538817 -1.0647508975786695
Ni 5.4955230532947175 6.685896785828565 5.116436274609815 -0.12705620492126504 0.3745102289070131 -0.05130584936282777
Ni 3.7913232579538736 0.9339435005014943 8.262320539298312 1.5211826438518383 1.3884389016274927 -0.3251327069151497
Ni 2.134510676361957 1.43691113216879 10.062482630778467 -2.484103715176199 -2.2118711986941904 -1.1159613590142137
Ni 4.819968310576446 -0.522064624151581 12.141482310765335 1.9715198471914948 1.74566694641529 1.0265072807164386
Ni 0.1692776580031126 3.523105433727919 2.599635946753629 0.11279018192055415 0.5208126836523997 -1.0593868050532786
Ni 8.233250551502161 7.648562294202104 8.565769964426872 0.7118713595675547 1.0879993265836487 -0.14398383391453914
Ni 5.05861695067533 9.327683850509729 4.960899268897914 -0.8254989497877395 -2.203572449020508 0.6144031527160515
Ni 6.207251311160431 5.330788264091411 3.2398388441976143 0.7568286410045353 -0.42946215966286033 -0.8783708580861066
Ni 1.0464813010886238 2.935529489623092 11.792955821331665 -1.9706104480033482 -0.46904069328643094 -0.6191686924254949
Ni 0.9793175319669705 1.544238343316399 3.80939270762561 -0.4314645348048698 -1.2355119995870527 -1.9186931903087665
Ni 6.750373275431586 0.14797800725575735 1.3942125379732218 0.7578110595224625 1.2808870852877423 0.4885628224797585
Ni 0.011576253600949027 4.914378361190418 4.610679337896399 0.6198127537673971 1.4192700280757364 -1.0672260985920394
Ni 2.428663025298253 5.386255535240434 1.2344186993153623 0.20966497816243243 -2.94620165859621 0.3657301687215379
Ni 6.644594666040477 0.2771386812856095 10.66639450152996 0.10909190713336052 1.2057753917545686 -1.083001102038109
Ni 8.431416919801693 7.670497782611833 0.33518574077252117 0.5391929859318004 0.9751389535467916 0.7308687266056639
Ni 0.1846352327165529 7.280131717486347 10.644529155670376 -0.6514074978545427 1.5078532737327839 0.18960137464333798
Ni 8.556616817103741 1.9900625701688117 0.762663591521447 -0.5698073683835477 -1.0075022003688454 -0.5482548390237525
Ni 4.06499762601597 6.168773112222432 2.7675863619572 1.1814514702972234 1.0046367058955923 -0.437173412264189
P 0.35490399584382604 0.2305567404500626 9.250169956001391 -0.5919227122253483 0.20082758237646056 1.255685132100818
P 5.471701914510895 8.147266716327973 3.0418236923048942 -0.11105520150731842 -0.609525512908776 -0.17706956072491442
P 3.4009207551399983 1.452406259155896 4.08798980738896 -1.5941562079960867 0.14806160352833855 0.309363359896035
P 6.995771997304394 8.12062165669406 12.222797567114776 -0.19863520271083213 -0.2532333496716865 1.1018465168793863
P 1.4157863823256984 3.1240854176102215 0.6714527699479639 -0.07780081032956278 1.1923732594160497 0.5218141283337205
P 4.434484895694986 5.355757190059464 0.4234851910437826 0.7434882151418873 0.09465182044863053 0.23017621074190683
P 7.944919123285888 2.9188228094970765 4.292151086370569 1.1466122511308512 -0.038530294864714286 1.918983982076308
P 5.731220240634153 1.2059781725861187 6.842682693309974 -2.844028847180186 -0.5957582839213547 1.1381816038649946
