# total energy = -340875.225813025 ev
CRYSTAL
PRIMVEC
9.13798908558982 0.00000000000000 0.00000000000000
0.00000000000000 9.13798908558982 0.00000000000000
0.00000000000000 0.00000000000000 13.37437070884967
PRIMCOORD
 96 1
Ni 2.8940103174644625 6.629885303898603 6.296827528751642 0.6099682568731495 -0.5893364395554109 0.29011505318938424
Ni 1.1913287899253853 2.0407048860170356 5.833981065406629 -1.3166215625748743 -0.3960067082178922 1.1176379753856882
Ni 5.677240791863631 2.3410888669823366 2.5553875068950185 1.0332093753269624 -0.2210243690393097 2.2905055606686426
Ni 1.7726785248070926 0.8517455766910755 3.8361443143221927 0.9359417145220397 -0.8998107731274374 1.57639991245393
Ni 6.001502338607173 0.9652732131086532 0.6901694792637131 0.21051009977154714 0.7013311221578632 0.9318279494639822
Ni 3.223060170548532 6.837125760953606 12.02701017484138 0.032329051150008836 0.5151850530529772 1.0207189561694356
Ni 2.5292766165564244 7.181774161601187 1.3361193149922235 0.3630207402101748 0.6846004396667436 -0.15523549556895846
Ni 2.5925571917628223 1.2897540715929825 8.826683493823314 -0.04731524014619593 0.14900391283694983 0.6543051311173118
Ni 7.511820055508 8.346886060513265 0.7343187602820799 -0.21471848142593988 0.9417197546563975 -0.7402820494997638
Ni 3.87309103225353 1.5237505610240627 12.925246185383727 -0.4108476298854666 0.25792175628629127 0.25040693596648483
Ni 6.355562868130218 8.831418799826483 2.9707283057886955 0.8574942717474136 0.755372625284299 0.6722306052474809
Ni 7.929133746269845 4.060026877307289 5.479827328393748 1.5282750319222451 0.22554719661032768 2.4676568824740857
Ni 2.1161115728911435 3.540376845500469 9.424343625627172 -0.10838305399179399 -1.1156595115030787 0.5714973544914609
Ni 7.9650186298562025 2.5918992565404597 3.8374409949895987 -0.912380382262332 -1.3216663240876334 -0.44343430557223634
Ni 3.7362039540453216 8.61556121895637 5.087383589037208 -0.7249695875124095 0.290858359113312 0.04690592052291921
Ni 5.230566741803857 7.036937032789432 2.1168151980595034 -0.14761011781321673 0.13528270659611538 -0.9531814754390939
Ni 3.839563749880638 5.048565410917817 10.134229230387684 -0.3953492771395514 1.4313171890482574 -1.1289649703627331
Ni 1.236534422495212 8.38299025584041 5.907526343880802 0.4420217414954259 1.065311912288462 0.23388502705206168
Ni 7.977967160551866 8.37860402102466 6.75855093322404 -0.9837308089808607 -0.4307559387736194 0.32814526848922837
Ni 0.12434701562976172 0.9095552377637449 7.79412818003781 1.5092426978811426 -0.2429659063074074 0.11490002917470533
Ni 0.7105161260152749 2.34998926846263 2.4748470976886425 -0.5646764749148856 1.81200449330026 0.13733933201482798
Ni 8.698342263114458 5.676665098544063 9.242680400341515 0.8390414643588646 0.11892689094591131 -1.1512147828998691
Ni 9.081845393838229 3.3844553357897444 7.697886877788889 0.3893112984755876 1.0237536292307015 0.6199392520429323
Ni 2.8960480890559466 0.4778985591543963 1.8937970888526783 2.1184941311929255 0.46845936686166423 -1.9246938879768916
P 8.07308449012925 0.9770612191759822 2.3039895446313685 -1.6607277252687334 0.09185394598851923 -0.9148656105780308
P 0.9296990211550782 8.003398184494017 3.8377352382418226 0.951867898833993 -1.972949894769802 -0.6448547843376894
P 2.59154287496168 6.953132533841003 9.91011456247692 1.7926798248297189 0.133346408805351 -1.0275688892117336
P 6.051021102079154 8.283258241717288 8.624075083493526 0.7362225347184095 -0.7013483485490438 -0.513023012404652
P 8.08713871751805 8.00617613321066 11.77369963143828 -0.605256453219777 -0.07013429492324051 0.2994828675575294
P 3.4679765570729906 6.50082948243435 3.166034548949178 -1.1707639086763901 -0.49543332434734677 1.0927352986067373
P 6.071755199572774 3.9607517626441395 4.485362808787357 -0.3950520576141067 0.41572064170705175 -2.471586813656111
P 2.9490392884237298 0.8605344947031353 6.818642350199818 -1.0700576545035636 -1.2945008194164351 -1.1939722284720533
Ni 6.846939961353848 5.878651211809366 6.478183717600198 0.2816718075180375 -1.1814437569877394 0.1380561555761945
Ni 3.6343519264279194 2.1226086832119733 5.131558456425334 -0.14200639847319416 -1.4756818312065616 -0.3827549854143086
Ni 3.4132217257897075 9.000206598330076 10.738028263335751 -0.3777467335664398 0.38201167949038084 0.8223223518319709
Ni 1.5059223440958776 5.0835182196058275 11.175918878176986 3.040056179954526 0.6100137653991041 -2.090988983794121
Ni 1.448572323879942 8.064942541752515 8.248202173751324 -0.11272796122405103 0.2144955667818564 1.2889665198617672
Ni 3.9836972535240336 5.45801129297891 0.5394575371956122 0.6400257383801623 -1.101319954951955 -0.03164513770910679
Ni 1.3708171737815682 4.68099893335794 6.002565086751072 -0.8649558702317813 0.4945416657710128 -0.7827368762298649
Ni 3.2712996155325857 3.7568740856145455 12.121781174628104 0.7883344249223004 -0.3804083395590029 0.1269883277978071
Ni 8.69921951007761 3.7831823565198475 10.809501045859484 -1.2326706734835158 -1.795455073582011 -2.5312060679806407
Ni 7.659435133036397 2.9024538194847818 1.0949824008006697 0.3632613954660711 -0.5952656605556523 1.3395851133495833
Ni 3.796825374394671 8.368817234592017 8.410472758357844 0.16877209660281256 -0.45730566423768987 0.018385444485723174
Ni 1.8454991607377476 1.5686820539179052 11.276855279276601 -0.17978104611880652 1.148359315728945 -0.01452596153031692
Ni 7.840805942667672 1.5930896230697156 10.51002172582493 -1.0887030375188929 -1.2616320937128722 -1.941311956149547
Ni 5.760679771244082 1.1950753654971722 4.853238150382176 1.610382697157278 0.3237484249731134 1.1759038010061167
Ni 0.5975413379442658 3.5188386049572946 12.754000267785477 0.14930498901713643 -1.4642717895974073 0.5415429742212158
Ni 5.193905129135544 7.563696420193447 6.643865513574887 0.4984224888826578 1.0483485449612462 1.343335838641267
Ni 5.931240339652372 5.847024631189966 8.534186511336083 -0.6009190021866876 0.4683467525431998 -0.20050028094402889
Ni 2.093248323914045 5.51141370186067 8.331804723138443 -0.01951287322194704 0.24804486349221153 -0.4994884682533269
Ni 8.243709024461939 7.410680791048158 2.736195416391606 0.2628904131454763 -1.411609683317001 0.513268809866871
Ni 4.892680453163891 6.231953288228855 4.7661576823057334 1.8634283562981908 3.067202658462331 -0.6017353274403959
Ni 9.062363200864938 4.871544284145495 1.1780056016725438 -0.635280510385693 1.0586548119832606 0.34661247405548046
Ni 8.215710225554732 8.129941058928415 9.336768792335038 -0.8176141477230242 0.2068964142783598 0.5309888528544532
Ni 5.625693394789366 3.385149822968905 6.3906353844767425 0.04717511502390585 0.18857704714388168 1.1286824061253078
Ni 0.32220732677149877 7.289364846435864 0.4518141689844811 0.008999889505765146 -1.5507994382770067 -1.6677062134690956
P 1.5695501628918556 5.653217018258199 13.234875983821063 0.6430588687795312 -0.6494909975581202 0.4475264733637389
P 4.421205900416729 8.564425031396082 0.14824651258208127 -0.4759135091468642 -0.42734434198890914 -0.3101694007370981
P 7.00816150480027 5.789656334995631 1.5880728669992012 0.4169977086472625 0.03920803765802925 -0.7060771214832807
P 7.883526042175242 1.5957396399375647 5.965731679885809 0.20345807802077218 0.6707607055701739 0.8942978137290082
P 0.5835063003327847 2.028523946414129 9.576798182235613 -0.28670345640467393 0.1637985546476211 -0.39585064225600214
P 4.427913184489148 3.2080281783153874 1.2393973545114092 -1.1315291315454834 1.0557854608552655 -3.314021877077557
P 4.421681075855102 0.531132829034886 3.3147306505998735 -0.3230565411124114 0.6698777887445883 0.21091941939482384
P 7.181691919698392 3.988841941443341 9.064854216720716 -0.02685594385057955 -0.20822850282622202 -0.0856987250204008
Ni 4.940207134990385 1.3798729210782528 7.298246971937758 -0.16525354192659283 -0.9978263678419782 -0.8086916484224136
Ni 1.8231019492098224 9.05493401564576 12.984080215045658 1.1527268486690212 -0.7306314137838773 -0.33843328067879774
Ni 1.0243320373048914 7.686748582753642 10.963586733540033 -1.2598112384540496 1.036211138267764 0.7206169669706686
Ni 3.820136384842544 4.460243390276907 4.987263210373107 -2.3834956771441336 -1.779365109998684 0.991873492692653
Ni 0.7729614890088403 9.027483496090523 1.765136028521842 -1.9827982483187916 -0.008522178538398225 1.0388933130856173
Ni 4.712652927944939 4.747148837172975 2.8559094714972315 1.1116989841934337 -0.9814762086187291 -1.0964690546175568
Ni 4.9354371046282575 3.462621695402095 8.83674076473626 0.5303751305298543 -1.0732221682744743 -0.5526689089310483
Ni 8.76769046314931 5.6970336764697045 11.797666749510675 -2.3486158345478136 3.629819936855342 2.7253402974973255
Ni 5.814584769531813 3.144080529897428 11.042923669568836 0.1624078449476816 0.27981007171895034 -0.34024436574560757
Ni 5.98838018611672 6.789644769073109 13.202951504753761 -0.22887548965261226 0.2583213057175551 -0.837104652347468
Ni 8.792034066376726 1.0371891881085595 12.498804557210523 1.9352186987676157 -2.288155315268911 1.1928748816428165
Ni 2.2137601254767847 3.8463989658018494 1.0507271191075889 0.4254931477127833 -0.17609228441330962 0.2291354281822183
Ni 5.397791944154338 0.9748406878005086 9.486882196110573 0.3835155177294169 0.13385291612812433 1.1446425289989899
Ni 6.893909225839174 4.377882693621995 12.744999348423988 -0.0007795584785018833 2.0186602523227237 0.8960721320206116
Ni 5.158714732728347 7.483053665508038 10.566662638078988 0.23241127072001264 -0.2782275577231789 -0.6743224547795031
Ni 6.73499959366022 5.776360560710389 10.595818306418847 0.7880811712609136 -0.6620127841742146 1.365593621598203
Ni 8.496237355989564 0.23778601355210435 4.36356255074749 -1.1090456057309868 -0.12179289963979668 0.5687796984499818
Ni 8.058162153766501 4.9459366542184595 3.3329463182701167 -0.5903453404358995 -0.08165078020327228 -0.31812387969748435
Ni 3.1845526840619236 2.7307053124805583 2.9017967980613393 0.7426770320945016 -0.7571258605299799 0.26504859713905965
Ni 1.3140519848743994 5.712312394411235 3.2730961442092035 0.4772916204413135 0.29947618268931003 0.3788397095203024
Ni 3.0093408791510976 3.3229475304880456 6.972421001443265 -0.06256933809178902 -0.10475214210742605 1.9265551095553468
Ni 5.87086564501141 0.3353148584792327 11.849866599013783 0.6273980223138227 -0.4366710187064738 -0.4897704696346145
Ni 8.730983160535 6.551645840372657 5.188065954037077 1.214156416729412 -0.38758917357815825 -0.7090380038838177
Ni 7.2526758197999515 1.8982436343971452 8.116170109204798 -1.7409574567547628 0.8349184433294266 -0.022476069615329036
P 3.977858078425566 2.1898916976877434 10.636156132142112 -1.931674690170099 -0.564311378265983 0.11009335181468136
P 0.41024911131172714 6.5561417310588 7.258218010249436 -0.6883599067091758 -1.0876177748745142 -0.8396402742851281
P 6.756053520775821 7.488116111524549 5.132803050554302 0.02392771446019105 1.2072987703776303 -2.1079307538547827
P 1.6559224368053391 3.300550318960121 4.229470783435404 -0.2518981758000307 1.9306567904285459 0.3732025658391831
P 7.267479362303109 2.3302420738025544 12.455658627406258 -2.1069521919915974 0.4241230068381341 0.19580107569614666
P 1.261974584426564 1.7420205710428378 0.6029811829147161 1.1779308587384747 0.4598243168944855 -2.4197482317182653
P 4.30067582287559 5.01936953542548 7.448133753581145 -1.228898093814961 0.9265841845665396 -1.1468367084368314
P 4.983018614389949 5.388690506911656 11.802254020088814 0.8035880086472612 -0.48685355309813566 1.8134147433842251
