# total energy = -340864.0458082049 ev
CRYSTAL
PRIMVEC
9.28840148155555 0.00000000000000 0.00000000000000

0.00000000000000 9.28840148155555 0.00000000000000

0.00000000000000 0.00000000000000 13.59451445426592

PRIMCOORD
 96 1
Ni 2.44926787224406 6.800020139990109 0.006129416130599283 -0.3982327693349335 0.38311648251878533 -0.5048147655622467
Ni 1.6971488515452475 3.433931312166518 11.459944281413838 0.15846145870542386 0.4657663934105333 -1.0096788963051901
Ni -0.25731008406531364 1.8599095105185637 7.794986274824009 0.6767413486336409 0.5609044094669631 0.2193446673440416
Ni 2.608248151818749 7.938258009831234 7.331575850522497 -0.42448990325924957 0.13837162993408428 -1.2376300743713202
Ni 5.931313104029466 1.132358311710091 4.3869092281515405 -0.00440558526686338 0.7191013016570906 -0.7597201036197174
Ni 1.2236725865697993 0.006275244033691279 8.703275833652585 -0.3648115135620104 -0.2575060089051114 0.5353049637313039
Ni 0.8643229104664124 1.5136657688905149 1.2449281644956416 0.4369263292503894 -1.773760619327713 -1.0764805273107718
Ni 6.307121827539159 4.680044676689836 7.140152113450353 0.5601256223194095 -1.5040498408262934 -0.5308294444584536
Ni 3.0362948452003784 0.7496315867849247 3.449336126005886 -0.5648322837664596 -2.9601915451173983 1.5263081380038617
Ni 2.099782478502692 7.6557698558989475 4.596292089467529 -0.10474057214320026 0.044904830932490404 -0.22284599562908075
Ni 4.006700588865116 1.615085824550484 12.473374829531599 0.36234711118191787 0.7932318622239178 -0.19025546328756912
Ni 7.262090247959381 7.969708537211457 7.314338435072934 2.236640435219071 -0.7428115007898368 1.3434471674081507
Ni 1.400319405742003 0.8152792218602944 6.007741786692026 0.7567149982448065 -0.8748407334456612 -0.4535963337069026
Ni 1.024566412641134 4.456138470834062 4.154021138073475 0.07332889060113823 -1.012101903924386 -0.0718484494008698
Ni 2.114411710819246 2.691193576953242 2.617269976167364 -0.29065035686756396 2.371931112234986 -0.6420273421912233
Ni 3.7589417680322543 2.677260974747 4.091446106204654 2.3988929855358103 1.9660719367030466 1.9353961048857442
Ni 1.4688213665893581 1.433701920628158 12.555023593820762 0.5116305029324995 0.4063392004921519 -0.02720972764557249
Ni 5.698053477892566 9.157044897227378 6.296544195944181 -0.6479820171127615 0.6845456751694081 -0.8745409428170551
Ni 3.8352088325092217 4.261035597939323 7.459459490813001 -0.3662832130115305 0.6607231188285136 0.41683264382430796
Ni 0.056762350228375925 3.9796806289864772 6.568610763426199 0.3151704534961153 -1.2821253285702177 -0.6626509319788458
Ni 2.704225204216813 3.1770605694907745 0.27250498003144086 -1.4943251573393619 -1.4816521898573838 0.6038426035913859
Ni 4.611459120229244 6.3001926800419215 9.895147720106712 -0.20101244469375704 0.7908253096649541 -1.0756883704267797
Ni 6.3952966227017285 6.681212196776751 5.468964344016069 -0.33881637504982937 -2.0471766145948616 0.5598633697969585
Ni 8.165443021406212 4.93848515921415 4.694852246314631 -1.8664051795383276 0.5967741267803787 0.5577946601933877
P 0.9976393367772042 8.01618769817148 10.656821719398563 0.5357222537743807 -0.09445487394647605 -0.9232826309971325
P 3.269535894534336 9.007984630423532 12.995404355515504 -1.131343755007555 -1.5123740444212728 -0.7354782003532172
P 7.264421636728559 2.4042655671178994 6.429471438233345 -0.8179093103659397 0.6623398284963303 0.16946063802940492
P 6.398176027157684 7.991294782229661 9.761500626703558 0.8369043634112039 1.0812951750905957 -1.8493237985760085
P 6.046284937435373 1.7589260097277237 11.653856381240018 1.0250021569258219 -0.2372729696876881 1.3308659883090306
P 2.370251440931728 4.323147138574749 5.82707123200266 0.47683113586512726 -0.0206169049194032 -0.2324241262358191
P -0.0030911800094915003 7.605148067882936 3.643084749966177 0.9319505910847756 -1.6705578239852776 -0.29298311876579863
P 8.461789470332974 0.11154534210331843 0.5899676808619827 0.09578747671497051 -0.008835596013758976 -1.3466782727509388
Ni 0.4056885822011998 6.497106791223472 8.593921625456234 1.5149225218747393 3.2820198702496635 -0.31526147054802484
Ni 6.3599635435067 3.5817469331732714 2.895563487995425 0.10608577331718504 -0.22739710533487287 -0.5318733123419356
Ni 4.741413145207597 6.315917943732034 0.3735014845843402 0.8703757556957719 0.007086217422820055 -1.0890326529441696
Ni 4.60355469057757 8.14691266047191 1.9766972264120173 0.13207654095399188 1.66211663519646 2.55564594619056
Ni 6.104421042241285 1.7472319122759514 0.27537602492607377 0.7746294166313821 -2.718783984436047 1.9211753333006718
Ni 8.174945056110868 0.5086412241038555 5.817596133662268 -0.3170059640429572 -0.7856489076703372 0.2401567189933864
Ni 8.086575204517413 2.2110668165246805 4.296886041096277 0.7470070269284231 1.573366267833929 -0.40767925945981404
Ni 4.035215981380557 5.899639655013943 5.5409745340989565 -1.3020156397362415 0.47282998512553404 -0.26158249296733016
Ni 6.3887204344603825 6.148903196885079 3.138946542895379 -0.4351864637411473 -0.25426307648778146 -0.9247754134925751
Ni 2.8810392146154915 0.6165139322656086 10.712980323531335 -1.551692125294605 -0.46735353539199515 -1.3936566983830063
Ni 4.057090166844357 4.324438226379193 10.904731012335251 0.2788777897126681 -1.3996458260869058 -1.473990816657384
Ni 4.855576887685541 2.215813189676273 6.826227364740049 1.0317849841756102 -0.2760827434660342 -0.5876917048631363
Ni 7.29080998530718 8.194655044031965 4.275963916783238 0.03636079801722125 1.0830512385497542 -0.5290875220666824
Ni 4.410309497976997 4.2894581064400565 1.487008985509386 -0.5331969162493656 -0.6583268506821953 1.3949893011515007
Ni 7.472193889229506 2.692345338735624 10.323048585585248 0.5283907531099739 0.5435715746154703 -0.911630648580501
Ni 1.6038189935663696 5.854804541114257 10.49496482188836 -0.4602526626811557 -1.2994314239488332 0.12525771825994556
Ni 6.92379737799036 0.9720405023236026 8.362896788713217 -0.6689879299404672 -0.46223112656376525 -0.8449676000353125
Ni 1.1297482708967883 6.10391946856186 6.4339846725080205 1.1247465614060115 0.8639706235003766 -1.316783027853403
Ni 6.683060588669445 4.851796508286914 11.034843868978756 0.07263392141664266 1.1584421538862437 0.8310350491146204
Ni 3.1586881113814766 7.212239397265448 11.355252850755845 -0.8615329605931613 1.218994461548004 1.3532600397335144
Ni 4.853440555347251 8.76166551181865 11.083240156002356 1.409847963430888 0.9052378576802796 -0.14429622294863537
Ni 0.511328358649366 5.3619433822691915 13.214996098888081 -0.24841690211964956 -0.7982339434241994 -0.6303141675193532
Ni 8.628999273610816 0.1875272526551313 2.875905515122565 3.0915643751361466 0.16341571738690566 1.9209475335605823
Ni 1.810420907481993 5.234413630074725 1.66143959209065 -1.5358006508753292 -1.4095124344683403 -0.1268975678562137
P 8.349167602499186 5.90376370526699 7.0201803335327 -2.3911051140602755 -0.370713223758426 -1.1244012622514505
P 1.072903253895322 2.04612338320572 4.355451270050141 -0.9287068873364973 0.6016846767081185 -0.6515154841873166
P 3.2601360322458586 6.68872651356665 2.0203898669307914 -1.022023276803156 -1.6182824116203292 1.022277044685175
P 2.737728468322089 6.118613719688709 8.397440353783226 0.49755345601414314 -1.1483600870598931 1.2018405754765367
P 6.159083284897106 7.1256622071558615 11.895907479369056 -0.6472919330242723 -1.871834578084015 1.077172925392106
P 5.736470306375911 4.0338320095614035 9.191699923115037 0.17106192107825377 -0.09145465366757154 -0.03585891868013824
P 9.017765317172316 4.63138274138417 11.170788912905794 -0.3978735862233019 -0.1601211057960339 -0.1227048699311048
P 5.0360412398622545 1.6527317157117491 2.4424176761593244 0.44821038680464104 0.45523001265558377 0.25032620332722055
Ni 8.754188348634633 5.323526553785848 2.430535952997842 -0.6697854861410981 -0.25257771836555853 -0.5109926122381844
Ni 5.010358809795417 7.163911844412731 7.181438129148035 -1.322908938245483 -0.4104948745317382 2.524945946003542
Ni 3.1749892559627795 4.93712905259941 3.479489063700634 1.535494946709452 0.5011877103326208 0.9015218422812732
Ni 7.608203951966837 6.403990566478423 13.581749559803864 -0.6646160261250167 0.5380938393303507 -0.8347958017086332
Ni 6.626605684529753 6.041807927926434 8.849403752112089 1.2744282170362762 1.3916193562380035 0.07469080394567136
Ni 5.237070112895382 1.9032956337888005 9.719642445475273 -0.7659558001167841 0.6754308573523335 -0.12145865622882952
Ni 1.46278390563332 3.9332293332308677 8.691176761896685 1.8133728344026965 -0.3392997424441512 0.13039658214840769
Ni 5.547980775328401 4.250047418999333 5.052441770339296 0.22231789103975258 -0.8828456060280087 -0.9697625197262267
Ni 1.726695256623951 8.307369795880462 2.1247274094927473 2.2588730213650257 0.9668219490406641 0.8055456465942644
Ni 4.3658552085376146 0.19996906642530515 8.408397880998361 -0.21593615588312487 -0.9080213339626878 0.16211345363571436
Ni 6.8604783451637275 8.755795242089087 1.9187979758436122 -1.5038199842036746 -0.5329832575766628 -1.0188237960292517
Ni 3.3317867611918244 0.9115572184660131 1.2322439234470792 0.35949087268004537 0.25419057137863316 -1.2205188686123303
Ni 8.642904010612646 4.597359326796528 8.740592915401782 -2.6193565969756434 -1.7876823716151276 1.8375386330156223
Ni 9.278778686904047 7.440826957462521 1.2959326346522515 -1.6943772950023788 -0.7156871337692191 -0.6089917518924931
Ni 2.430003727593563 1.8616464415936085 7.77018902941734 0.7510506008701775 0.7534581818704056 -0.10854606193221951
Ni 7.736179547431904 3.554476186454921 -0.2372545676095022 0.6473952913713561 1.4617855328404439 0.09937133741148692
Ni 0.9869855402901646 8.533477352884823 12.743035701032671 -0.9822004883792633 -0.9635900723669277 0.6516959756292389
Ni 7.985015822835381 1.950480713260606 1.8352590218551337 -1.529073873674457 2.6955093301788224 -1.1434384813885599
Ni 8.403263252665287 6.814064203014 10.557405171935853 -0.6086089146317776 -1.7316840018726367 1.2827488210868296
Ni 5.381801984613821 3.5377384870044897 12.998639505747795 -1.261177522673957 2.7157701373103875 -1.3474681156420858
Ni 8.40093186389611 -0.28044934980944 9.909258659621193 -0.23648569789970242 0.8181725913296554 -0.9641616285996814
Ni 7.614083510097872 8.655805600255626 12.098030526095446 -0.23217395789822598 -0.3585197670160277 1.330373364943328
Ni 8.341383922066633 1.517325399070021 12.284152443608042 0.37279350332622246 0.017477587959473125 0.30864782188624906
Ni 5.325439964488838 8.557302102657497 13.572042251426701 0.9310728164655125 0.8862212073684609 -2.198307858187459
P 3.5750128421069216 0.3863724225024663 6.315413583532168 0.4981712921038001 0.7555811417506794 0.08741365082897848
P 0.27475184434723415 3.5627242869610165 1.0597889598586603 -0.06797636803997326 0.6383648057379716 0.38236752016790276
P 3.1897392374984546 4.730582869092611 12.700824560548496 -0.036406820763808266 2.5858425243785983 0.39705031899105814
P 3.173289478493618 2.5131534975604137 9.63978820035027 -1.0786705929835552 0.791282966027663 0.7883346820326165
P 6.380750985998412 5.033031797785706 0.9685164828055707 0.7189750604918714 -1.67467724547029 1.4064101413939327
P 4.565648724175122 7.49253548845062 4.069381508510703 0.42584256063240206 -0.4195209892897485 1.0595546980897108
P 0.1280935581637453 1.6467685619674777 9.932927364249156 0.5409822166217393 0.7353984961552174 0.8975610578613124
P 0.2985775229600546 8.425248898946737 6.746305314284312 0.231292326624221 -1.023879099064972 0.9704279212243675
