# total energy = -340868.19133654813 ev
CRYSTAL
PRIMVEC
9.22395176210849 0.00000000000000 0.00000000000000
0.00000000000000 9.22395176210849 0.00000000000000
0.00000000000000 0.00000000000000 13.50018577517803
PRIMCOORD
 96 1
Ni 5.660481022814723 4.0909887077734375 7.995687715379565 -0.8695784566054572 0.506514778972489 -0.6389307055437705
Ni 0.5326426380070297 4.995019011526987 5.756721892360416 -0.01382045082286007 -0.7287748201911126 -0.06750662749240632
Ni 8.08512592038406 4.829033996721764 7.625499163382679 -0.9391869609322149 -1.0175562421707378 -2.1989835440982453
Ni 7.762398290597721 7.140694707219737 11.371894863342783 0.69010362887316 -1.1462702944104 -0.9114144188046368
Ni 1.3665561488434699 0.16867102960440528 9.031354881777643 1.891421499077007 -1.2402451433966641 -0.069641414447222
Ni 0.9848413465270178 7.222465040992913 9.958061348931981 0.09383909473934808 -0.5277479773196524 0.5519482287149398
Ni 0.6807903745888386 0.8025207128709998 4.123146171353068 2.0004427008734322 0.9907717749880421 -1.6702554622535104
Ni 3.0618262722695313 4.266843351133347 9.634502641077626 0.9397356343468333 0.4476740546851967 0.13875189609163846
Ni 0.1959960647730073 7.241521725660187 7.381753466704021 0.6549908443304268 -0.5880192634058841 -0.12337001431892947
Ni 6.7465644656186035 0.4935183235420208 1.1798984129945418 -0.7899799309455233 -0.6389211924620739 1.3934211853334324
Ni 2.5999276559101894 4.1852943922062575 7.225434231116047 -0.14133662609967917 -1.7229018848046327 -1.193325853137306
Ni 4.193485261511455 1.011655374759237 1.5506450140826031 0.24433707562332116 -0.6605374851802688 0.12351759564038726
Ni 7.367548580746808 3.629578960865869 9.50604804184559 1.200293542704391 -0.996925967514896 1.3445841092260715
Ni 3.288357307479394 0.7659569674590574 4.121661115093905 0.4704823108289639 -1.0349929495899466 -0.8543624109866512
Ni 7.138444062951191 0.7493935169958321 11.017055889736417 1.5396544774037806 -0.8256982102827393 0.3424372596318683
Ni 0.9098312471162061 5.131035406543259 8.554676727256457 0.8443870449414942 0.5637958720821452 0.8068229706447911
Ni 7.502707148234495 7.968959469900204 3.728197765216607 -0.8864019559206993 1.0009474299694632 -1.6673460019161992
Ni 5.0604260545936075 6.582479584908955 12.099811330687464 -0.4440431428008288 0.75315504880769 0.6013368064503966
Ni 0.5494532903817182 7.081707534689622 3.907561199886987 1.0100835879427765 0.5066983557382048 -0.5399157230304379
Ni 4.8912311045201315 3.1800681119354475 2.0495851765633573 0.5362339033034764 0.3357503345299959 -3.6628239025851888
Ni 0.155446649736317 3.08070770185032 4.102395969113233 -0.2707705872245014 0.909817506631162 -0.06597553555986056
Ni 6.689634234366709 2.852313428352563 11.777076321739589 -0.7619819030707006 2.0980217222711866 -0.09241984579431825
Ni 8.55451438570266 4.966747598891365 0.5185945592324614 -0.2687790107157694 1.380578010822177 -1.2270890656306803
Ni 7.9883113210289265 6.805247247735348 5.628200880674553 -0.03633842941971806 -0.480221906714231 0.5003441313854029
P 5.256453480803144 3.5286228070985355 10.17162074055637 -0.8196064955627046 -0.3549703591018725 -0.3798748356530361
P 2.4421519583140046 4.795255884789742 4.313687190960429 -1.3135102706394024 -0.8023240543331731 0.6639555097228824
P 2.75310060149816 5.341027895960081 11.514983262296326 -0.08677318903150216 0.36619862371752415 0.052255100649974524
P 5.802557554242613 1.978888197070463 13.4561215137379 -1.7210123810914038 0.3415126909350699 1.257966214825511
P 5.647050948818813 0.7896772822172187 3.5087931552603435 0.8586525537215728 1.1046958134027234 -0.6349231270462743
P 0.15958912654370938 3.955036880420607 10.291879858507247 0.4833344842012838 0.019601833391327532 -0.7279309841335785
P 8.71077735518392 6.715691898541467 1.7276591081988908 -0.1639224818199951 1.1259657785250932 1.789584730844163
P 0.00605921401642407 3.728690324249149 1.9360890601604195 1.4983993274087355 -2.480544537070031 2.300163652583697
Ni 1.6377772311070309 8.356125627801536 5.620883519616204 -0.33529293527760323 3.1642330064454667 0.2805934868521942
Ni 7.017803995786005 8.501744156766806 12.795502999603496 -0.3583212778519764 -0.5842739374308389 0.9909211560817126
Ni 3.995456237735221 8.700308169754416 8.322297706529143 -0.7687781000569277 0.9031298101983414 -1.2338279270164105
Ni 1.0043315569345441 2.747889068663209 8.11124907461745 1.2358989506128264 3.0857038025903116 -0.29600262231841273
Ni 2.33841017106675 2.6311230613045358 5.16824944056558 -0.06376207284830954 0.7021664735749649 0.5923703412857282
Ni 0.3731891035565482 0.8782687284354329 7.1650081220863715 -0.3582922243862539 -1.0407031126008464 -3.1873186846203363
Ni 4.182748581476263 4.547970957759277 5.505861761565655 0.04506192533564497 2.1610366325408266 -0.017328463976118542
Ni 9.262508039294753 8.88108840343975 1.8307063318665493 0.1750818408709243 -0.16210959698097244 -0.0650620226066557
Ni 3.3044438796283413 7.13017017807871 10.11292227772136 1.7138076358128485 -3.2307870402166166 -1.5466854161086332
Ni 2.4235380233389034 6.447865230584563 5.870177423374905 1.3803466115376615 -3.0852872838781833 0.11315733545198575
Ni 2.46023090407773 7.716463010034786 2.3960672497299615 -0.2134766385990388 2.0378378536924386 2.3968052497688466
Ni 5.4918579577603035 4.664441798656501 0.2644958989184938 0.5560889903561906 -0.6566512627519853 -1.029631428167717
Ni 6.217303328385545 5.447776691533343 10.399921852139732 -0.5202858646146524 0.14169555210099466 -0.1414906351790402
Ni 2.304834986076975 7.302178433487868 12.154973330356244 -1.2680092008838098 -1.0772644566646479 -1.6055515943172218
Ni 8.046901863626468 6.377578716952121 9.212243035700444 0.059788947133174446 -0.0747226856248713 -0.15676890149434936
Ni 2.161448653476408 2.638087145004338 2.2887945336876285 0.3633398141124904 3.9887559654731826 0.8899961010298608
Ni 5.06533319701519 8.09341825316038 2.7536466594518405 -0.3153625149022633 -0.6776062677370975 -0.24318085053169083
Ni 7.4649258411690775 2.1876723487857297 7.687897353332909 -1.7335315966043372 -0.19825827898738757 -0.12196747754444802
Ni 4.853966338762248 2.908431951835474 4.083307000614238 -0.39566449438712503 -2.3489174249486324 2.5891795591716313
Ni 1.9216166795975187 2.403586615335364 10.43745319010811 -2.2072475838792505 -0.37586520027301074 -0.21078855024391438
Ni 1.849531495340624 3.8517655147212855 13.443040105124576 -2.186927898485292 0.3822981003825481 0.4904955207260972
Ni 0.9541624824402063 0.35191221366206593 11.668912571941759 -1.0964564562120664 -1.430410103852956 -1.091936456854526
Ni 1.685538854150179 5.354790032225121 2.3501660977891317 -2.2833144422368417 -0.5401589493894956 -0.7260774758646077
Ni 4.544779470394864 2.613394625713781 6.439102476260309 0.07495897000539348 -2.66681993266393 1.5028776748950634
P 2.719184130287335 1.6178811668150128 7.555028170711832 0.5293914264603463 -0.04445308810705247 -0.40553547364393383
P 5.341110911527363 7.765709689337098 0.49042276527757883 -0.830986455264872 -0.1900448899386598 0.8702145475275594
P 2.703641771301683 1.4747162090605326 12.2277798276533 0.23826284440478318 -2.2959393300897037 1.0264108643478904
P 8.497445795171961 8.456749719299738 9.69063592288361 -0.6230968238353075 1.6383339309545655 -0.226535528665526
P 6.38855521973724 5.826207766966179 6.623960619089592 -1.5504176294575556 0.14870566487024067 0.6251961295664974
P 8.814897324459904 2.892391499446128 6.361706140487724 1.9217672012483997 2.402505385477417 -1.7573873201760122
P 7.140713155123576 5.121709991151868 12.431281422103831 -0.3155424921235533 0.6845595591264791 -1.4745042659586929
P 3.4938946281187264 4.571261436357953 0.9713725319330424 -0.5476408595888375 -1.7209758714265135 -0.8608223076793821
Ni 9.141877196081488 2.6902209212576933 12.030164036923095 0.03501353996070744 0.4666513671186479 -0.5446208418155911
Ni 7.7361653713364795 8.72940051411094 7.586996543277097 -1.7258871926852017 0.6574843001762418 -0.23019857933941001
Ni 8.288421820706768 5.387562733397834 3.641256483996928 -0.7752228272410068 -1.196148924408398 -0.9247607582045558
Ni 3.919118811643083 1.8888624263286469 9.539623226835364 0.8865006862820926 0.26817814390697686 -1.3119149011278244
Ni 5.943084461747896 7.364126494584389 8.669279717889827 -0.18719893584943245 -0.6740278063572198 -0.338615571892933
Ni 6.388905729910211 6.078971721437284 2.019533541207124 0.6996722463982015 0.9720047787931841 -0.6518543555839741
Ni 7.84082032982384 2.6115221634739663 0.6269916750138753 0.004168529555392821 -0.2509635798009033 0.14315491025534055
Ni 4.918082028560032 0.1921976413722409 12.228171845609914 -0.3655249946892673 0.46697609744791835 1.1079320609518337
Ni 1.0991445587229793 1.413644423396438 0.26852123153649876 1.4403307054007775 1.1006301279737818 1.841274445908971
Ni 3.058173587309105 9.1884858251346 10.600643347481492 -0.21201136690742198 1.960040385796986 1.2336240385357207
Ni 2.7368203263588873 8.80266636421363 0.08906279016134001 0.3054892216526094 2.639718191351131 1.2359637424124907
Ni 7.485882659931927 1.5687359509838248 5.374140960958651 -0.8364559630198756 -1.4598170962601633 -0.5586294973898573
Ni 0.3418451925362854 5.6336024269190625 11.901453934222868 1.0156592822583412 -1.5623280077418964 -1.1154281122185628
Ni 6.722868133135434 3.8802306303472327 5.344696261638772 0.47759295373181615 0.6600392053876116 1.0259550077573945
Ni 0.1438041776225547 7.437198641696752 13.249811225927647 -0.04525115852831561 1.200054173000075 0.8329993719298429
Ni 3.772236601264735 5.823588164620824 7.942834470876429 1.7453833537366006 1.9641109563219337 0.4927439504406417
Ni 5.610228932753103 6.092872216981129 4.459597196806381 0.6475678123934784 0.8573055527753751 -0.04410830317312403
Ni 6.090049687693527 0.9195625163920889 9.083856693712617 -0.44907093503272333 0.21958635104120244 -1.7997423881034555
Ni 3.9357311490514855 5.445636734687841 2.739565374450359 1.7923656360234101 1.0615742996229007 2.139663309071373
Ni 3.4784537326041978 3.295210703756153 11.998344169983746 3.069837010761384 2.068671551243844 -0.9756470035314617
Ni 8.98713617866707 1.6290052528308563 9.396480406565495 -3.2796436567080036 -0.6554621275398905 3.1776809044202565
Ni 5.7133250433659395 8.01839062824092 5.887430825441766 -0.21318199017675546 -0.4784501595257889 0.10788400286818839
Ni 3.129649990739262 6.654232706896721 0.6653301087752774 1.9241714398145187 -1.6166037383663254 -1.1312645650301874
Ni 7.848466985965743 1.4064220690428682 3.015901138053709 -0.7817135771716731 0.5768030829750905 -0.017652680084756695
P 6.341005747588259 4.344342995167439 3.265924656409302 -0.4539436897439924 0.0006954834051278345 0.17748633654735882
P 2.0309666296122963 0.716868017734583 2.2103715720663177 -0.29240102101008353 -3.811233119260933 -0.3059360793820408
P 2.186537802699537 7.303211516102938 7.8936394457048715 1.4385831265820512 0.4375930163001109 1.2999417879263484
P 5.662999161688957 0.6677025092091703 6.799436158025579 0.44639981595846345 1.209554913401659 1.2670892601727017
P 8.550907820501834 0.7234834360517992 13.044055297627805 -1.8095269782940446 -0.5815112870840372 0.48486814723699073
P 5.134808002878649 8.641809866676077 10.239540388126072 0.009966881404724771 -0.949413009535597 0.5667631822405852
P 3.6412288121411676 7.710605800565417 4.574997136885662 0.7445572798363499 0.1960674419836559 -0.2099251738023546
P 8.720231905902194 8.933231403645024 5.292086529466331 -1.006961497374027 -1.9925409295278524 1.9144585834021286
