# total energy = -340890.81002073264 ev
CRYSTAL
PRIMVEC
9.07200983738297 0.00000000000000 0.00000000000000

0.00000000000000 9.07200983738297 0.00000000000000

0.00000000000000 0.00000000000000 13.27780340981559

PRIMCOORD
 96 1
Ni 6.387974050899388 1.7076969802826407 11.296582721710239 0.9401868629516389 0.728469887356184 1.603740252140096
Ni 4.618687196100767 0.12754882895048722 6.041068561047573 -1.0885976222892801 1.522941535524474 0.1666077419616421
Ni 2.526545656624779 1.4572550778098001 4.896389580814448 1.369528694986551 0.3234604614190494 -0.26789223723544187
Ni 3.271557245224164 4.374123955976779 4.852253345948093 -0.4091820692575856 -0.1714154477629306 1.1531515949112658
Ni 4.868484985877979 4.598229814007155 2.298268488489461 1.1182468126142806 -0.3849162547316855 0.5802959266196973
Ni 7.462816699710505 6.1346744653403 2.7650497014049438 -0.8300307762198221 -0.32395025657127435 -0.8996940450439151
Ni 5.315943725125531 4.351117339130038 11.814071933389467 -0.3647338662465396 0.09992643858400856 -0.3425917829318616
Ni 5.475202857122586 8.104126144313401 12.267415685392729 -0.026961101969876153 0.23975305579706455 0.5087225852570851
Ni 1.8491296130273915 6.452376248452626 0.3759468076159262 0.1916986234919989 -0.2485043196271333 0.3818828672220004
Ni 2.586248553102855 1.5357188905493349 0.47066221870690084 0.5049644037662335 -1.2358367299163233 -0.7402756217418606
Ni 0.8134245216841468 -0.1390494157709183 4.692429027740647 -0.5620621772204901 -0.5164657195376138 0.6459207637083585
Ni 8.961313134060243 2.5358807547065205 1.3203965524050045 -2.0868405088433866 -0.734837738555741 -0.1746082436686154
Ni 6.594525569971388 0.7687285438132786 4.8929104650570645 -0.31956189769559157 -0.3157188698004175 -0.5133166323856708
Ni 0.8513428010352203 7.259340591959894 2.4518394703434145 -0.9654379242089439 0.6340096140930694 0.8544148614911414
Ni 7.642016109242708 3.608455401068235 3.8517576318303557 0.6441171348407164 0.8502139360359164 -0.13759515677937592
Ni 7.709412070029158 4.11334903434446 12.36362616369835 0.6546424598520726 -0.8784706168887645 0.6529151927483208
Ni 7.790252749335666 8.906291394637734 6.8021920390475135 0.435301906273089 0.07396369597165972 0.33991140788622104
Ni 6.9548657991324845 0.5716128221317733 0.40521855442889687 0.08038451189633898 0.2504426743004267 -0.35210589306988394
Ni 2.0495847415153974 6.58115342752971 9.135287973150003 -0.6633667270989477 -0.34356340281651154 0.3579975759639705
Ni -0.03336957363855139 4.984026102660348 1.3188905987786013 -0.04633025052510731 -0.6100021954348784 0.056934765513830976
Ni 6.5000678039586655 2.180167250542205 7.044937248408062 0.27022114247893464 -1.089055792872621 0.5590205621806887
Ni 3.2986644104994247 4.5116465524987595 0.5249337029191472 0.583018467757183 -0.8618921437047931 -1.0820243399471365
Ni 6.076414018420044 5.583558942145248 4.737573162895517 0.9989309137600667 -0.43325325127417647 0.7574282222617471
Ni 5.110408271150863 2.918011951401478 9.720374544233188 -0.41202005292701294 -0.26305522085811467 -1.0300348342537229
P 0.44271407812340163 5.426667604705369 12.432379297150522 -1.1511417635700885 0.6885100591337948 -0.09730674157297435
P 4.145944765547275 6.193760465152138 12.716749609065445 -0.33617816609603396 0.12663968620913674 -1.190618738618788
P 2.260681337496 8.432777843251444 1.3582259260600615 1.009982800698854 0.9071726128091473 -0.15907723791255182
P 6.177140543202915 7.697999481703763 5.769776458456884 2.200457814650927 -0.033764240934638624 -0.564043469316577
P 4.665671134842594 1.1544223187557576 12.676398216686653 0.24250876416533076 -0.3572236739124235 -0.7356988010044555
P 4.179220897484911 5.842791622111974 8.060423551515372 -0.8706140969588233 1.3377182353441737 0.024959755269131207
P 4.525399719351937 1.2316069781138292 3.6863694500140345 1.441137774683105 -0.949366729678694 0.5076049267128742
P 0.3214448943548205 5.476636234670608 3.635356631721089 -0.07712178198466718 0.2315813186195496 -0.46791634987400066
Ni 1.1183792238298504 0.9653072025147653 2.6378347224150085 0.4679335762651812 0.2597618948188236 -0.5021104792572063
Ni 1.8614131142933563 6.703090311219395 4.798625067230497 0.8207483224766315 -0.40336366280359565 -0.33354561356919327
Ni 5.689157136189436 5.389517724584153 9.655618538297842 0.689268020345742 0.6685580414919002 -1.1444761786244548
Ni 8.79911467088876 2.383044605646173 10.10783373228228 -1.237745774013578 -0.06119636900366235 0.9291360044541158
Ni 2.3034105036427466 5.4616855625241465 6.923538334899375 0.18207395591804126 -0.6151284609178502 0.5422284303240146
Ni 0.7348972048760287 -0.09815370280426908 9.09475060457036 -0.598538417769653 -0.13418613109782696 0.8187552033060028
Ni 1.3693382308611548 1.12449375843344 11.436822385166604 0.7755251889727741 -0.6457351300601137 -0.40947028992196577
Ni 4.161385326222808 7.004398972627439 1.5296161495584821 0.21859776187568805 0.19269955395268748 0.019630629746733935
Ni 5.642690302006074 7.851579535567516 7.893534859278525 -0.0800204436887009 -0.8677293192118605 0.6276055103389385
Ni 5.199087166922507 2.8845906673070805 5.115367031706237 0.21780277677821847 -0.1282625665245404 -1.110889600918261
Ni 0.7102122662167301 7.5634162163562095 7.205691447619763 0.337505883768522 0.25700335823708 -1.2766661052278596
Ni 5.73839093336107 4.5012409572609 7.350830903567819 -1.749860672781664 0.1558751860354864 1.105016944187568
Ni 7.976464822441423 7.080912303260487 9.196884198072839 0.475835090500445 0.26508433547300153 -0.06513709881896525
Ni 4.420236981778034 0.5724955286850808 10.313202261276674 -0.3288484652038401 -0.9678357350171589 0.5983494416872985
Ni 8.323478269209831 7.131044229402084 4.80814523431211 -0.5108769125959266 0.4075260217114014 0.2519033180063533
Ni 7.490522617632408 6.143601322981149 6.913804975587519 -0.5100580162390571 0.3258153348044711 0.04663029826402937
Ni 2.4435367669766412 5.3440306674589335 2.54465157377885 -0.5335049344080877 0.07066111396098798 0.8912718824184909
Ni 2.4857851166041143 5.179645849926227 11.511682795614528 -0.12459051698959188 0.14218406170163897 -0.10611276990037853
Ni 1.2492701811897773 3.4448417043683257 3.704891772417816 -2.4601528607875567 -0.08299469582567642 0.8409559077727581
Ni 3.2841219787938547 2.849082820959232 3.038094516288531 2.455247967286771 -0.6531211381115397 -0.7159784397573928
Ni 1.2625516035334794 3.4532786734801038 8.194011617388128 -0.32231246385753526 0.36591117438409243 -0.029784173240968062
Ni 3.802106522208032 3.1132053142068696 7.037421995491721 -0.16696872484548664 0.07437198715367191 -0.019845831081333563
Ni 4.215626872802723 6.782415964889703 6.0523278324073875 -0.5018525976101292 -0.5009198013832148 -0.42288090690091684
Ni 0.6404185732407718 7.3269814970108795 11.390283882105841 0.3815252267722655 0.08658652694199281 -0.5057822716818386
P 0.2613328502348723 5.671067548653001 8.006422413195095 0.6157452685662428 -0.6840319687577833 1.1660598183325015
P 8.61978825321939 1.4716160693194178 8.193918175687212 -0.8946713950183429 0.455152622450429 -1.7826733484363106
P 1.7358474266846269 3.058174502774563 10.544992111605627 1.2739955003742318 1.2105926106375537 -1.5947691589897373
P 4.222331088043157 5.848116891863171 3.8192671359411925 -1.1428358148075544 2.54193039637668 -0.8792892561353178
P 6.954947447220663 3.8266553807203665 10.306137887247273 1.0883459112897902 -0.44108534572408553 0.3494010925442112
P 6.044788992265573 7.67071087623255 10.07891488665044 0.6591984546538712 0.758977569026738 0.49273932245495133
P 2.5293216916228483 8.339508510522208 6.094936340823826 -0.5033944881759524 0.5723666444702917 -0.32724306838993317
P 6.864853317920591 3.804075148334114 1.5282489976819824 1.5061051806934256 0.3995990535548409 0.5842446268548003
Ni 5.151704059749586 2.8764712185382186 0.6817116402365564 -0.18261877267791773 -0.8047275215683432 -0.6448257308719669
Ni 1.3853866161931283 1.0300632084501105 6.945194129487252 -0.24818267462165644 -0.050735578681654556 0.5976814690859965
Ni 6.756687745103679 0.5541464816684334 9.162587465032972 -0.044942883259277436 0.42061550790550783 -0.7969275659079501
Ni 2.8356834624881606 1.8024541226186843 8.749156020134299 -0.44866238674039505 -0.2817196300368374 2.0485601252059493
Ni 6.7298345961027515 1.7987073825722713 2.640118147281067 -1.2698747933376389 0.20249108612181255 -0.8993168642101544
Ni 4.045962145567808 6.837700792596342 10.441837009799933 -0.27588553985356357 0.9485997696056825 0.5121969169589308
Ni 8.482057000472064 7.230155936440981 0.3455510387890316 -1.432855737179971 -1.1092574646314768 -0.08111701918698934
Ni 7.995361818849847 3.855731172121709 8.243205497716652 -0.6570922069441458 0.306392193082853 -0.05036405427484874
Ni 2.9314203818823468 8.109859654505492 12.47308903391632 0.8388296054583747 1.407086598635667 -0.5089275021790396
Ni 0.26821306246538024 4.92254509226194 10.260900310391486 -0.5956508118092129 -0.1487786842000212 -0.4401733754327774
Ni 8.734866697502083 2.4191058445916758 5.905861141425943 0.06146607772528123 0.02363743691328187 0.09939936243594494
Ni 3.538256189254323 2.8320092985201284 11.693031364267785 -0.14312868500309542 -0.6894845072319222 0.13967029414084978
Ni 1.1908192220637717 3.3562081686456695 12.724570588711968 -0.7128193253031208 0.029070692113711223 -0.5864375207410609
Ni 3.3086254772572015 8.557336537772638 8.202297083936285 -0.3027193722169561 -0.10129966478245135 -0.17916449558073014
Ni 5.324244614090344 7.7482584159825265 3.7202143969659804 0.7952771747887207 0.4663351214298097 -0.3107203881445616
Ni 3.0970843527965153 8.58159509197145 3.329927463462971 -0.41079363671907965 -0.19231800224355264 0.8492106915823827
Ni 3.315429484605409 4.382805869353093 9.32817432386386 -0.3735429798977373 -0.35252986798117997 0.274216893901889
Ni 7.104653752900834 6.4349761336608085 11.494355256901091 0.8185292033381257 -0.9261478683600695 0.31916466225717294
Ni 0.5839489410545643 0.045601364448669884 0.15647765379310818 -0.2131045999716007 0.4095098849106496 0.4007951307454711
Ni 4.544269499730968 0.5041188836395093 1.4881625079892797 0.6124501427547389 -0.7107655280978856 0.6823350406713345
Ni 6.03754952844708 5.611201355998568 0.36074756240100925 0.9267083688492299 0.878793547445822 1.064931389020592
Ni 7.820725630245841 8.818846292198565 11.145587283437827 0.7506353677096298 0.19303174048112562 0.7771701807753648
Ni 0.2665029886185306 5.011713876562656 5.776375438383665 -0.4621005145231719 -1.6022996630388275 -0.04231495871812713
Ni 7.730649644965364 8.648682604424781 2.7142618689549796 0.779180012116542 -0.42109990374109413 0.24568484790046724
P 8.440552555647995 1.3437914512710833 3.95520575955251 0.4328513878500675 0.8334536858584419 -0.7122554823798508
P 1.9053579297529823 3.1655235947096902 1.5396679364142347 -1.063144215213182 1.1899085999256411 0.6317347020159636
P 4.831253457668584 1.3606018854260558 8.15158908517254 0.034538914317134066 -0.9416315658179654 -0.3683123276264173
P 8.531789758182567 1.675064961040635 12.418025563248742 -0.9128215835648085 0.03698300498225244 0.074046228383137
P 6.495168918667955 7.6485388842871895 1.2448430404085435 -0.880187085359239 0.030651149226953663 0.23705699702214011
P 1.8349500617137258 3.1932385846413913 6.083929271336384 -0.4429481099644372 -0.012677852577984617 -0.26482876781876974
P 7.127351921414456 4.034440693124842 5.974599759662438 1.2984104388834863 -0.34304635397077693 -1.5334378070701074
P 2.36536325855063 8.453289657403841 10.3329193673708 0.7498285555376183 0.02338264058999844 0.03128466904589451
