# total energy = -340859.033218231 ev
CRYSTAL
PRIMVEC
9.37654985924902 0.00000000000000 0.00000000000000

0.00000000000000 9.37654985924902 0.00000000000000

0.00000000000000 0.00000000000000 13.72352851518883

PRIMCOORD
 96 1
Ni 3.8434852255589016 9.36765134782741 12.427643332858208 0.7639770791238585 -1.615181146987186 -0.7537253194888632
Ni -0.013570680371383053 4.999557543467629 10.729370153613683 0.4705972391402734 1.8766245432734907 -2.140882783300771
Ni 3.698345612853424 6.907919819834476 7.91829743329587 0.29296357838177284 -0.5935139679718682 -1.406840544063132
Ni 0.6991099192165394 4.699001619592613 3.0277807238687657 0.6068510514004064 1.5692057086983362 -0.3165380232676032
Ni 0.1333007810624819 7.543481111158379 10.287349286858067 -0.2459800105433828 0.639469608766376 1.3198130729289785
Ni 8.565618793245346 6.117551693071109 6.458086411874244 0.660029949416231 0.9614164617543765 -0.5920564095897352
Ni 2.8701337315271456 1.1096302672768892 0.7768424538305121 -1.2253687405054638 0.9437666098830972 -0.39174021963205435
Ni 8.432687448240786 6.594611788376316 2.5707189337498257 1.4746683023403828 2.9328548049756584 2.2198513886861897
Ni 0.2380565318930827 3.603351787908712 8.981939474946085 0.7840501957246497 -0.9637376536883854 -0.35364187009843606
Ni 6.211420332052602 0.34171147578966826 0.7660172272093819 0.707457289660259 -0.9467784001262275 1.047418319837493
Ni 0.7732587365376614 0.7163965262314511 8.72576276077034 -1.2440727446728703 -0.47844116066472436 -0.4662525890183325
Ni 1.9611991338896422 5.936678049483753 9.611863584594266 2.4236197988585295 -1.5494089856873832 1.9651972474075765
Ni 0.9197420088142161 1.7053224693040883 11.024796167151395 -0.8566784607143375 0.058986248726221 -2.2205604989380725
Ni 9.233979255397065 2.345431387229333 6.844431201859878 -1.1782748723414547 -1.065503716584294 0.2364597297577734
Ni 6.27700929715854 2.6081060503426645 11.336773666208046 0.7710147026969302 0.6883023139983631 -0.6396853243216081
Ni 1.4810354006358906 7.603050331361098 6.223304171134127 -0.08069253005506104 2.463964264113847 1.2741723922717283
Ni 2.8340715214059964 7.162465014363554 4.179349484959712 -1.131504706065451 1.6810661797157693 1.5658712450084644
Ni 6.886831959573824 6.2539523614622565 4.620574282646352 0.37879497232529596 -1.1571077513455363 0.20236767317007084
Ni 9.00961717433132 4.217084471546179 12.572261609400728 -1.5091133713921299 -0.5912354563503366 2.7722493033440383
Ni 4.863700714958703 2.120037885697304 1.9988872377276419 -0.4722581717824641 0.1446132399684219 -0.7466810110475721
Ni 5.775495160252721 0.8630457634375804 3.7589021837388676 0.037619353014670696 0.4838998697864505 1.1374328986244284
Ni 8.79150925191113 1.7786845941059268 13.015627073382392 0.42726078113616733 -0.9555461190165286 -0.6739774127352586
Ni 5.041311319252725 5.252874409986862 1.2714207569280604 0.028505306528544456 2.682478208026477 -1.2549120013802195
Ni 3.724581198895799 7.62066886823516 0.5258594105299889 0.22787121675781402 -0.4929069583810672 -0.5114883209276804
P 2.3581084824149268 3.6542195699958757 10.17489820169402 -1.3826706316851476 0.1567907558712203 1.00670695816106
P 3.33723593105787 6.691002719225358 12.029194354873253 0.6635888704120829 1.5382560543943573 0.4275587719925604
P 0.6481680623867964 6.766821500046889 4.508878947387602 -1.346936411508332 -1.2535138354811122 -0.9593798909403219
P 5.632127715439311 1.1034042382804141 9.723298251771537 0.4395683948589268 -1.0194974250575086 -0.5268614609496409
P 6.118151792251492 2.307353218924084 6.212998405366016 1.1194696292777881 -0.8353730143683419 0.09106641709021736
P 3.6300093186872937 8.864327536830745 5.61697146051476 -3.2932082827663156 0.5479226524953145 0.21125469124705554
P 8.702835221459827 8.441604546999292 12.493886781132751 -1.2633189944969918 -0.06579273012509314 -0.5337332483688098
P 6.693393739397197 7.243478403715278 7.220593058878385 0.18779594600348304 -0.5937571943309258 0.2156592480726544
Ni 5.717707484491763 7.517217395466923 12.490551542406779 -1.4074897476113566 0.32427010180453825 1.0818366494163627
Ni 7.828003135057534 1.9095343450785314 4.900164241406734 0.25557768153414695 -0.6926580198638974 -0.3468482442153704
Ni 4.783006128296558 8.350942688012971 2.9746569439253476 -2.014618735263498 -0.45635204207516894 -0.38918917107542655
Ni 7.157514196125392 2.148083145830522 2.5678647120231286 1.604421337367521 -0.04034137993152407 -1.4927680972648871
Ni 1.331226266183056 9.232750927387219 12.472257893954787 0.6836840985000613 1.0066426805820277 -0.45385190136113446
Ni 0.15238768561854305 -0.019331632503061174 4.019058305604529 -0.3133593684293055 -0.32136398390133686 0.6766531597952088
Ni 2.310025535586728 4.857277778418665 12.1096685926176 -0.8582455480911412 -1.6117245558971534 -0.32131024784526596
Ni 8.212301024245079 6.442580411646126 0.1986440805664508 -0.6532193542523008 0.09785952875265082 -1.6724074755995069
Ni 3.7286599980124655 3.309228177123426 6.3458688027975665 -1.3022035873773314 1.3181691095676524 -1.761579503880489
Ni 6.382739271502294 8.304847569719792 10.065219762274339 -1.0396713289022224 -0.06698546488161367 0.10591119541253373
Ni 4.089038308931927 2.4796004367934317 10.568942076632977 0.7288293275781318 0.3039280478130766 -0.7971769629145949
Ni 4.0350762654459125 8.070068141944583 9.814668977914685 0.9711565718602757 -1.2901849656499005 0.8867467408546277
Ni 6.810750635360874 0.3731613611165914 12.132696461009836 -0.33248194819136934 -0.6497769042296552 0.6469103813151375
Ni 4.596309647349548 5.205963531870348 10.97712110023486 0.04523418924745113 -0.02040761712207453 -0.26721500866275916
Ni 8.831078291617644 3.3665657784990963 1.1953985049781797 0.2896468553037141 0.6648924197148549 0.460793108565658
Ni 0.9398209523278481 6.927301148050911 12.472628267667679 0.4974855788906851 -1.670348021967317 0.6324921490072783
Ni 7.196539395949683 6.379148052969689 11.285186702759392 1.2633696452292693 -1.2772314908130262 -0.5721344738548275
Ni 2.9975329122125474 1.3460037084999912 8.677921728924233 0.6192352839973723 -0.054599432512434994 0.04615515839982373
Ni 2.501869742315462 2.89182169096818 2.300804636618153 -2.059760364797143 -0.17877394501053082 -0.09463793649155959
Ni 3.2916752760972194 0.8315743120463623 3.5234476443857274 -0.30914841567175144 -0.6428953466184734 -2.6017375983423
Ni 7.077382202444857 4.096155110149283 5.830920883145888 1.5242281155463815 1.2200750962066924 -0.8470044279596831
Ni 9.488693227820626 4.162316044786524 5.463913351593132 0.5660373598181542 2.087631637286114 0.4215493325736869
Ni 2.1772442153772653 1.179738729335088 5.330067792993459 -3.181703652426404 0.4748287607231177 2.461008781029949
Ni 2.887339700214693 4.369978490848171 4.419950812439606 -0.5335656124426941 0.3779225970226717 -0.020081344130907352
P 2.6434650192368023 -0.08408327172137109 10.515804231865017 -2.694867068609133 2.568146649760732 0.3028782663923235
P 4.123609647651811 4.069169400131429 2.628934180176806 -0.5317856377241358 -0.28809725142840703 0.527421447218169
P 9.50725879621373 0.24954749354245043 6.543241423225581 -0.5085050699296404 -0.9090050380321958 -0.5132667529843419
P 0.6860052533649226 6.112732146528656 1.298823723407275 1.4727142639378055 -0.36742246882229623 -0.8074220376813708
P 4.7021896464883985 1.5682279362356217 13.54468294970289 0.5110273221308618 1.449943288789877 -0.858636869992289
P 8.208850453957876 8.90925058641224 2.049444656019952 -0.7556479904328729 1.071774122974038 0.904172906750875
P 8.135703989798989 3.8562467096917366 3.5326694810092714 -0.47736052600603596 -0.4779310537975253 1.1963463851311846
P 1.6579333871532074 3.19477801156473 7.05995963545939 1.8136672257146635 1.263415153755224 -0.2072309147996431
Ni 0.6616571667758462 2.6182233474619365 4.024836135525655 0.6966378304472519 -2.5044843357150803 -1.2725852502902664
Ni 4.954718882833377 9.132524987713541 7.650894176172113 -0.15744510162576755 0.4749591156533949 0.5280210284753809
Ni 2.0687669119733196 5.513289324624063 6.852295314087805 -0.3876377674279066 -1.6119551838507207 -0.40183385642263053
Ni 7.423930102566426 1.3837068148175005 8.204940432735691 -0.31991285327710706 -3.1820296683072553 0.3073951804260706
Ni 3.35433875769879 4.075292287081275 8.35920717891281 -1.1602627520347502 1.2678310234347325 2.008228258356122
Ni 7.226131786782328 4.9928251807877055 1.9344412740293395 -1.346235014565933 -1.8037895615896355 0.9458134651097968
Ni 0.210980806998171 1.2456371205809111 1.846748030675976 0.5598733970992874 -0.17944808825941996 -0.0061511072030603735
Ni 5.535052296462646 4.828501147409355 7.363469172487855 -0.8313656929811617 2.666205181898066 -0.04991693943510113
Ni 6.926082196590758 8.32030950016435 3.7040765600260825 1.644697411278748 0.13939595743354058 0.25700001580297027
Ni 4.249686734830432 3.885529674384495 13.272957103170437 0.9235626241313964 -1.3705558506994848 -0.5289383980833278
Ni 4.392969790696599 1.4348840230445499 5.4941049039511896 1.5310201987675505 -0.862519749986463 0.09770577678360592
Ni 5.25790024062257 7.733234347305466 5.663178159749292 1.9647015387180808 -1.1632560303351192 -1.0799890546846627
Ni 8.084461145724084 0.3873086992941238 10.206462480927204 1.789192894722383 1.4555441799164224 1.1206716200056892
Ni 5.659629135690307 3.4625628942610116 3.9061280787511463 0.4724911137288766 0.19065141317440715 1.28589276603245
Ni 8.144977397445846 8.195910815380865 8.497801022277265 0.5388528289835623 0.28500884231107043 -1.7412767877673945
Ni 2.9692532383369916 5.963063660321225 2.2735357547995556 -3.1342940527941887 -0.2677192019926873 -2.693974381591535
Ni 7.2013308128430555 3.4316109037228126 8.183943525007068 2.2638452777686364 2.7651774840989214 0.3175520663544144
Ni 0.5131326196310195 8.362569609632894 0.9289976010166566 0.44944348788079375 -0.8458255771602335 -0.505409204613136
Ni 6.673496700947618 2.536122278345769 13.683592782792015 -0.21510440401044892 0.6333699236265414 0.7069898631055372
Ni 4.662901903272689 6.020298119650267 3.578354844080846 3.509886716132104 -0.7477796434283895 1.8511271703333345
Ni 2.6458935456074153 2.0126670151571897 12.269548141441241 0.8445613657358294 1.4085241024131419 1.974129259789884
Ni 5.0871438941544875 2.641111505263737 8.008350754207084 0.15820846215435336 -2.7114000332671497 2.0012471990525986
Ni 8.115806951349409 5.737088812708199 8.676398977254012 -0.7198476929048119 -0.13844130682975514 1.1180413814716939
Ni 7.073172131632481 -0.08728348813175804 6.386161712140417 1.130964003070633 0.3291955641306137 -0.98448131399364
P 8.40870223412485 2.638411058952013 10.654068958335232 -0.3611070681272297 0.6171040965869824 0.11367232741519134
P 6.6178093723180025 4.668293419346444 13.613822814177752 0.7848608645514031 0.5032085974173914 -1.6599160280007155
P 4.110369959484609 5.936227975098467 5.798286739592678 -1.0501388040924495 -2.050165522019856 0.5485204339803135
P 5.834051713088543 7.6692018894486464 1.3314400515160678 0.22588144002129487 -1.4539495817357928 -1.4610311711729225
P 0.829252678342255 6.925913418696276 8.372079306332028 -1.9698164913471428 0.930095797264224 -3.2882563380776784
P 2.4808287648032783 8.818288677835726 1.8414230881050453 -0.24418280943364398 -1.3602254153077542 1.9863252876354436
P 1.1358752298689578 3.0504260290335043 13.574189076278355 1.2202576445311435 -0.6860466851949669 0.3775811545228529
P 6.212564271115208 4.586239232978743 9.655229189271672 0.08010349032081043 0.8675981929506349 0.5973461972337648
