# total energy = -340876.5844559244 ev
CRYSTAL
PRIMVEC
9.16945515377045 0.00000000000000 0.00000000000000

0.00000000000000 9.16945515377045 0.00000000000000

0.00000000000000 0.00000000000000 13.42042448027611

PRIMCOORD
 96 1
Ni 2.193636260226037 0.9079126832111583 11.44648117069997 -1.0110467231869942 1.0633609592096782 2.1860925470681902
Ni 7.990162340321385 4.2004081942631855 6.305304301587174 1.3052297757981652 -1.0070031492452398 -1.1965497593912424
Ni 1.1359396104449726 6.535648350133513 8.767389198117073 -0.04113996457341947 0.37459276131849034 1.3201388316995135
Ni 2.114458015138395 8.971128989535758 5.481384744354859 -0.6348621919013517 0.0037687230138128643 0.20694063725273396
Ni 4.709514682248831 1.3054553275191167 11.448266463614685 0.32333319181256576 -0.9068059734983478 -0.12276400530381439
Ni 3.6137464547487292 0.3158776429878015 1.9407142623016669 -0.1306143545861686 1.4092746074259213 0.6671578187102639
Ni 3.699655079905199 3.4682363712170803 7.776008798706286 0.580517041491568 -0.046268029828604194 -1.585237051129586
Ni 2.666825992449286 4.757507610423553 9.391424719814818 -1.704527496062503 -0.6259790304791091 1.5921438055517483
Ni 1.7316240938119172 5.106277005924832 11.884537218629323 0.524339980079368 -0.2819836823315015 -1.27646350229875
Ni 6.606904185984823 4.060152208523687 11.791801934125111 1.1677714017069696 -0.6230891105258236 -1.312593672362404
Ni 4.898258746740321 5.597218803288749 6.661321234426876 1.2221512620094306 1.8859237091872294 -0.3884054988318666
Ni 9.105764099277721 6.922672712456523 0.49071072709452523 -0.4982813353191032 -1.2396321924030136 0.17882896661818232
Ni 7.852666360577414 7.066568971884474 9.007064084208423 0.26828818712227986 0.031192880663036597 1.1381612921500204
Ni 8.961913687125442 1.2967810229617445 10.650650405381606 0.30044728835332773 -0.18735320203910957 0.7159064488688768
Ni 6.910486506582583 0.8236270516135202 12.333866194701203 0.9004221814591912 -0.4964702502522934 -0.9633946685266697
Ni 2.1884280097095594 1.787080958466238 3.575926120100381 -0.7650793110491018 -0.6872322208626358 0.5797925046207175
Ni 1.8596571958569366 0.08016762929666985 9.48814596646606 -0.3036773652548512 -1.6816824731435296 -1.7551072658925835
Ni 6.663809824550418 6.528652055865781 4.304305456502798 -0.5642905523303766 -1.0840706809532041 1.069088605722075
Ni 7.956464592701573 2.928558919812535 3.7226915020399627 -1.0723011991221016 -0.06079193447639207 0.23508624644901446
Ni 4.468862332240127 6.70969377804417 0.5941916960710247 0.7281806382505395 -1.1579618718157154 1.6777697683526847
Ni 8.18586602126007 0.07222046253147481 0.9872000448149024 0.7073238494061883 -1.5495797069372925 -0.15276055166590466
Ni 7.518586432201833 2.5049851093228384 0.5238152109671267 -0.6221048922356834 0.9125508464019252 -0.013690353002899001
Ni 4.831119996244466 2.1002453596796986 0.40350370709099 0.3539969394450097 -0.5701184718660632 0.6376541528241921
Ni 3.12874646431206 4.851347814271488 5.532059738156463 -1.7349179354289024 0.7502005941650565 -1.1626315093772428
P 4.152809552659254 5.4465371470611625 12.173411733191113 0.5082165921549441 0.1453766004970077 -0.6937142290425536
P 0.13405468323193953 1.324967928045637 13.129684122782379 0.4746588108041568 1.344303344760859 -0.5694214457990386
P 1.530501264888659 2.914667195283551 10.509306005317626 0.2666131134127021 0.6735462387351109 0.6633759830703285
P 1.6870788807678219 6.936958723556296 1.8613590467299264 -1.2499135197243636 1.2322940068703874 -1.2437181895469291
P 8.623909231952233 5.464747684958563 4.504793759130739 -0.6512707151663621 -0.46361592272643376 -0.1308256992660263
P 2.0869404802793317 3.6641234412584573 2.0529896556978025 -1.1023969900662174 -0.05216999713533595 1.7150132260851754
P 8.051799417736456 4.825655000984219 13.336399402392257 -0.6352319165359447 0.5378305583666351 -1.0505332113173906
P 8.282787162033246 4.92203514390445 8.35128849356211 0.48354814287398656 -0.558454919485206 1.441539380996898
Ni 0.9235291822509687 8.440034148137238 7.365760040418253 -0.08426404945640327 0.046184726086178525 -0.3936148109469479
Ni 6.686632598380544 8.825866481292744 4.667181141783211 0.8882292389374251 -0.012850373600106902 -0.29073546038220255
Ni 6.195800834478241 5.345095464906607 2.248511781424821 -1.2251735937755222 1.148784061971189 0.6493657848341655
Ni 8.469834877324828 1.7513934390822075 5.856068853957667 0.3212806801589112 -0.40259181763457763 -0.3285677007386277
Ni 0.19024785513357192 8.539311838880018 12.112764956930587 -0.43708830874955046 -0.8267155958036602 -0.387604600197126
Ni 1.1263666992844055 4.025445820839063 4.079822523678523 -0.30168681718738366 -0.9465043205292343 -0.35054857588509303
Ni 1.2071312601103403 2.724850304541307 8.190337047583721 -0.6534407262344876 -0.7228975354747292 0.9350875940518605
Ni 3.6079605285587695 6.8697557868744985 10.080832038003976 -1.5526285210659454 0.8019643570009092 -0.6231402754787332
Ni 7.3728196039264144 9.080731486760145 7.204606866426903 -0.08616100936879999 0.11118118556222142 -0.9429474564159114
Ni 6.5154113626513555 6.305550042984783 12.531294650150715 0.867302773197403 0.3582246043731121 3.164899950605504
Ni 8.36050746375448 4.611071411923304 2.0094402454813296 1.0597796696163233 -0.11372992012600414 0.7325042053265578
Ni 8.717116743395879 3.5478089028755115 10.053642769638735 -0.23631009155378654 1.310392293835711 0.0005759271081280403
Ni 1.208735914758903 8.735666551133262 3.071304412621089 -0.021699339350304565 0.36216610551936335 1.3479118880477239
Ni 3.2560093321257693 7.763786831957321 7.7330636555831855 -0.11295139008876677 0.011107679877387321 -0.5107563278576622
Ni 8.672617377627457 5.5797601607123894 11.066468690718423 -0.48886878375595166 1.9953341760022734 0.8248181216706312
Ni 4.028645960681053 2.997870831175301 3.0354986072658217 0.2458388569798282 1.0102198564103249 -0.23925169068061375
Ni 3.0452218974905967 5.676149473087756 2.7748476756084615 1.5912716873594401 -1.5805954385925167 -0.8692899788307609
Ni 4.99771065713066 3.7467860792972636 9.882907515031683 0.15826734041674675 -0.3366188531778783 2.086835366637064
Ni 5.790226664417848 1.699604356481744 4.470235916619297 -0.693936629466005 1.0246450306967194 0.20641381821498644
Ni 3.285085674357722 2.058863608657055 9.631516816114798 -1.2599387651708494 -0.3123638372852556 -0.33460182274784955
Ni 3.0020429332615635 4.741066777367138 0.4724616774855588 -0.007631034182696536 -0.1616902500553667 0.20867536055565353
Ni 0.2652668353721398 2.1129267161309095 2.013359270605876 0.562721922291676 -0.7692205869109849 0.37672651983204153
Ni 6.975222859833162 0.10989041811561497 9.588624855831478 -0.07890509913733508 0.23711407551232064 3.1297537417216743
Ni 1.381158349110729 6.3870848380420275 4.076507765647349 -0.5429583665115036 1.3978985043784955 1.1169874862858828
P 4.517121174613752 5.372713863772152 8.655704317631608 0.6407561887882837 1.6048414556240749 0.6626244496162846
P 8.598363129947119 0.6699442327203641 3.6962266206303562 -0.8087358713967878 0.4390742288313277 0.37942952058550133
P 3.624823156551378 0.0726495930317761 4.150306291407496 1.7517900285938928 0.9010611005947707 -1.123604220271452
P 1.873154633815131 6.712481292405103 6.144326264188897 -0.08602654067346475 0.3141240145094719 1.1304430975701563
P 5.963987839219333 3.0969284549948486 2.2698096748660563 1.767982064972723 -0.6056593450851505 -0.027231582022443423
P 5.835441247686774 2.111175350200193 6.756110476881247 0.36056610802209516 0.3513031946629305 -1.3698302853873698
P 4.2373886068212 9.124442279386988 9.753186316296375 -0.9607433469467518 -0.9362587315418264 -0.23211919340089054
P 1.3290483355805531 2.8642351920430147 5.966962410465011 0.6901049144247405 -0.5310004228186791 0.15244559152864712
Ni 5.632521205557125 7.8530606471482045 8.580402001229379 -2.095069067400766 -1.3482831553442134 -1.159728219687519
Ni 5.821191914407539 6.08642757363222 10.429065937325392 -0.1905619387843944 -0.7719678106388189 -1.5213515653295349
Ni 2.383425642602877 2.110689369078057 0.6577497743368024 0.3923405722202146 0.4068637055370541 -0.7459508177497669
Ni 3.8516571376721753 7.256706793556431 5.179948076258607 0.4601343919357366 -0.3172350493346278 -0.21647480199541427
Ni 0.6517859607172306 3.681985539860742 0.15893233195773931 0.2387528966673243 -0.2535681073032859 -0.3682822457194303
Ni 2.3113720641548525 7.2142430468278995 13.16099414428513 -0.12598251224111207 -0.2867849603748867 -0.9275498909139188
Ni 1.6012527807075638 9.137389550037105 0.8755756827333264 -1.8202906445684524 -0.5170514168377546 -1.2203008390642531
Ni 6.574315942436302 0.8375701250912583 2.270159031106686 -0.7889741153888283 0.848465842996558 1.4120891940565812
Ni 5.896372277056476 4.028609282860515 5.14337753834511 0.05090038639429298 -0.5344004496391636 0.08180324662073654
Ni 9.003002015583776 8.080362270480869 5.288801428998494 -0.07952730610236626 0.42939376831877013 -1.312015431261431
Ni 4.763715331549705 0.10970702901292212 6.236068496702026 0.03126461444123648 0.4847835579429845 0.15439165951142442
Ni 3.6364683645723748 2.712040575718211 5.42892445763854 0.024041871440552143 -2.0529839653052577 0.07287663355506803
Ni 3.404398624569696 3.166185349626807 11.954658792880476 -0.4053830072264695 1.2830833216081128 0.0063434257195245595
Ni 4.6030022914048185 7.723257840262198 12.023452630028137 -0.12666514013043348 1.5718868550749252 -1.2810565209860711
Ni 7.846880434387455 2.103335466060073 8.546729928083943 -0.546688265867581 0.04349200974536381 -1.5869488916143701
Ni 6.242766783677883 4.080490060012324 7.862288786795709 0.23582235328409062 -0.9333078764436185 0.3011509992885717
Ni 5.372319577201362 1.6672178409461853 8.814977753320356 0.33437787966250154 -0.5131975903093032 -0.8750142829090479
Ni 2.7812516230744957 1.2876940929233134 7.24748507252752 -0.09314026890011057 -0.6465666248224736 0.13248817457011378
Ni 5.4103911549204 8.956888825711657 0.44985530279661007 0.3428357806218676 -0.1683504356843617 -0.13516572140227687
Ni 8.515636305722369 7.112700500666864 2.976354704701861 -0.43740866820344676 0.2839660028688529 -1.3335363360523422
Ni 4.681025185145495 7.689541753732117 2.7962666058574737 1.5176406921368508 -0.9019905543875756 1.1397648891917145
Ni 8.442234817369553 6.4323085907660875 6.905090282235846 0.31986194543451363 1.091936456854526 -1.838029199498796
Ni 1.4460414136434627 4.797880721381385 7.299811485198874 -0.8121281849077885 0.30419647098311486 -1.3817663747033233
Ni 5.5338670377635015 4.2550214690451185 0.29645673701262776 -0.7117430615198065 0.8726617235164713 0.3280413959215125
P 6.582999416448809 2.276363084450786 10.656715999953175 1.3704535207936657 -0.44291931360903075 -0.7360921797881322
P 7.284930376460862 7.641988959403858 11.116325769122016 0.7430544700385784 1.0510240349108801 -0.45817392577525606
P 6.685660636136271 7.617075549803034 1.5758130443820104 0.12672710371662047 -0.7689663048083337 0.44709555647390736
P 1.3968931341217763 7.074830650960787 10.914294247194913 -0.05412069310380356 -0.06583592465820275 -0.3219468529880004
P 8.86205832070918 0.11121907216462475 8.75359283592149 1.052715049460058 0.7355687031844945 0.779564134928838
P 6.251734510799563 7.422545559121583 6.356678007870039 -0.21347792415061945 -0.29696884288642406 0.1875426923420964
P 4.706653812246823 5.432544558525697 4.073836703366628 0.5682670204796213 0.37424463395045227 -0.004476804824431
P 3.3808606332390676 0.3846265498053005 13.07441889974037 2.031846154885378 -1.2120648243077061 0.8921748538487345
