# total energy = -381169.06783903186 ev
CRYSTAL
PRIMVEC
9.28416234719898 0.00000000000000 0.00000000000000

0.00000000000000 9.28416234719898 0.00000000000000

0.00000000000000 0.00000000000000 13.58831005263544

PRIMCOORD
 96 1
Ni 0.6102034195445608 1.6686888988065711 3.555489692518268 -0.16105878711895488 -1.6320732947568342 -0.23299079737256648
Ni 6.784290141241918 6.265194062514497 9.169228017441817 -0.6513007970733493 0.06442875989803097 1.420894708163353
Ni 9.137193944075795 -0.0123405084390558 12.578276762238964 -0.5817856237913465 0.2582349166513359 0.2552704347063733
Ni 2.2477142447429186 0.5027940182638804 12.848901735561927 -2.068128020035548 0.2905876219504286 -0.5518790660399012
Ni 2.403149688834607 7.902548913787354 9.77464173769078 1.5901108342821195 -0.7754858510944064 -1.529570096584585
Ni 8.078576629710087 6.318039513940246 11.81801157170272 -0.03291654822236266 0.5716225672154155 -2.031642009294372
Ni 7.543873874270318 1.2479770872538976 11.024141427550761 0.032229292347350946 0.6042822622319658 -0.028576268975795946
Ni 6.815809872020277 7.67186533480359 2.0696087333126156 -2.7886025478910814 1.9986053905543772 2.7988100845517025
Ni 1.0809085878852478 8.29041335936246 0.8439331321567137 -0.32148174042612376 -2.358492470231577 -1.0452789048969868
Ni 1.3528695521534253 2.1321914140875085 10.56788705772451 -0.6572076494760876 1.4950062425667867 0.8415146084897056
Ni 1.9624119393470527 5.72730683942908 1.4856367857389456 -0.915731558122752 0.22152367727323138 -1.2199293146574475
Ni 3.8340897611987 2.777542815010776 12.650268013019982 -0.05763564823559751 0.01458586823397488 -0.35716068188497196
Ni 0.08462235349794003 0.9013222525789073 8.257968926025775 -1.2011404640857184 0.7102857602479896 0.4510491418050167
Ni 7.1819586621342415 3.907304664561922 9.509520415739074 -1.5385309053222989 0.08518476149845974 -2.2739975357112905
Ni 0.3636067864947857 5.7653254837699865 5.952210099007068 -0.5215269361106051 0.39782216416007615 0.032090452776641507
Ni 4.868104045649047 4.343261070499887 5.5562052999867575 1.100032089378467 -0.1629716878709516 -0.554441941671071
Ni 2.3704415852905254 1.122176689007429 8.678771722368325 -0.04094610339505851 0.22283314011327432 -0.6867046304939399
Ni 5.9481584906089315 7.117916511056446 5.4448761254116365 -0.1367945152549515 -0.5774242614988572 0.6739822978312651
Ni 0.6229041534782265 7.897071258070349 7.823686454538278 -0.07249739583877837 -0.06626324200360846 -0.2281159857787684
Ni 0.603596809700119 3.643820140411754 1.8620603581952995 -0.12242616234842141 0.2214416590823864 0.8372152097834032
Ni 8.501080284573577 2.346061375268737 13.193189108867703 -0.05694376437489548 -0.7322324397224099 0.8908417368596078
Ni 7.400517125242738 1.5749745652346259 2.770044925592042 -0.0011176585442109785 0.38715619980579774 -0.24165695768799672
Ni 7.508547636976753 5.436127659340224 4.523643058509528 0.0977847096506574 0.5053341284008265 0.6905821111714753
Ni 6.477662115198662 3.6555181848243405 0.45055018055077867 -0.6735171852693885 -0.9834186770570805 0.05777551624757147
P 8.380664700421793 7.445805268611466 4.143496536998057 -0.16469792653343895 -0.8655955606983092 1.20587026546122
Ni 2.339878123222084 5.389632574881308 10.148646785885644 0.35210974972462583 0.7201122594201081 1.6631964985242
P 4.718434066303562 8.848010858866864 4.983594381736644 -0.500202463601216 0.6399172378267559 -0.19044855313498169
Ni 6.8993859004346465 5.299316244686352 7.0534742125864405 -2.2392765872903375 -0.6641231456489981 -1.273288189894562
P 2.1247083793283457 0.11450621489098309 6.868551340829025 -0.18363950063294823 0.045350660220657375 -0.3084480471706172
P 5.640425649260042 3.1117819395326296 7.710102156956952 0.20449166149160913 2.450754450291792 -1.2970161296391212
P 5.8931219768963805 6.54477732397532 11.19063895094213 0.3637501621770316 0.6799115188315065 0.30578669828837013
Ni 4.318648756422294 0.31928698124687666 13.515979004524793 0.47021131655576437 -0.14554577908502034 -0.6965876939356068
Ni 3.4559829701296465 3.3376191858311794 8.269967777294685 0.3366926438386072 1.8979004219331315 1.0719417589001539
Ni 5.135367223827725 2.4756125750570193 3.900823390907615 0.6510071770923305 -0.1564500847023499 0.21302309600138797
Ni 7.769562573973153 8.775325152750879 6.926205988291059 -0.6737344434865171 -0.3303841851220761 0.21062888473759855
Ni 0.4246204438524346 1.1553025798519603 1.3514945677268349 0.08163561069462069 1.1932949998993707 -1.462658165253384
Ni 3.237145982154184 0.7700209882098532 10.702451705118188 0.37206305291810116 -1.0272410735586697 1.0815407154424985
Ni 4.663378984266547 1.378363861643079 8.321888526162105 -2.166071880971889 -2.2874258933020544 1.4328935323964418
Ni 0.6051370522144429 8.797180070645506 5.104883605554481 -2.2770653760033364 -0.4709499944940018 0.25526040740404426
Ni 0.9344137920231793 5.672158915769741 3.615727193913304 1.3431859433269642 -0.2109721270096302 1.0952560081460623
Ni 3.855953963255559 6.774105415273182 2.2035077062742423 0.12141109082034574 1.3228505742037218 -0.7304804900283097
Ni 5.120577553391812 5.188119833631153 12.763431738052185 1.6047147002382234 -0.16079550615523922 0.08046087366022918
Ni 6.7971301376090665 8.630937861715523 12.19230164367811 -0.00575438598527396 -0.7497779048053409 -1.093168015268782
Ni 5.2380129214670585 4.5257969841474015 10.415480107352971 -1.2618097569413174 1.022620801177839 -0.14901933945591755
Ni 5.087377389249423 2.1222109396878808 10.652052630440627 0.8775133951818178 -0.09870182214828808 -0.8467702004616899
Ni 6.836838499476236 1.514061176829085 8.358482051600369 3.1501719003667104 -0.8866194712481441 1.0962325131267183
Ni 7.927773982572273 8.430743471502343 9.72395763923269 -1.3861313365402383 0.0734553888766735 -0.7167016910766625
Ni 1.9608986209032022 8.025424800930676 3.242891021743477 -0.22855075932334187 -1.3166830119404291 0.11574926454887809
Ni 1.131210178859371 3.4797597096063404 8.184904426090714 -1.8137155624540957 -1.4919965092061853 0.8455301574070019
Ni 6.429978657974023 0.4614850668278776 0.6040257379952472 2.049235039785787 0.4947236998748318 1.268549903878628
Ni 1.5066616995300124 7.156705740862625 11.951257868059423 -1.6617638798427317 0.7765523446857078 -0.1401873429865844
Ni 0.7113153735831321 9.00864543380859 10.390314457206337 -0.463598182114621 2.1686848931147034 1.355586373873846
Ni 8.608980818036342 6.15720068742941 2.1421152550975195 1.1797121190086135 0.858241177215767 1.062988406361608
Ni 0.7988371709461918 4.934838603774185 12.335196041426528 -1.4823314753125953 -0.41545813207428445 -0.36225403724747934
Ni 2.8943839967031604 5.306205093062653 12.663217562501469 0.15831284894270156 -0.8093557643689739 0.6222072221415026
Ni 2.717455717043902 0.2692861971290773 1.7022752840978201 0.6376387262052244 1.1627173842228298 0.1956501519405792
P 2.766522514441141 2.402815458994247 2.0060827816549303 -0.9786865616887337 0.9462819201057832 -0.14971250886820023
Ni 7.485690029561047 3.8468926209169205 11.861778969297811 -0.7467817982914945 0.4877732366989277 -0.8619949878312444
P 8.5927706707789 2.480254656173125 9.593958014408592 2.2242721434617048 -1.0463034895067593 -0.23758921537652633
Ni 0.26034183523456456 3.55997487129265 4.622253859242742 -1.337639302477122 1.2108116686268955 0.2735484070799547
P 2.9286796919889504 7.492718140370831 13.572004281515074 0.7691843343564108 0.029276637476930222 1.3008624999684049
P 7.172841614822209 3.2978922556395456 4.703498634520603 -0.6295487501082383 -0.9212977393566198 -0.7590703858508605
P 6.109758618422808 8.109409332483262 8.336686552344029 0.07308720690397735 0.8682972759001885 -0.7388553443555662
Ni 4.824394209859794 2.115609900340778 1.4844279878163118 0.3543430099305188 -0.558451062830464 0.05178664565398823
Ni 3.8725169086778246 5.8226366172294295 6.980640888290963 0.41088825331541495 0.24394369683964442 0.8310874996191105
Ni 6.7838816381037 9.043247506448045 4.251605964111047 -0.17100381414680874 -0.46517092591837955 -0.5552071019718696
Ni 8.830965137008524 8.620446758393124 2.466957879024151 0.022937325522463723 1.2872191981533574 0.8530557763600857
Ni 3.854329234864922 7.2060974839379925 11.618983272265904 0.9248062667305105 0.7176069764997512 -0.5807839219997094
Ni 0.9414419028329636 1.8686047641527856 6.303712194783497 0.8781553996411908 0.18733726119950964 -0.9140914514161677
Ni 7.435694815940588 4.209253472840143 2.5213649265373586 0.0027150849383179047 -1.62121912565115 0.3857240953449615
Ni 1.7082579982402573 5.639664347957002 8.101160354339942 1.112001603035517 1.3912899979230426 -1.4632045246751575
Ni 8.32579530162942 5.124216944986839 0.18349682443854828 0.49005791896804635 -1.8365014500003596 0.045296152833638116
Ni 4.287323993050812 6.700463440447279 9.133504418004714 0.7259193530201884 -0.3201437383409906 0.398103699956237
Ni 2.5326451836494956 2.7985900107912003 4.14220603844778 0.5893680641242947 1.3642728459042504 -0.8594233704493264
Ni 2.1071798810339297 4.091715978980343 6.142731320590508 -0.013247094817893315 0.49549503082321766 -0.22509828199836715
Ni 5.338170463628158 7.439111387642042 0.0791781207649711 -0.5058084969340838 -0.5126198634289623 0.7393723932013008
Ni 8.149544765813113 3.288199590269117 6.691386315032845 0.06307764518677525 -0.01604959726369494 0.5012031369515884
Ni 4.787972441422828 9.212887718755017 2.7352321024699178 0.5313089551980335 -0.30081572743633994 0.40300782212607367
Ni 8.727660263850703 5.7069466716538395 8.133785828840157 0.8021006254684573 -0.14163590250765284 0.24459238616723683
Ni 7.969803384997495 7.451830689900172 0.24324133681905383 1.3701678712324465 1.195836535374302 -1.0373879321846842
Ni 3.969016490919433 4.245034634083087 1.069256035867599 -0.7253619378548217 0.3374287506736834 0.7149507698238268
Ni 8.150751706903302 1.2342365271502242 5.233673504039722 -0.03176006602041626 1.4321515120240949 0.30297725386403307
Ni 3.65576885720461 2.4121553261998523 6.1264524705325485 0.31379876995956923 -1.7053425357646306 0.3978980117033341
Ni 9.25399798911925 4.577593325240911 10.22919803424476 0.7112185564749041 0.2972714617285074 -0.044941854818012925
Ni 2.52011156463601 0.5568742632665136 4.658860382508129 2.459787764138654 -0.1709631907168604 0.20823055970875104
Ni 1.4290089666197936 3.0518155356747743 13.375163330700168 1.3756813448515082 -0.7556328209242211 0.18750412579467707
Ni 4.997608824626169 5.101350053408901 3.1826813728351375 0.8247782695716311 -0.42857898572695874 0.3588997760632658
Ni 5.319685696623824 8.784757861578806 10.335553683112083 0.1686823651024837 0.014917026321148505 -0.8420866789430916
P 3.2437191690145903 3.6005930810585762 10.559639007997413 -0.057999973553551715 -2.0450752519811424 0.8006651785735114
Ni 2.241828085887696 7.389394698888548 6.1570939195637395 0.0037406979893548475 -0.3023229081094858 -0.4511447868426166
P 2.9709597667944423 5.729822847394009 5.012618529706985 0.08768053133711996 -0.6802763583700928 -1.8377000982941512
Ni 4.20726666212245 8.316260467016939 7.306760084524524 0.12693562018300075 0.5306450963617894 -0.49735805217388535
P 6.519180888701112 5.83531878283863 1.2646532994553963 -1.6386452915473972 -1.8856483440386558 -0.4264938210631558
P 0.2947377994724625 6.926050014365558 9.782536989253053 0.2420279678741703 -0.961683599372834 0.6459212779289908
P 5.981637179618287 1.9523850441362642 12.593170415291878 0.5429231423981941 -0.12922570176875808 0.8373044270630999
Ni 5.6850081962991235 1.0786432523005882 6.303507943214388 0.9704567175797739 -0.4124836228269929 -1.8792550389178024
