# total energy = -340889.5281314871 ev
CRYSTAL
PRIMVEC
9.11130044700717 0.00000000000000 0.00000000000000

0.00000000000000 9.11130044700717 0.00000000000000

0.00000000000000 0.00000000000000 13.33530918855750

PRIMCOORD
 96 1
Ni 5.943783984780574 2.2133170317035367 11.339506865380248 0.3879894943403705 -0.6317768681078086 0.0177462682398275
Ni 4.957112180564341 0.4437549400983151 6.135761812267414 -1.3420793405263467 -0.1540962397581927 0.14381799776063617
Ni 2.852347178811882 1.482809431119547 4.9021664850279985 -0.2550593471368317 -0.04519099471434152 0.11593669796933583
Ni 3.5025751138008614 4.048023097099611 4.7548777625020495 -1.1697850897028885 1.9988319047428866 0.07080509573802
Ni 5.0749121801646 4.683809621355633 2.501664169714932 1.4854785055820094 0.4211387273988295 0.024397455007757984
Ni 7.299645670952298 6.051752891522247 2.466258568473796 0.5151089483994032 0.2148642629751848 0.5318691985768776
Ni 5.20163214260875 4.61029054046968 11.599557949655193 -0.12102131158109482 -0.22987770566488153 0.4056609434782046
Ni 5.871914049221224 7.718054796301754 12.4347890118685 -1.0777195419241956 1.1741387386858941 0.3115182014555087
Ni 1.6067777809193096 6.812746902398019 0.5025929830574454 1.1265489047220727 -1.5094028776080908 -0.38359136527267484
Ni 2.513880600951998 1.5338053780421745 0.30428371309847196 0.2674374090862104 0.001956609505738566 2.325499046024692
Ni 0.3528205201114306 9.015339933828566 4.931490293421027 0.6398025666257626 1.3711315206972965 -0.04920114431499913
Ni 8.60587810522344 2.193354173081511 1.5559640599996216 0.6001985790808954 0.26019769680466154 -1.1500174201576583
Ni 6.954254504980712 1.0576943888619164 4.954947335649418 0.8627519206019272 -1.484175727610186 -1.1183704826763383
Ni 0.9592285681735412 7.609684992353616 2.769383324193573 -1.0483768270960203 -0.825231812169282 0.1851055436555135
Ni 7.5431087221796576 3.907982413840582 3.750368765988079 0.6044452701723914 -0.52913483036485 -0.1277689147175735
Ni 7.597275401553433 4.024069489013209 12.392982722274114 1.0068352562088079 -1.1731015556706315 0.4006321228050455
Ni 7.50073206519607 8.747221704403486 7.355649188435704 1.3482906115433813 0.09641842543075008 -0.5742332653653852
Ni 6.841392830060114 0.666405959529951 0.26363546975276564 -0.1739425850601585 0.39747660789519934 0.017417167035182906
Ni 2.2053628666752263 6.313019423236798 9.337716866758903 -1.0599354784678972 1.080551869166668 0.3838361342936293
Ni 0.1560811271677813 4.749766323119596 1.4896474618798528 -0.1222137892272992 -0.2536727512019502 -0.13244780825048158
Ni 6.601774747494779 1.9384928853702839 7.1342436837341605 0.7289311432633188 0.5335093052834619 -0.49444422096120005
Ni 3.2873662043292757 4.279349896531198 0.4345953500605596 0.2585642749662966 0.20122661758709215 0.9637188846353081
Ni 5.953432851636223 5.635557812108505 4.642514475699491 -0.10798093345736888 -0.27542531238769347 0.7228903363858775
Ni 5.4203489026369205 3.0042872200628628 8.835202240882722 -0.22165917440983113 0.17923083004229132 0.21402556912397333
P 0.34319169811610584 5.593162932524625 12.425093677382103 -0.48879216488174526 -1.2758662350343832 -0.4444720028081313
P 4.1127588846438785 6.1994561782048825 13.081391560528997 -0.28073515463638105 -0.35748438377297787 -1.7387025992823153
P 2.423195830589141 8.524705532214027 1.4460672021468495 0.9384644809438935 0.8609161529447691 -0.16694609913766734
P 6.367987897023507 7.960670496615444 5.695656859007977 0.9040294391944754 -1.3792631486654954 0.25158681520719894
P 4.630426513794497 1.2847206546241303 12.85698479355904 -0.6107629848603029 -2.4901139259260208 -0.619200831215011
P 4.083110713965618 6.232511975138114 8.212483143297494 0.5152873829587964 -0.04086871318990381 0.2281843771228586
P 4.706815654226748 0.9470194259765927 3.7920821203209667 0.12488542252219138 -0.14323795688745009 -0.07750796167949232
P 0.21877871686917083 5.574238762119354 3.479035158741133 -0.09502283063480409 0.44316228285777226 0.5924189351354765
Ni 1.6001538657124577 0.8725728147356769 2.8707456271986715 -1.3157203909168436 2.3496944123239727 -1.1833034359042975
Ni 1.7057720570162094 6.567434257240824 5.037479314640762 0.5848377803541089 0.6154187384647595 -0.7683173583704251
Ni 6.170054012630589 5.8414640841300285 9.278120763627545 -0.3274145609707909 -1.0894959657338332 0.1327547979679391
Ni 8.789817032590602 2.331554373710851 10.232955862870213 -0.5493501289704603 0.33699320579816155 0.5312968710131754
Ni 2.3261149275231063 5.503197954873378 7.0827821493740215 -0.11912923676470451 -1.2628461686256316 -0.8476644301411854
Ni 0.5044844889679577 0.03281616973936534 9.304324862850248 0.3417785430019469 0.07880354056246429 0.144663376480067
Ni 1.747857152395094 1.3077175761950992 11.360575835840114 -1.8087309647553107 -0.12768663941641237 -0.6039194795759083
Ni 4.146124465782107 6.721369673223992 1.8475539097333258 0.16704174417526715 1.4478025882977905 -0.5652719424070394
Ni 5.523470597700401 7.851034221946876 8.164689818376528 0.7046565869866702 0.5251120823587021 0.31522598932439905
Ni 5.288280607006495 2.778536536321225 4.923462326861526 0.39999886009642077 -0.3012906101902295 0.2691047694863043
Ni 0.585532237165358 7.715576522661776 7.04748406147462 0.5401800324354181 -0.3681372355011337 0.13910773676916044
Ni 4.976437248176078 4.6845111914669495 7.078262033371106 0.590510405258854 -0.5692689793815744 -0.9677046087559333
Ni 8.399798718499126 7.122403549193164 9.137366665567006 -0.5601958134357127 -0.13322839517024798 0.08534031323971755
Ni 4.31870160186599 0.06526515408280753 10.68302220058034 0.9569959640891778 0.753353023751109 -0.2181280213281211
Ni 8.228305827132733 7.142575967718569 4.552154067621866 -1.2033408141711468 -0.031194166214617243 0.44552461244236174
Ni 7.254535623924617 5.993631907884683 7.043123393224277 -0.613619994693124 0.869443730799806 -0.5985746703242272
Ni 2.2916286564668 5.510322991588313 2.691198346502352 -0.6693887649233117 -1.5536664754121565 -0.2314306519742982
Ni 2.4966055758733305 5.282440263612283 11.564513155899876 -1.2409851068864821 -0.5299616971415195 0.6230505439784044
Ni 1.0998432633418298 3.4311334093484187 3.8362482366534207 -0.2600809687211391 -0.03149112862974577 -0.18365209903843854
Ni 3.9192622034225386 2.851281156694686 2.706667511891889 -1.3884859528153441 -2.0074569274077363 -0.25174031006592773
Ni 1.217379035237827 3.271348538670891 8.413605982741853 -0.27006919028210263 0.6871869694469972 -1.914501520824922
Ni 3.51999591968188 2.583855386080778 6.990115671229197 0.9353454756989374 0.15704400953260697 0.6263366709288439
Ni 4.286638936648779 7.022689480384653 5.885365061628206 -0.4422315435133868 0.7098347887535001 0.8199245410237557
Ni 0.7268703695653165 7.405473422159431 11.227222846888967 0.3373194787893287 -0.2308488113288992 0.2212619389714125
P 0.23095414725557556 5.6097090535915335 7.726357924125693 0.0059302494415059154 0.10968094686761111 1.7040716394720075
P 8.627280549268688 1.478563565251056 8.072448837948567 -1.2309125531418286 1.3620601545236477 0.00043785886836698786
P 1.8182966138313694 3.4104507580147816 10.410502302054256 0.4820815856307892 0.13691150044879002 1.2301191107062557
P 3.793316701490882 6.146874865056682 4.015167748769613 1.1616773729940897 -0.3401299516549304 -0.3874009688267521
P 6.79629189433258 3.855893110900317 10.207071570282666 1.4401715541150941 0.8829278813291697 0.39675284235529734
P 6.6217740513173915 7.9250453130407665 10.342665027939956 -1.4276106867309477 -0.4326266734337711 -1.1032156293127708
P 2.3829603291400927 8.619125935637143 5.894233090061258 -0.367082054763742 -0.04835319449240705 0.20426540441341592
P 7.175968882757239 3.9098137851701242 1.4701775245957787 -0.9097714838845752 0.6634065791979478 0.12978388826507326
Ni 5.578311513285053 2.9048738241592016 0.3715679312938495 -0.14216117888350355 1.6028169689948781 0.7644308788318254
Ni 1.417572522067195 1.1356051164187126 7.2087613631162215 0.9038772298873273 -0.3584089524697763 -1.0246262616436417
Ni 6.639559309204289 0.9036049919062643 9.389217579709674 1.196345099579604 -0.9355930729333695 0.7313402669254437
Ni 2.9456286697166276 1.882148605261381 9.250103515675592 0.9650412029911573 -1.1903397739257888 0.21153828392574536
Ni 6.32533790103551 1.9106214182206827 2.6998668374621855 0.5988106975944333 0.15702369781763278 -0.8308347601783562
Ni 4.257109212872428 6.599187138253037 10.816295921220208 0.3258526158003098 1.408074159359917 -0.320020582499565
Ni 8.338753007514383 7.019737419137032 0.3087300275701965 -0.35963922533245163 0.028339470374641518 -0.09148165025076503
Ni 7.953235675695511 3.8221995229567978 8.198681345834853 -0.8350248870003039 -0.2893203252022308 -0.5577031289208461
Ni 2.680517169340052 8.655343353721376 12.512759874006267 1.1897659037001898 -1.7922931309142618 -0.3435970842679244
Ni 0.1289194302996296 4.95169095697689 10.000028208002803 -0.06837900279503062 -0.20619244623279973 0.987882369255389
Ni 8.865987501819326 2.425965665833822 5.721541151595523 0.11355637066261734 0.3425706998859391 0.7344471879855415
Ni 3.4438801182540386 2.8293138120403256 11.87998645670885 0.8100363353757664 1.1114968954849567 -1.157960843374451
Ni 1.0587057431782307 3.432809888575462 13.03317091563114 -0.4991997333683145 -0.2937043132025393 -1.2368214624270957
Ni 3.2461649050646484 8.278299531039194 7.979368706777071 -1.536608234378289 1.014355732955569 -0.03662639297378208
Ni 5.892933818660299 7.90583869233094 3.555260295770738 -0.7043956200157998 0.5923582571008701 -0.24996342067116306
Ni 3.0177628329802406 8.408509121439634 3.7098025243436954 2.1461959679835685 -1.0079955950654962 0.6282367161650342
Ni 3.7558145900859268 4.429431232552195 9.403632567672204 -0.7621377119222745 -0.11760534392101037 0.6957939943897178
Ni 7.261013758329117 6.149672034201804 11.456697319000675 1.379777626408069 -0.22753003136831135 -0.7386519700955085
Ni 0.4096203652276823 -0.10436994318361606 0.37051648725688846 0.5535549110804273 0.5447555676212426 0.36370542498202524
Ni 4.7152436068627015 0.14008897314980812 1.642362874773341 -0.47422737969369294 0.1520586405028736 -0.6631700377071095
Ni 6.2387349931384986 5.716028815006603 0.3699506755177612 -0.8880029818592319 -0.8420722807653884 0.09698895322223942
Ni 8.098661137341404 9.15858779473933 11.270029557239493 0.11420763109337105 -0.5778400088800371 -0.09928443412463546
Ni 8.957911409002172 5.049373205852625 5.62636724365025 0.19488833407389017 -1.379707692402082 -0.032288684830376654
Ni 8.032886661580381 8.840102298101765 2.513385857354017 0.2129279651844204 0.6587094308325945 0.3726040130232357
P 8.659871669894423 1.664078747543645 3.5881047105405592 -0.46085610059310955 -0.9521116394136828 1.6393559444611767
P 1.8940935197540674 3.0508824090145 1.8567280778513164 0.20023674286999707 0.5064469018490311 -1.1976172814238084
P 4.84145333649862 0.9680209728153736 8.337968524571728 -1.436522130287965 -0.12914599757075823 -0.4140093154428999
P 8.65538891022211 1.4931872019869532 12.615095263867062 0.7782752409140854 2.4411930318556023 -0.04503441453181922
P 6.560136105823095 7.847007027281912 1.2744157741579 -1.101622316683722 -0.322843910880973 0.6109820428496445
P 1.8424051140202695 3.3934308493402296 5.974391575364313 -0.8631381002967522 -0.18478132754687532 0.44419020990165436
P 6.903796124766756 3.778611063053662 5.901113943932254 0.5012689571925173 1.3657311756173316 0.8971365687293839
P 2.382705212735977 8.467431899490132 10.101522624860033 -0.1370724515066865 -0.18326617645392954 0.8366986751583009
