# total energy = -381168.4200377526 ev
CRYSTAL
PRIMVEC
9.26522192630712 0.00000000000000 0.00000000000000

0.00000000000000 9.26522192630712 0.00000000000000

0.00000000000000 0.00000000000000 13.56058883213227

PRIMCOORD
 96 1
Ni 2.9745717022543854 5.877615891274247 0.8152459503567798 -0.14254401614421902 0.01905213153544461 -0.08636824028359964
Ni 5.6876788418820565 8.437837603974087 8.193118076926226 -0.9270870923448872 -1.1128426108795737 1.215977271988235
Ni 2.347974008920506 4.988293565132321 7.269370818734705 1.039194903486436 0.5765374880185297 -2.2904101727413586
Ni 8.617388339592198 8.272342210010997 5.48870264198318 0.09061441715446329 -0.1027543949511069 0.43852889785081894
Ni 2.5519663999677196 2.936361927049829 8.393014313361913 -0.05568906603218797 -0.9350973642438735 0.4305073130979231
Ni 7.256077078321636 0.46594801043577116 12.63575678047589 0.018751569575890286 0.3019321004289703 -0.3056892534785574
Ni 4.7024429384080335 6.696976526686397 2.378866111851406 0.8589795980436884 -0.2716463049612354 0.293143812713379
Ni 0.6752651245213112 8.798004575731289 11.859955659405811 -1.4315192777567347 -0.6768691324607569 1.6333745300667613
Ni 7.150796361626832 6.9267354998974975 2.0306707333390643 0.48352217473205755 0.9743879343133799 0.8280217162095933
Ni 6.383561864745437 2.002010622369071 2.4503713885533167 -1.1066737630647006 -1.2626420230346254 -0.7281137895683459
Ni 4.671154283978891 4.046845100459639 7.699620855628858 0.37919606441845666 -0.8310286213567172 1.1984055816530588
Ni 4.463696699933009 6.125618086448919 6.971743168425909 0.4272425263037223 2.565509983468833 1.580261966512498
Ni 2.118483727145131 3.7287978275578952 1.7975642354477 -1.2107980417801403 0.5408055818345588 0.4376102426912915
Ni 5.360523855831408 7.705394015408189 13.235731785140329 -0.06913207891097126 0.9985712164278029 -0.036110115458995874
Ni 3.2500452804265136 8.269006730119232 8.165684681338648 0.10998330859937831 -0.1017336669960764 -0.7986034109484762
Ni 1.0063235485675166 6.49927522132393 12.815054575535541 -1.0837431224104561 0.14269108324504456 -0.4990902043736437
Ni 7.110474115824158 0.3975502891663548 6.6744814943830155 0.6386494268579258 -0.7984720275769346 1.165606789955483
Ni 2.113443446419797 1.4673239304971695 12.170085800175574 2.5653045523262468 -1.1637018596232862 0.2025671907753866
Ni 7.614316883919153 5.729557644967554 4.358847742579751 0.48973653107288556 0.6113211713566181 -0.1177063882752489
Ni 6.3950322094843415 3.2137163452720365 4.325976588246404 -0.4853959947160028 1.6052448617100805 0.4901278529740333
Ni 0.2657988334416249 5.045209823396527 2.975450971814742 -0.17216903809950349 -2.2096867894483623 -0.6526729948305277
Ni 4.9196382706934845 1.2790082949412527 4.709131502113214 -0.6965139032748778 0.5180328069144176 0.11098372483943468
Ni 1.797221422236602 8.93648258257108 9.801783894359144 -1.2475684165309548 1.0694195066989325 -1.3325994260603695
Ni 6.080199968589382 1.4057102047187267 8.409314618288532 -1.3785260133891548 1.0753708391863608 0.9792779154158296
P 8.60501000310498 5.533403631665988 1.0521484096694114 1.4921232645920368 1.0904688711700636 -1.8061038115451091
Ni 0.5404626312178082 7.5098422415315245 7.6615018795991325 0.7108496031712597 0.5148898904100616 0.5801326615689557
P 7.388477099580875 2.5175368353071645 11.6308359865073 -0.2560314812421139 0.3448492115074706 0.41169223727394905
Ni 6.493688292505222 5.615845576324121 0.145906861776505 -1.2901965356141265 -1.0023875048500996 0.3948237436533846
P 2.0292040487088796 2.2279152632607984 3.5498910248633333 -0.8595174728250293 0.14300810026483113 0.8149790240930223
P 0.577101024784466 0.9893126011195136 0.04923075668026387 -0.18940057148644154 -0.33376929954422513 0.5127823571487556
P 4.435289529521475 5.8085992531804695 12.886234642948006 0.5881393339235161 -0.9180980014723995 0.14102397995526678
Ni 4.710105276937172 7.967849956780511 10.558329104709621 -0.2628996691168569 -2.030029156281297 -1.055592113897537
Ni 6.686858904348042 7.2868932064327785 6.482435680481475 0.6251033127423751 -1.2708019331375984 0.5183354257565009
Ni 0.7066316068145955 5.015792743795541 8.715661768947717 -0.15419471300926993 -0.35369792014735213 -0.4957688533098945
Ni 6.567800802655864 3.088969397320014 0.39491989266282096 -0.05542167130341423 -1.0886726985015895 -0.6331616642704774
Ni 5.843130735282163 0.5412381302926437 10.745627418898549 1.7971334897256985 1.715170577598646 -0.3006108105143855
Ni 4.107652751930905 3.416439400915995 0.5621404709477064 0.4006259521574584 0.5249148787462314 -0.09593711491895736
Ni 2.421827092857343 5.570334806245368 3.190101147638338 2.14942681621604 2.0621805442028616 0.3033914585833162
Ni 4.144370826406088 3.698167003885184 5.4207913448646465 -1.0623299468420027 -1.1049701501100324 0.5121768623542727
Ni 2.3774466798530214 2.072639409077201 5.906979232588088 0.9765821137512215 -0.9613830374132796 0.20967217725128404
Ni 7.167316252312992 1.1042662095004365 4.618356416858822 0.8088955369031037 0.3329318912445943 -0.2582547141456778
Ni 8.370442379716584 4.731035413258 12.499648817403639 0.2625600263892511 0.043864819703750266 0.46551673929357246
Ni 0.4496226894099643 0.5641695545485302 7.08729253057639 0.24640398545467884 0.12395031230243171 0.29034928068737736
Ni 8.388148218808704 2.040841167442372 8.487789194919849 0.608175683749101 0.0814170669259114 -0.684055365796551
Ni 3.057282338348243 6.143694534417904 9.266058571109834 -1.0662969019095505 0.5128304367778717 -1.274645989474037
Ni 5.859669156412166 4.060344528799367 11.980820479372696 0.6757453032689589 -0.11824374883595765 -0.175249219686724
Ni 6.108171673570603 7.636896229742019 4.326397229321643 -0.33961830212583444 1.479067716959659 -1.0873046145094694
Ni 0.43266177416033763 2.7811416641977615 11.870980346970288 -1.1760169295452134 1.327085695330992 0.19105327659851612
Ni 3.5341262497637813 8.471025628897152 3.9654825541553698 0.33631212057073695 -0.29557041987700067 -1.244294116655057
Ni 4.85069575437508 0.6683143550357492 0.7348293832107026 0.523774337383885 0.40760109792371096 -0.18603679722053124
Ni 6.874377730818704 3.950644301247975 8.67561747980269 -0.9766679885968084 0.5424606009394787 -0.5060087858703479
Ni 8.49355864861041 3.9335221711369126 10.114233120175875 0.19610112343506872 -0.18983663058259562 1.4665960668552096
Ni 8.886274344978089 2.8749057100440534 0.7065713828721052 0.9102008581125097 0.8475600433528372 -0.8881585336004897
Ni 4.88627420655391 3.0669644952562845 9.910186990841517 0.5937062864883323 0.4000662229992465 -0.3471086969656086
Ni 1.798815040407112 4.442840685387554 13.068149863200503 -0.10586748665879187 -2.0561682765705105 -0.6884910329704014
Ni 6.675073542063804 2.78402314821537 6.5533174077480645 -0.33424418229811464 -0.5909971150872854 0.14749390395032663
P 3.0807974715851887 6.153710239315122 5.392354525742963 -1.064201967053735 -0.020232267886474836 -0.8089844970724841
Ni 7.452249622067043 4.364466173152992 2.316488005264434 -1.6658678747087763 -1.3802152281661197 0.6110141816391607
P 5.7619581260272845 5.977439392257247 9.062853723925954 -0.4792747123096133 0.0008284094385663152 -0.9180892597216512
Ni 7.686567084463557 4.832906528285665 6.550401642409346 -0.09768443662736725 0.6365758321583488 0.8162933720290716
P 5.324648916551087 4.51272825434196 3.0163902813973924 0.7656696363349329 2.5771185142420387 -1.101328182482071
P 7.877764204037082 7.720903996904897 11.089171656006263 1.336229309503473 3.1859174333974356 0.07238143908620437
P 1.3136787553717688 1.8529239364290826 9.919679210700165 0.7027218318578027 0.16421353069785266 -0.4594471360607249
Ni 2.771255672407446 3.6587712802746664 10.896990569864668 -0.13950471509726298 -2.157794471454445 0.1255359116219967
Ni 0.4569357290726597 1.27173509573282 4.828397144776436 -0.9653397080681828 -0.12845822747511423 0.8737040487380566
Ni 4.083526114047136 2.9422175473042613 3.2171009308399863 -1.0421146482363923 -1.3494131551835986 -1.0422468029388825
Ni 8.061400902522607 6.274917872493105 8.65211717092082 -2.5573027650676927 -0.6826826538187404 -0.6032882737498126
Ni 1.6909307963523472 4.151542108173383 4.848452644147868 0.44560534508162614 -0.14570981546671033 -0.34141216080146364
Ni 8.194560671979414 8.905407028246133 3.318289199012032 -0.16334449782933805 -1.1634648039118156 -0.3575059810395327
Ni 8.71062426778896 1.047285094682779 10.632600050155121 -1.0461312255949533 -0.375157889793341 -0.6749924842633344
Ni 4.54270124725824 8.769050757226381 6.03412309345122 -0.01679187474635818 -0.7349812061121407 1.5069251054915596
Ni 2.6315824519397735 8.47986465061033 13.434150218679527 0.3774502853719435 0.31105077490078686 0.9875560962642218
Ni 6.6481117462720345 6.16326268311626 11.104426843900129 -1.1388182090077292 -1.231669485912511 0.03568356944453854
Ni 8.739198212195083 1.931103879003293 2.7420998720646486 1.2003606484969005 2.049887071547489 2.515146957635249
Ni 2.563964862356153 7.450535556011554 11.3207456861918 0.6043637662021786 -1.427786807297496 0.20045322975617735
Ni 1.2609133165284256 9.475727763628393 2.9896489978873566 0.7980650219465031 -1.203742677595256 -0.6932005226309288
Ni 0.31010419814838197 7.062804549037678 3.669590279912484 0.621970166430032 1.3731089561386416 0.3191973152673212
Ni 7.8322534339583285 7.454491805772064 13.24568448652848 1.0643976280043088 0.2674569494702362 -0.15340487011812287
Ni 8.578946933839603 3.4889675581180475 4.820653272294388 0.6889044663587361 0.0015586027363715094 -0.6375628786619665
Ni 4.454246173573008 2.221892869011777 12.053763718516835 -0.16164474152941194 -1.0725644800858174 0.5203406291119878
Ni 1.7435294612011019 8.018975451343735 5.4504483937134 0.5860410566335907 0.2237055154158986 0.5819833416244493
Ni 7.965116716313647 0.5897360079189113 1.2861471484318225 -0.49989727365597136 -1.6028395947026977 -2.4347333922731877
Ni 0.4035680508044147 6.988423347451313 10.108429385164204 0.5971711051084811 0.3761781035277392 0.7137544355228804
Ni 3.725536469441502 0.9883953441492781 9.714751958761065 -0.03804049971248932 0.0885297667112927 -0.15502775043352657
Ni 0.6327979798437937 3.4533983711611387 6.751315200212022 -1.4449167821095632 -0.7157539824514125 1.2655018610809237
Ni 5.444049831454364 5.411084171857417 5.058234872373871 0.4928660778408028 1.3162340973284687 -0.6160383743266294
Ni 4.325172366983612 5.339510332513287 10.855726050992569 0.7023076271385195 0.4348373079318447 -0.41219694482450947
Ni 2.7455539467970103 1.580239190055347 1.5918503661674586 -0.03212439133837049 -1.3474058949455827 -1.2518768140983214
P 4.335706924308437 1.9454927686474917 7.01665540516853 0.21055098031181155 -0.354553326169112 -0.2690510334302334
Ni 0.9069725739025183 7.716234325056425 1.2721325737532554 -2.687244519066869 -0.08712620149554673 0.373888279052298
P 2.8167015859327487 7.6721318687097515 1.9720079807426416 0.4680014533886392 1.2202129073361372 1.7859664173652856
Ni 7.9256283404839145 8.6230586554082 9.074068348539821 0.24511457721929403 0.8620163279874831 -0.4083184357057097
P 6.023895214972 8.94221775494053 2.455036427790828 -0.13749539797671803 -0.15837429830825628 -0.10271865661716502
P 3.9970723282969636 0.09019044975114192 12.066564549123678 0.883398393207685 0.3517989033524264 -0.0892789861724914
P 1.517810124747806 5.23557307299711 10.68853790098441 -0.6959379761667499 1.163629097403822 1.1247015671006888
Ni 0.3242725755108473 6.0450291861751015 5.931143857881735 0.4155175245573102 -0.9770256290465432 -0.2895920908063787
