# total energy = -340869.6585419846 ev
CRYSTAL
PRIMVEC
9.21997164788407 0.00000000000000 0.00000000000000

0.00000000000000 9.21997164788407 0.00000000000000

0.00000000000000 0.00000000000000 13.49436047569488

PRIMCOORD
 96 1
Ni 4.713221744971287 6.2507073039718914 0.9353495075835658 0.3445116256623938 0.14272862135119935 3.117818423736669
Ni 0.2535999246989081 6.894390390733795 9.53063469930261 -0.09245198458383433 0.8400889317867725 0.5978768729262541
Ni 0.3781552849990284 3.2207941864434453 10.28603525811862 0.8108740007857133 -1.0311314097520115 -1.6709334621571414
Ni 7.527949948844362 4.728895696435109 13.143115400844087 -0.14307032096133426 0.051687658182278724 0.9062644991725812
Ni 3.201616645828887 0.017166664841464327 8.307802793941079 -1.0844733157082613 0.8381562335404339 -1.3195047976599403
Ni 3.310126489815778 5.479263072836942 2.670385862845597 -0.616763425418112 -0.008562801968346544 0.28950338774731427
Ni 5.230452923305949 1.2220426758054708 1.9735634706356127 0.5808404862692578 -0.9292172513140126 3.034371985085555
Ni 1.867542096942889 7.208321198611243 4.95086466508288 -0.7723894715572698 -0.5112373812591389 -0.33458562479793347
Ni 2.0559798734238215 6.697949679034865 11.322321325140617 -0.04407899259708538 0.5887502280346377 -1.5461040896838665
Ni 8.71105668521941 1.8922239605126834 7.57790652014814 -0.44833148576353754 1.3575280709812494 1.3146433558025812
Ni 5.8263488980460965 8.635010360705527 0.61481627815127 1.2041036604791004 0.24835673830567548 0.7282071206131008
Ni 3.133453396904162 -0.09996846243625389 1.7498270334610093 1.782136244985918 1.2722759465799636 -2.4282616685059146
Ni 1.0776210430235291 8.087150437216268 7.006839006523831 0.918408847844599 -0.5998890182602766 0.2677472270171453
Ni 5.583070731384687 2.1273608923843543 5.744468175599093 0.0191824864657218 -0.41661255739370184 0.9077094591492239
Ni 1.1393210919622903 1.2407038980188676 6.12882757938636 -0.3529286460814954 -1.08030735725603 0.006497691909201713
Ni 4.5107788318588575 1.4665470986696378 13.439222159915733 -0.8244334846377027 0.15127831069342335 -2.0718913437327218
Ni 7.436663011524775 2.6887004141325006 11.761967365726509 1.0527890972311031 -0.9800657014244475 -0.6891893445890066
Ni 9.08814429752461 3.3318856224361424 5.553887677753342 -0.29112626806271796 -0.22004683561738878 0.9970007866168894
Ni 3.053073685809105 6.259309537334095 6.865889614989698 -1.0570874674961406 -0.5118521320250023 0.18558376884351266
Ni 6.310019380305282 6.142142140156304 6.1642912775689735 0.5350895052863881 -1.2306947807040673 0.17251330881279967
Ni 6.273157934450953 0.25446291402656324 11.743237915724386 -0.0252690589794339 0.09364394800940647 0.30289317879065897
Ni 8.536743904998815 -0.05128701318391399 10.912120185375233 0.9836133095663898 -0.2759215352978216 1.1969313111003774
Ni 1.5745129643410205 5.298311913172847 13.197835009398577 -1.7659136124794685 0.5317370438743875 2.799346416671147
Ni 7.933176914012845 4.4060491761661815 3.8379716992828823 -0.5225708039940871 1.0759796764149536 -0.5802298492684523
P 4.157819884836495 2.429886595579009 8.04670057847387 0.26792360469400955 -0.025847300080407098 0.2740394877837603
P 8.187611246127915 7.015337976205803 12.958715049860805 -0.4709085997331051 -0.1484516398779056 -1.8160526952277047
P 4.514227101180898 1.3159204251023124 11.158459382557812 -0.3652002643599968 -1.5467574069971488 0.7489446102707681
P 6.97493606131494 0.4167786673973195 9.594341936025886 -0.9564408629166559 1.9538597109075708 0.7903149456874389
P 0.9402250284859592 0.8615325721661258 9.784005046712432 0.4454737045997682 1.148189880030616 -0.2816296414261924
P 5.056702561343762 6.285079357534907 10.659762190830547 -0.6379691129614496 0.21561939597365445 -1.2232303540062224
P 5.933282126915157 7.966036892258175 2.676039549338312 -0.3006421779729532 -0.4343012329227166 0.8135032108784441
P 2.760994210266515 7.050005068855196 0.47660153014900175 -0.4309711401082191 0.343062294810377 -0.2561469237740557
Ni 2.1311134207642226 0.4649585502028172 3.9563570546891267 1.7318884045739593 -1.3618539520501127 1.061858663632539
Ni 3.8125411740314044 5.544208551725859 12.534385225846504 -0.31049284551478784 -0.24401363084563135 -1.9088386661121899
Ni 7.495458769457004 7.552143153927343 4.571363264252253 0.1676688362363048 -0.7138148564471707 -0.7495537046096769
Ni 3.8193639529038914 3.6770260336694935 4.089384646754016 1.0872089694718694 0.5813745043958568 0.0469246895759966
Ni 3.828998823068417 7.995808180067986 4.22451715830078 3.2835183091720612 -0.6869121185190558 -1.22108605396971
Ni 0.23996358692538336 5.189894268900448 8.00938827601567 -0.9614187757472218 -1.9844789784553243 0.09533804788237775
Ni 3.154742310980611 2.361935405997618 6.077859577214592 0.8962281979825018 -0.34100335539881915 -0.3906120195648821
Ni 8.732576098582092 8.965555557134625 8.436471183504734 1.031230911444353 0.5041025699865705 0.5223239780906037
Ni 9.024738553867726 7.893927495553146 1.2634597095529019 1.2618768627338268 -1.8170338281940512 1.2498674969777763
Ni 8.337527981893643 0.5415479310350638 0.05387690316402427 -0.8292051949947332 1.2206188845253043 -0.30593710782330535
Ni 6.127039826922339 0.08941067312965266 4.491544127421314 -1.6780518183694777 0.9965390164891224 -0.4814910032346418
Ni 8.679330763462346 5.302211961095904 11.315196131204592 1.0170001125569519 0.5369558690711655 -0.9655672506979563
Ni 7.083169306158353 7.130071300920976 10.734290908043873 1.0348584808946113 0.5384869610037114 -0.15380082000496093
Ni 7.9166270652613395 9.356058227898567 6.147018583055842 0.12191014194395132 0.19068483751550383 -0.4064888386961387
Ni 0.7900049556595485 0.6841412434786078 2.0932995518591806 0.5381007813088862 -0.35777131888577735 -1.6925595250673493
Ni 5.769129755231698 2.4339987028454 9.593154403703215 0.44352172307972004 -1.715280106593317 2.1945311647538466
Ni 1.12801740696544 5.10514429133842 3.774790922929363 1.2040339835834295 -0.6696561596520855 0.746070888267399
Ni 2.1883141236357218 7.473911696179974 2.56162062564956 -3.271716431441127 -2.0656960135552875 0.7896382313353885
Ni 9.04943885738042 5.9513348310128995 5.677994947441025 -0.26233016976663204 0.35662872064090195 0.5451522888390289
Ni 4.786022639535013 6.730459298365122 8.329650438287356 -1.1677354062627114 -2.3561100860423294 1.016359393649159
Ni 7.086737435109234 6.453509795970843 1.310623551504686 -0.5983409570468663 1.1272443881272005 0.685051411161233
Ni 2.5816934254918458 9.109654490915842 10.987742391202447 -1.4003135415778918 1.7496624407279284 -0.5740617727845274
Ni 9.01882855216872 5.143388732910145 1.8996552575008245 0.985411024896761 0.20395712914437775 -1.5110036464363072
Ni 4.4552653837625815 8.293391978565813 9.968419227652884 1.5310443671372664 0.29036624996824184 1.2586131043808904
P 1.6630154702829163 4.516338474642789 11.327408905386344 0.7621096868978166 -0.7480395819579956 -0.10350927083926045
P 3.1076005969603053 8.864089771335003 5.99708248535007 -1.3599677907709935 0.4209610641703847 1.4333529885313638
P 6.973460865883051 4.376093488927384 1.7544554591285615 -1.3789679860225799 -0.6702320867602135 2.1727096980033807
P 0.10149805569969388 6.9809659226427865 3.582995232846593 -0.07419972324186577 0.09367325858544513 -0.8914819415467681
P 9.358732019618865 1.1953785183740755 4.153671819681452 -1.7464992125085985 -0.0040916535708703725 0.7282181763566942
P 1.5348486471661027 4.383690745401612 6.53089209434773 0.5343971072050538 0.19081956332115524 -1.2170442798001684
P 4.908012081780791 3.7694562474487934 12.941712500511137 1.6423250543918295 -1.4848778958835331 1.3866077619560249
P 2.1539328501012567 0.8777975237998479 13.504210972670462 0.8126696592335553 0.5865182533803255 0.25307496971695126
Ni 2.93929001815321 3.2714763695002844 13.056386817409038 -2.2181917415955796 -0.8882372093572252 -0.03296925583716903
Ni 5.575141555938283 5.562519415024182 3.5304616795227326 0.8804117997755353 0.7258679309569628 -0.4029733693437124
Ni 6.714490307814922 5.4891468822305995 8.844217044873169 1.20014750404483 -0.3537488279899456 0.4120665898942323
Ni 6.670621683659119 8.049108835016428 8.397419072434051 -0.8763124328951812 -2.2473943313014653 -0.365104619322397
Ni 2.982540904221908 2.10374854550268 2.3775042497869174 -0.24336262752519378 0.47735384113781665 -1.4313048477530834
Ni 4.619159596245459 4.411830098264897 9.40134488366327 -0.9293527484506123 1.692958560277981 -1.5674966964270294
Ni 5.634601151814863 0.7789262379660615 7.71637205137383 0.31904433462922477 1.5507017363568776 0.6901560793776501
Ni 1.7483002061890043 2.7662772539069675 4.186760453218724 -2.1484896491137517 0.6954713209429764 -0.10661284946524865
Ni 6.715154145759271 2.530587123748338 0.6660627234608071 -1.6693535192645315 -0.2781542812830823 -0.08295690060920552
Ni 6.099840911146884 2.767734009395958 3.5795543395017115 0.7205202934918044 0.7451959418616133 -0.986027061214205
Ni 3.3139804378815887 2.8268893462147107 10.384706470571958 -1.914770972436225 -0.26765106775891323 0.08069073028284814
Ni 0.9357533423330454 8.409960077599399 12.737380415248746 0.4868993187344065 -0.6636192094293861 -0.1775909804460232
Ni 4.582602409448958 3.7214017562550064 1.6901009804095448 1.2351160497002147 0.17633602499299955 -1.0478687771113502
Ni 6.557879872776997 3.267456461948387 7.667036906145734 1.3643690051624826 0.10875406417796754 -1.3873988903987524
Ni 0.7337677398045018 1.720372912669054 12.032003733528095 0.3928007996860848 -0.4516636354605641 0.6713124643085857
Ni 7.689022850063752 0.07823330174165803 2.4377023653765866 -0.9044158759996167 0.2814617483897604 0.9040667201903141
Ni 4.6544905268392025 4.273641166182687 6.867670913473705 -0.7661154656231001 1.1775912160108688 -0.5863398188209321
Ni 1.9958011197741958 2.867023881933543 8.016864750863913 -1.0026656982121507 -0.740524247417557 1.203828552440843
Ni 2.127277912641311 4.855716403720323 9.295293084064765 0.9484773850952052 1.4760821519687741 0.2247190442820775
Ni 5.937965872411405 4.416347884275057 11.252326067888914 1.1315522714739352 0.5780485253464174 0.1076520893630404
Ni 4.088015480993793 8.376307181809429 12.656347008177935 -1.8202700757431618 0.2374891994635523 -0.0684615352065079
Ni 5.753483463682225 6.85975095799875 12.60659327624604 2.556046266952772 -0.2876380524038014 -0.6236786644807065
Ni 8.44491298936372 2.3646184176893663 2.4941894424579094 -0.24931884510862867 1.2162819477128473 0.08163303959145941
Ni 5.165885463246454 8.102344950164726 6.684067168023644 -1.5804226604600782 0.9643904567810359 -2.996976318045916
P 7.7355191660826055 3.597116541118351 9.451773517505254 -0.9012562473247123 0.2724106939310857 0.3910203107468943
P 1.761088306589193 3.9143296588317518 1.949179412143631 0.6216058411120778 0.7630196003065957 -0.03455279827420501
P 6.7640384343834965 3.935526373193708 5.506387306843658 -0.022788972870057527 0.17256627353792214 0.5930725095590754
P 3.947503116106357 5.614197354997548 4.994127537114462 8.561773527082028e-05 0.8228656259299506 -0.08839478379532517
P 8.072822601584045 6.702817823960099 7.598471666465819 0.7229543568545936 0.8545135918525348 -1.450393231843102
P 2.3745667668831683 7.281223512860912 8.911621490147615 0.061298184688849275 -0.542745222059433 0.6337676732855924
P 8.717003566804213 2.89952428129235 0.20006323848136326 1.3823183905520515 -0.7402277992230607 -0.8927834339670108
P 4.218044738343367 1.5341571493074044 4.1393946938922 0.43375024551525293 -0.7975310038199039 -0.5107105622213914
