# total energy = -340862.4660662809 ev
CRYSTAL
PRIMVEC
9.36113244234202 0.00000000000000 0.00000000000000
0.00000000000000 9.36113244234202 0.00000000000000
0.00000000000000 0.00000000000000 13.70096356713620
PRIMCOORD
 96 1
Ni 1.6513318819227236 9.323575780527824 11.219376449806639 0.2647596051437311 -0.27305475527298784 0.5466059905664199
Ni 6.329979172079737 7.074966191342766 10.310441361744155 1.0405712150086723 -0.6296194554451737 -0.8432791565892961
Ni 4.067721051498709 6.571927006414611 0.8474324465868144 -1.2544646294301556 -0.08040816604542281 -0.2906058767828737
Ni 4.045881529038628 1.3493698262026887 8.101270224391211 2.522311079483856 1.0283384203879065 0.42384301370387
Ni 8.296949724516399 1.1751497865522078 12.01307318667309 1.7033208773489117 0.8133052359350251 0.18148183085999714
Ni 2.348661374891593 7.102094753747101 9.950297994410791 -2.474086954370146 -0.26440993511379624 0.6126607161036481
Ni -0.045410854459431715 5.699984306224182 0.2157535129684787 0.7709208574315433 0.6576393376968674 -0.5530915982907636
Ni 6.692451589215102 6.390367838770685 0.07191596542963062 -0.6960493049336335 -0.2689361051189239 0.5506521356113355
Ni 5.273584714258172 9.062568680128344 3.1788150428428232 -0.6534283849393133 0.404737917443303 -0.047890653033691714
Ni 7.342161000420391 1.1567738831706649 4.842948273657171 -0.7571837103511088 -0.13144070714220588 0.38272001841131503
Ni 5.2701210951796345 0.4016871378972708 10.464796141809321 -2.0632400958156274 -1.8656708724754645 0.9589859979360129
Ni 3.7328639756652047 6.314158857910197 3.2417855099171806 -1.377566734799679 1.1455475573117624 1.7201001536897795
Ni 6.7596926050019706 1.418164790008577 13.557391408541415 -1.910222433833594 0.9354771161807954 0.0001555517412577966
Ni 1.7284301703844591 4.357429384586834 8.468661916731365 -1.9932086450188384 0.31470302694139346 1.0739870714649569
Ni 4.317223319877854 2.6029471820521795 0.12020536817730708 0.942332448539732 0.5792314899109251 1.430746404146452
Ni 0.6872522336768518 7.290890076925377 4.508055625519617 -2.2234319069485964 -0.3981553791297788 -0.8354336924029483
Ni 8.47674899922312 2.642376272751649 0.9155805561269539 -0.1697156914630045 -0.8224251959584223 0.17931207690218795
Ni -0.04872188707586152 1.6524177733095087 5.98652670425187 1.1334312336642027 0.7965984647033054 0.5900558342199387
Ni 6.852826513684074 8.584804553340874 12.057642475307762 0.12446504715532113 -0.7246723679869649 1.304906073910159
Ni 0.4384043084695712 8.991704906007977 9.167520082661115 0.24305666624900077 -0.9073585035677083 0.8017458132322
Ni 2.7971813232970257 6.5117349235091995 12.462917735347746 -1.3934934333322646 0.7596519693859434 0.4298359980625114
Ni 7.503443954755898 5.746612107927425 11.866487210589758 1.4563489352059047 -0.4294259071082862 -1.679265636171921
Ni 7.819634932095875 9.117340667232474 7.690008520024944 0.29475383751297624 0.8115003215158024 -0.05877696092889231
Ni 0.7256356858599086 3.876033138333221 4.402653952506636 -3.993542074007916 -1.5141370498589664 1.6669235696667999
P 2.5005551131844688 8.270017745897603 3.241428850763417 0.0019707505731256384 -0.9670880582178569 1.6608956183051653
P 5.8887796294024595 5.948119849237202 7.852762108298934 0.3627201782506205 0.21422997182529557 -0.1821238353193702
P 5.069118855032671 7.471634826029214 4.655505634146055 -0.5533191409205374 0.17758686668096513 0.9854994708455093
P 4.344941633638806 4.155678253828295 4.788637790392425 -1.4529167695959042 -0.31630071044581654 -0.29653998287912153
P 2.5441686301761184 0.762303242429192 6.825025821955848 -0.9570733542943323 -1.8184535913597135 -2.4297930175487763
P 6.4175338457056 4.149677767803044 1.2188250870193125 1.2589771725885286 -0.31457550022459374 -0.5353095917169942
P 9.027876322547092 7.861048582916021 0.6212787152500757 -0.12771826398529618 -0.8026593261854047 -2.0349839291834115
P 8.312704510757426 5.892711305113233 3.88356604177241 -0.18926378879826114 -1.67753631218564 0.7753776076513162
Ni 0.7567314962790676 8.668390106725385 6.804200110161188 3.3807813419912938 -0.4714387612049623 1.3327953441212594
Ni 7.467881011838689 3.5043400055428284 4.264273945299647 -0.043053893766680694 0.350616453008551 -0.48646917317552346
Ni 3.7476358429785384 5.4292041833436375 10.589132577822735 1.0797982788300953 -1.6407361126381552 -0.2200388651975888
Ni 4.01665607292188 2.026395022465208 2.787680709775921 0.9736243166744781 0.3740410025800784 -2.0452174339859615
Ni 0.14256911406549144 0.21807881831742176 3.7310460437056046 -0.16096237075040665 0.5429007738006908 0.7292129361697958
Ni 6.05413467643841 2.2212282761993145 9.520100590930827 1.2907045855987966 0.9281841820638079 -0.8758797162331368
Ni 2.1162338124563775 0.6158033887661917 2.220871617045552 0.48996021704791753 1.0765964840633457 -0.14762091644649417
Ni 4.831065251877992 8.273247336660024 13.33612044399215 -0.26403198294908725 1.5957788312011743 -0.522118546948017
Ni 7.041631197994995 7.151905340549542 6.5079034119177255 -0.3502590696691323 0.6196070655144942 -0.7439456143942801
Ni 2.8219134357443183 1.741835312331667 10.071317781128187 -0.20398978215452612 -1.126419835343376 1.6343641476735402
Ni 3.7436760838698313 1.0904408972503323 12.310700101865367 -0.8259121260657581 -1.217961135187483 -0.2965955187074053
Ni 8.0016340729741 5.050761673916417 5.970852423751587 -0.20012258588963602 -0.174339563388261 -0.04136673587224488
Ni 9.224572441677493 0.49917116491936603 1.3703977384624748 -0.1745737908862542 -0.15472384603986258 -0.6278081132680479
Ni 2.5189871833618795 3.8599132679190507 12.690709664897307 -0.2064621549544186 0.8532416671186466 -1.6339589418153213
Ni 3.752119825515349 5.3198942374514955 7.9336114026114 0.7307162601881996 -1.1731951438257022 0.8009228031102722
Ni 8.626293093222177 4.634799744849246 9.363280088527047 0.6360369289357433 0.234649416021912 0.8847549072355795
Ni 1.051161584673178 5.406316214027351 2.798997383030097 -0.8031969438564296 2.1862020760628607 -0.20432402556549326
Ni 8.112394994426172 7.60332724007483 2.6591514224509485 0.9583061982601689 0.2655386494016007 -0.391633518850861
Ni -0.1500364895761673 6.425107002015161 7.635204705069821 0.49804633649016167 0.3417960265034436 0.6332976756277094
Ni 1.779055175726988 2.710665735394723 0.7969085414768484 -1.0686638594798306 -1.0634509478203233 0.48228495989084685
Ni 4.800800710037682 0.03707757417912124 5.691613581413293 0.434612079294916 -0.040799807625181345 0.9807917809571945
Ni 0.4029153185002552 2.5392259521397174 10.408443995514768 0.2977239758848937 0.9038620603786756 1.286928920606448
Ni 5.911339959076181 5.51898680653894 4.578232292503863 1.3683822400869339 0.1249754111328364 0.058537848334892735
Ni 4.564244888106154 3.104975364654707 11.204539054564792 -0.9480094443198512 -0.46581473014996555 -0.8840463112043291
P 2.0824494847416615 6.449137029514102 7.148107529035587 -0.13633968710572006 1.0000897099548585 0.39558941817481547
P 5.069792856583089 0.6616532803466598 1.1308819263886938 -1.4313691253321155 0.3080587821519985 -1.0798111343459016
P 8.586498918349564 1.4772428981292682 8.95425101429654 0.32772874977710015 0.9778918337015804 -0.9533869065816807
P 7.3956037066889735 3.382111696601002 11.11112524801661 0.006000697668125149 -0.35003306970125525 -3.016723418765856
P 4.718984410723018 5.624936105811636 12.640591096830857 0.6544658250648921 0.054802806772492725 -0.25477755423035475
P 1.0929777641970455 4.91057871256206 11.052800711073816 0.20903711477044645 0.7533669077081799 -0.09507116737423627
P 6.091176678313483 1.652193106126036 7.1979798993134825 -0.5789142157808224 -0.9585414541994265 -0.9479245979155289
P 0.5458785362500884 4.343902547915245 6.596041284107353 -0.9157279585783261 -1.19510145698049 0.957002648957397
Ni 2.6402044899780788 7.662414709328166 5.366214994003991 1.9410296490224375 0.5109265348869395 0.08723007406326268
Ni 4.330591017294484 7.29748967543989 6.943032260074916 0.14549409991147846 0.1599239021835633 -1.0127840175930751
Ni 0.27029708843607814 7.170000409951744 11.888737686772942 -0.13344745315958953 -0.08806362570815156 -0.543562832864722
Ni 8.456528952710572 4.541712641830366 1.9598542194001631 -1.4991945696165212 0.9694871545776529 1.9718499768374038
Ni 2.361888655318552 4.777351072762713 5.585937627213823 2.0324179682284482 2.855136527057573 -0.8107104786246555
Ni 1.4985581971612465 7.297424147511378 1.6497058531823394 0.3273428271925911 0.021484652236337193 -0.9150993238553916
Ni 6.930308608584242 8.708315337455023 0.8354370912158979 0.2677387423767131 -0.7948776253574569 0.7418527364209934
Ni 1.2980240136465184 1.841924542568782 8.302921191030453 -0.9092503212737825 -0.23957950633367772 -0.484018911862818
Ni 5.449714424968172 3.814081162490608 6.840411779570674 0.06374690333965795 0.49542843925134034 0.1909853994750582
Ni 2.8103711591934055 8.749607293550788 8.512271689269957 0.34841970246754833 0.11229832988580016 -0.2561980887269652
Ni 3.0242543178594734 1.2501886258321098 4.548363726574424 -1.5572729618164922 -0.9741830173914253 1.6084188885626878
Ni 2.354849083569739 3.7083752526666736 2.9882074043845335 4.114631262712469 -0.47064737565191844 -0.7163931586973081
Ni 8.811072490495878 3.6338699979475195 12.576142506911903 1.9644050905235848 0.589720562367707 0.0011413126932948085
Ni 7.5231304167076996 0.1777660366962928 10.142987548769261 -0.24394086862616698 -1.3517459170818333 -1.285754954903005
Ni 6.215445714171852 4.597495631260124 9.46984628644103 -0.6768105113086796 0.14913452487754317 0.14903630873678203
Ni 5.6702439878119755 8.585497277156582 8.194039985013436 -0.819511364745737 0.7420573962326317 1.405431579530747
Ni 2.268071383953385 8.944459269550185 0.09802322826242986 -0.0875280649196557 0.1878846490625474 -1.3902016499548704
Ni 2.6261159853478078 2.829655092441484 6.599959854232424 0.7872982703483021 0.3444293503612327 0.01626248460544941
Ni 5.308464294492318 2.3061337492867287 4.900588511803638 -0.1755785780016847 -0.2894085140406628 0.07680836450930642
Ni 6.090923927732075 3.8653146414550412 12.60798346348958 -0.17805660722853206 0.8346153102667111 3.096132968343436
Ni 5.991461893382155 6.56385771007488 2.316668767965072 0.4641697383473748 0.26933616877082 0.7670045530962727
Ni 7.714022633598389 3.0114014827383024 7.645836143414406 0.7455705515922127 0.13054750590397515 -0.37830003496674847
Ni 6.353250947834456 2.0885997488892283 2.387954729167715 0.3118534733077403 1.183955724776316 -0.4767444896885918
Ni 4.549407492864308 4.693550213327374 1.9432485062017324 -0.6282367161650342 -3.17157736262568 0.5248452018505606
P 2.3199414199376585 4.991589954469279 0.9816055607832759 0.22229192289782362 0.3020511425053379 -0.05999155006228379
P 8.542585845113285 8.917648985655768 5.679501211884318 -1.9114534780272174 -0.92074649483884 -2.2649932753301507
P 4.382470414411403 7.515295148684086 10.056069432163238 -1.41190330329802 1.8529053452796798 -0.7405733554879375
P 1.1630177586446786 1.6881492166143222 12.498978690521655 0.42003186748789595 0.0804827280371001 0.37054841604578764
P 7.29840706643907 0.2846814048579216 2.9306364386196386 1.9353590810002217 -0.5783195196196169 -0.3644644146352368
P 0.815871387875214 2.272480477429038 2.9580243043982324 -0.9728087627517182 -1.0603579107172962 -0.6863577886774824
P 3.5749791124797223 3.4061136407020083 9.12615698195725 1.4260261158526473 0.8482724960388295 -0.32889294528853036
P 8.433743955853377 7.403083251672087 9.833045127469623 0.7828165804278647 -0.592435904416341 0.5103313245051017
