# total energy = -381177.41734672326 ev
CRYSTAL
PRIMVEC
9.14424425713314 0.00000000000000 0.00000000000000
0.00000000000000 9.14424425713314 0.00000000000000
0.00000000000000 0.00000000000000 13.38352578469081
PRIMCOORD
 96 1
Ni 6.15712129513424 0.4589340648632783 9.251629504366559 -0.2693953041435296 -0.4769342371018948 0.8963544391477208
Ni 8.863625511937125 8.18974044489761 4.379156540892366 0.9548807175183875 -0.5088192587359495 -1.0417179270186059
Ni 1.799715253196487 7.4529795556047045 2.687760345299831 -0.6706054109392321 0.6127028821954932 -1.1381674627976075
Ni 6.845481700543028 8.908624337025687 3.1628614336860874 0.17151649211716913 0.41505832553270455 -0.2399183777303352
Ni 0.010009289563490783 2.541852958004955 11.605550872585379 1.3933373673703746 0.3584819717995568 -0.16745697733581483
Ni 2.388485696394442 4.572560960756842 8.595448608278875 -0.16648690011306164 0.5820913279572234 0.9026628978642519
Ni 3.236705776706341 7.997702175097802 11.652419695587087 0.4802530170624826 0.7677401457107165 1.2797452583738154
Ni 8.235854867763209 0.6475907932044906 12.719368265302228 0.41630788166908944 -0.7832737225699413 0.3188455883548573
Ni 3.8331939619028215 5.400718569570204 10.977675984029016 0.3031196929791683 0.23874441202689206 -1.2015081318377823
Ni 7.69417728154678 1.9334589670240188 1.644353631953417 0.7294481921090534 1.2676063090184362 0.3121437508546495
Ni 8.701168871716975 9.000149075963177 1.6503760311006077 1.2470588238843876 0.3518372127895295 -0.48571558283895055
Ni 4.309682232115116 7.988786537125572 5.3774071481521455 -1.7465848302438696 -2.787084568584658 -1.6814688144708267
Ni 1.564571016831454 0.43523584192088594 10.720591962857037 -0.7031769171173503 -0.37006607709273037 -1.1234491827508264
Ni 5.364370199375726 5.475591640048791 5.219923147859481 -0.5039421331493064 -0.29539712752392994 -0.27729990370258695
Ni 1.1399488990073556 1.1095077104847346 8.148399317438683 0.8091883855531742 1.7507651868738041 2.1594877999964677
Ni 6.676093723314723 7.759576915164618 5.204438284944429 -0.37414667492000725 -0.901927305249808 -0.05454158269130606
Ni 3.381157400344623 3.275769987390822 11.734929124291943 1.052165604714491 -0.0018905321544935183 0.7261029297859043
Ni 0.88205195453719 7.2833812607626935 11.34777097443936 0.25151610987026357 -0.3485572564866771 -0.30987500942513085
Ni 8.3894415912315 0.9053953808095081 10.18112911255535 0.9978626203965525 0.34113139633625117 -0.9678316212521009
Ni 5.891160956239549 8.810113395615595 12.212801833057053 0.3733928274731182 0.39519346828797747 1.354671061148428
Ni 2.2278944819654036 3.6535918640437655 4.561306225150461 0.10658456733047451 0.5441593287981403 0.47659665125681794
Ni 3.668167789097853 2.361610763060713 0.8988014664076871 -0.6994076798829052 0.6818316186723548 -0.5161193919417886
Ni 1.5010642417369504 8.070078866944165 0.2113756027432705 -0.35594557853094827 -0.3159448697682946 -0.33098016683486225
Ni 4.505286757103816 2.873222074761559 5.828860306938417 0.2273207435709827 1.4884681843379526 -0.49274137933748036
P 8.143790618425346 7.565142853417401 13.206474831733347 -0.21363527566409013 1.204203162171442 0.69271895500882
Ni 8.767775545552592 6.546163159266083 6.080617805937243 -0.49650727413781587 -0.8872144245196656 0.36775465535073437
P 4.924083991452724 4.489037435384172 0.1896891134971763 -0.6760101268945713 -0.2702892767127087 0.7573089230750635
Ni 7.854311283772113 7.878799569402506 10.959956267862259 -1.2920382168085556 1.2104797392087734 -0.3971217956589419
P 5.01453885383355 4.574947608460177 7.37761452479493 0.148998256409995 -1.3190422562012252 -0.8924946990819983
P 6.7037001961743785 7.305336590784567 9.024859566724572 1.1640121917748534 0.8259437506346421 -0.5892389947455982
P 7.543690456819602 5.760142227146094 4.421368200387145 -0.24484435427704285 -0.11126783173875676 -0.3288728906838723
Ni 3.0209839147546593 0.9187862118315945 5.808115674831953 -0.5328022519141082 -0.25272607101796474 0.21687743675047164
Ni 1.4964372542354645 4.767726562029987 10.821651405090574 -0.6973016892834959 -0.01599329010446278 0.4147906736936147
Ni 0.21839106679690665 5.8249200521668945 13.364293511359122 0.7092439492470366 0.4563777531067817 -0.6090205482478995
Ni 5.3690429080975814 0.722466606956301 4.932712500161028 0.711712208281871 1.353318917995908 -0.7824933927604911
Ni 5.943831802106264 2.4838052966226787 0.2840586267661158 0.1719515227720587 1.023505003555005 -2.0077148090548134
Ni 5.776245240960553 7.845368213067661 1.0987312188434284 1.069738066380616 1.4118601087649103 -0.16267138302171338
Ni 4.168394516926466 6.2233347664746725 8.362616036815771 -0.7997717202249646 2.200382224217985 0.2750129074406231
Ni 2.6431803265898637 2.354423387218484 9.776143344455937 -0.8615905533039742 -0.19202643914506284 -0.47855248943160816
Ni 5.900661825832521 4.0062396367607604 11.718949557772483 -1.03662380032515 0.11164218435904 -0.8463184576362522
Ni 4.035318332916343 4.242837807933572 2.20199158177675 0.39273009434914946 -0.18185798325249325 0.6817305743181162
Ni 7.137686019930337 2.7145054303677076 8.972235356502633 0.4036459699307049 0.39503817365703575 0.8364161109208755
Ni 0.32339350707518943 1.1825793648807286 3.58345276872233 0.5903535679660156 0.7284233503889649 -0.43860345984249627
Ni 1.0498049409250496 6.592478755501311 8.001219965793101 1.5109290844446301 -1.0622767250065641 -0.2353317868009173
Ni 8.977032426943898 4.446690441077095 1.7003365230237653 -0.17696183150245653 -0.7011028081971409 0.9405313907752512
Ni 2.1165907430956707 0.6476392576980833 1.7070557135694013 1.2871922015701638 -0.5340320105561512 1.7175930709972098
Ni 1.8282270062194768 7.033523935682463 5.156980572624348 -0.4798737793461929 1.6772882007305758 -0.038491728317295
Ni -0.13269944115427146 8.22481776516579 8.987438576700203 -0.11185969968648478 -0.16400270023862723 -0.3574396465779715
Ni 6.673277296139904 4.244209444544685 3.03146230403915 -0.7884118151274552 0.16505993785854797 -1.069249042559339
Ni 7.378335091227968 5.928789520604399 11.94339137087321 -0.2704841663323342 -0.3693729076804477 -0.43340854590511807
Ni 5.096215241903254 8.681645910618808 7.2696904985349775 -0.9437367850864262 0.02533153678625315 1.164463163269343
Ni 5.799910544624279 6.666949479240641 3.1177190439655638 0.11407984726625514 -0.8807519567237735 0.43502859800704435
Ni 4.103827009519369 8.433032202732651 2.9082536738093694 -0.44381637150200337 0.3750113369131477 0.379952482968507
Ni 8.027795882345607 4.095834940198621 7.239550155642394 0.9738366897956003 0.2846324328082582 -0.47840285122762133
Ni 8.725940628913664 3.4878981614213895 3.8762441485791945 1.240615382251889 -0.6285035966731756 -0.09478886024712707
Ni 5.816809107673183 5.226365267809672 9.568765605221854 1.8200006241318591 -1.3443038589814913 -0.2453817148377516
P 2.0432813383537507 9.10912103259402 4.114564180911157 0.4952806008195664 0.08674285001419899 -0.22639566065355204
Ni 6.750015792409606 1.8376547218598558 11.381885405806539 -0.10969225972152077 0.8842031484971676 -0.013753602140666637
P 6.609194433668735 2.0349875089785576 3.544506518786405 0.3498641482235587 -0.1147935855038281 0.940083247494239
Ni 3.6249703800918875 1.8439002405624543 3.452187145038875 -0.7462873751535792 0.22634552414190695 0.421221516920623
P 4.041070062438941 1.4595127966643193 8.224671457260607 -0.006144936555473288 -0.28113393273669646 -0.4475537270572486
P 0.6033491115252645 1.6392703466726346 0.7302172682334934 -0.8235369409653623 1.4683570154103744 -0.7370080067341823
P 8.319570422261435 1.7028136987434341 7.353096063159092 0.1453082091529175 0.3151743101508572 2.086825853555367
Ni 8.425076710388199 5.660689428596372 9.153180743816172 -0.7068489666522988 0.47788734504378344 0.6641964220890948
Ni 7.9163549798147645 3.9242797771247577 13.022946195468881 0.7894497694736662 -1.8726676155082715 -0.31742453963761463
Ni 0.6377159240288889 8.827670344237832 6.714849772973906 -0.947685228211213 -1.5857957518465333 -2.6718446395720306
Ni 2.32296718760364 1.2970561564441683 12.645289829633677 -0.04244119988334626 -0.7129954458696688 0.1879550972891666
Ni 3.7287026848682796 8.63508341979358 9.403827217159998 -0.6457006772777524 1.0784301948379749 -0.9215461079220001
Ni 4.597360150685754 1.1856426866455463 11.134036156724978 -2.2451836968033914 -1.0140196897723892 0.6215567330416972
Ni 6.827440106984864 5.291947786308992 1.009668110410679 -1.5163381712753434 1.2148961231089141 -0.45551849043028003
Ni 8.182489059346862 6.917282305012725 2.021394590162434 -0.26935339516200063 -1.2670851464076436 1.0453660652941545
Ni 2.4654070775456245 5.972060083562957 12.73770338909517 0.545300641491435 -0.47226279976815433 0.8730059942297674
Ni 6.807222183337066 3.4699845872802615 5.183038010537854 -0.277877887693244 -0.35609444540398677 1.63171231187299
Ni 3.0479411462850545 5.56710723474221 6.361604881118875 1.7064180282169967 -0.655800998936548 -0.3316316843759321
Ni 7.909853422278092 1.0783807036565576 5.40203259744365 -1.4506505992695469 -0.42068672746307545 -2.418012994194713
Ni 1.6798159248971167 3.5850557547085167 13.256168311729542 -1.3639956809834637 0.5779081431138111 0.3437397804933758
Ni 2.5647318566783093 2.984534957875366 6.9806464298996715 -0.16714073164697665 -0.7858579383573499 0.6579753808800475
Ni 6.134342983145701 1.7378544420353186 7.003531729543879 -0.6174223991583496 0.49857366974854134 0.6162463765723775
Ni 0.5100321007492518 2.4747982162097073 5.911182278639752 1.0712550172457742 0.9008890937932807 -0.09012745021571575
Ni 2.702809942196956 7.869371853762127 7.125228816228215 1.3401456138387438 1.1513999023274817 0.8657379998134446
Ni 0.3908908302836225 3.2528270790089486 9.260222350522975 -0.24428539644977926 -0.07298847654258397 -0.4761598208297154
Ni 6.497378617130853 6.198050931609834 7.180756323943673 0.30571753561333154 0.4469184074660948 0.34284375104166764
Ni 5.356021504536088 1.206976208070381 1.9637511043682323 0.004467291742734242 -1.3676947271016058 1.0232959728679925
Ni 4.9155249789993825 2.861233970780437 9.754434909024067 0.34875368876819934 1.2363674056088125 -1.3894683713332716
Ni 5.271281794701566 7.339865256408302 10.554475796158437 0.4516278971266222 0.2154417327452096 -0.6021796140666662
Ni 5.157993754867756 6.503477827928266 12.689897281075867 -0.4831357379269163 -1.149695003821233 0.22441231167493608
Ni 7.3433309249123795 8.772411677298152 7.135198785542187 1.4652086995893798 -0.9730874703344016 1.5040896929252934
Ni 3.9463356938314447 6.454803016721924 1.3778336653213914 -0.5931779247886881 0.2862871948028618 -0.23791240304389996
P 7.860757975844342 4.154266659832008 10.617257432697867 0.47111300243442733 -0.9067447812431093 0.14560594289899442
Ni 3.316635614157897 6.003543715910023 3.6754237467706377 0.9548496071701362 -0.7292036801984152 0.7339954451601036
P 1.1445393095325451 4.75174242338849 6.460000605053632 -1.4864665805268915 -0.8521008686459842 0.15372214424822558
Ni 0.584490936971284 5.692749148320106 3.6734165851963767 -0.5981830913127634 -0.4689674168463343 -0.009149784820068113
P 2.009008711564089 5.430291054905787 1.5417689298083215 -0.9078272156740106 -0.7005618480920064 0.2373295339572364
P 4.098962271671957 0.22423972530668987 0.28828875407478644 0.02039090495152617 -0.5194659398165183 -0.26618913850140613
P 2.4806048111967494 6.8562261873300745 9.899981098678014 -0.5669310752770171 -0.8493898974727242 -0.7366017724346993
Ni 1.732898261747166 3.1749364079859137 2.2834841705405666 0.08412443855474545 -0.4763778503777925 0.23515952288911113
