# total energy = -340854.5803958115 ev
CRYSTAL
PRIMVEC
9.35185208544072 0.00000000000000 0.00000000000000
0.00000000000000 9.35185208544072 0.00000000000000
0.00000000000000 0.00000000000000 13.68738082673386
PRIMCOORD
 96 1
Ni 1.2818396410016677 3.363702159471232 7.380208472882066 3.949133465985554 3.868153486597061 3.8988450021436467
Ni 0.21490275190654293 9.39094267590579 12.11867027417932 0.187212048475555 0.19160374978534744 0.23220943912185169
Ni 5.18507819414837 0.36775783659595374 2.3366004188776595 1.3000801132764255 -0.016607783760010108 1.8728648191207422
Ni 6.693335522343922 7.710209142476384 4.530892771677996 -0.7062905230456675 -0.3414620402027926 -1.5557197583967592
Ni 5.440374400116973 3.1726251207390264 5.3852452329612195 0.5103161549964502 0.10420835378881407 -0.7412166454988911
Ni 6.917190802107666 6.312013759701708 10.56538471410281 -2.0255806335916406 5.431987132350206 -1.2524391143596947
Ni 7.476207103363362 1.5408859395961334 1.795346090001764 -1.642915893898293 2.107376166902893 -0.16320540114831247
Ni 2.970606415243082 9.209694433557077 11.824500290088064 -0.8975032080401834 -0.3483299709672194 -0.1759858407424324
Ni 8.66305998426308 5.217276620359949 1.5181356893943008 0.6532823462797522 2.2479746292849674 -0.08480603800280233
Ni 2.349035576395387 8.986175820462986 3.962414266634651 -0.14902730987571752 5.556232093074921 0.16402969682182075
Ni 0.2958748266989733 3.143466046406263 1.623966856999865 -0.6630391685562 -0.5335707546490165 2.159840041129564
Ni 4.744877171724539 7.272046823774344 11.594949732496016 -0.3935741875169996 -0.9251597934151873 -0.3897126476790643
Ni 6.87430320913459 1.3245495487879828 9.772187753362138 -0.6863035384007793 0.2037442418026233 -1.9590394553362969
Ni 7.219330434417774 5.7626392177908095 6.08230235025638 -0.25245841917887485 -1.5399943772417024 -0.4336396880793177
Ni 1.0108884348941787 4.697566152786295 3.6997534772673784 -0.9356797191099047 1.2295328991854826 -1.1002280074393567
Ni 1.913641405866054 7.045021266204698 3.9589793314189925 -1.7873761532286185 -3.114131204693069 -1.2863033712073073
Ni 8.600159428149494 2.752708265161817 11.586833260201788 -0.039403698608603106 -0.172643920853393 -0.705749820050849
Ni 3.2147084544457076 4.238708185752502 8.952792514611266 0.5726342963093816 0.042719650355713526 0.282784580966242
Ni 0.08678892669588728 2.0857248333186447 6.512674576296717 -2.3480581622721304 0.4306906327533228 -0.5698302512016832
Ni 1.6022901994001497 7.12642913729729 11.378935045394423 0.44747016620450675 0.8046218492284143 -0.14994365104239984
Ni 4.349967168221035 6.681505429646378 8.890706504801202 0.09388691725814798 0.40027602501720744 0.6653521329600929
Ni 2.5960366896978067 1.90792742433388 13.42951000803086 1.3398579073949957 -1.190806172039246 -0.4726073275917667
Ni 3.8942701271412106 3.6905867920008695 1.3128344838692358 0.8255418872105331 -2.212115710604829 -0.35815235637427995
Ni 1.564321680544788 8.118230442392504 13.683342649171662 2.008406435805199 0.3087054145970619 0.14164233026555606
P 8.945383042323309 7.054850062588192 4.610936207573299 -0.16428526447605254 -0.6683304988621265 -0.1947250690231485
P 2.9493122483875007 7.4024771027092555 2.01883384198447 -0.6631996053934642 0.4570364697367032 -0.5614880498845749
P 9.414228787223486 6.515697094842049 8.052586988106436 -0.2934171209794237 -1.1061777972648885 1.092620370295428
P 6.455489872085689 0.11004698245778027 5.703422356154347 -0.7977714019654841 0.1956468095064695 -1.236463821977361
P 1.313729456099398 3.4697054011523973 9.827360874221986 -0.8828330076225183 -0.5702094889179729 -0.653589593107526
P 4.729942264184635 2.5388781706721977 9.581344510928302 -0.14741162864916546 -0.27272591117865935 -0.6121961177624038
P 3.7156965144458565 4.069215221285856 6.682945614844339 -2.134664313194885 0.2405871216625857 -0.29158392442542685
P 6.08215459099581 7.8693121994434465 1.1667866122031794 2.1002143590471314 -1.1745627135971901 0.7077581087301295
Ni 6.671882374005449 6.272726629723536 2.721379561180176 -0.16337586528790574 -0.7343404872043482 -0.7784112522713175
Ni 6.668917836942112 8.26150081403392 12.529838472271507 -1.1965651860102102 -1.1145531658127772 0.21774441273645725
Ni 8.875178689848628 8.365035166804294 10.108759969311054 -1.348889678579961 -0.3945915730379204 -0.24640295701341433
Ni 1.9925055732323762 4.763524764482567 12.066507514457292 -0.19794846105645264 -0.16956528192806924 -1.0978422808159995
Ni 0.8016856367419075 8.342141833267858 2.401259123154993 0.2864131788577648 0.33509778854766165 -1.487779128690728
Ni 3.616146050599716 6.028559127557367 13.167616070522243 -0.8295247831176811 0.2862406578356425 0.05493650413687958
Ni 2.8783784514619044 2.622511782525277 11.086819663173246 0.7704763136949568 -0.6766287343151767 -0.3557046661647358
Ni 7.884883032914919 8.308409703338969 2.4539287532518888 -1.5719382771381507 -1.2749833182087977 1.0009736552217086
Ni 0.3262814380798413 2.5382141891848256 3.8908295808143913 -0.744953229723188 -1.6650044982672163 0.10030953295504015
Ni 0.0642771487183928 5.508680326648885 10.16356462720467 3.7360802880771784 1.3078651565384831 -0.5201742787374525
Ni 2.3146488168310606 6.147608202687603 7.773186383775838 -0.5984065201774791 -0.0008160681433921429 0.37334346229242155
Ni 2.6122995602124557 9.231493600417139 7.188174739696927 0.18511299985468121 -1.173768756940985 1.3894503736111425
Ni 4.268372260089746 8.168973590990829 4.428675159660045 2.2803281059150082 -0.6453121835900822 0.1625194308248814
Ni 6.637692003331753 5.917655515462357 12.856857771469006 -0.6424405184692419 -1.2966255790689216 1.20192336499833
Ni 8.884109708446381 0.03707448181039347 7.647632160439741 -0.21019179720017997 1.1489005329443955 3.2620267149571887
Ni 0.8100143960750565 7.624031826897035 6.487011224217188 0.8872339649036913 0.0326362979777825 -1.564328840222009
Ni 2.2870327980675422 5.631152179587265 5.447153557584523 1.3149225776058968 -2.355046677774822 2.1332432644776422
Ni 4.900061802730914 5.762629865938875 5.969449812218155 -0.8441232497571463 1.1403292463356167 0.645171801357476
Ni 5.926923200729761 3.1110618794521177 11.310526248491227 0.5156008004341572 -0.4908485331901417 1.757858860495792
Ni 6.35638829713242 1.3765364936936373 7.2790176942065585 0.6743898176823289 0.38056260574868006 0.7321941302853068
Ni 7.163191267253061 0.9005524802116125 11.83109802162808 1.0839542099799977 0.7728155033510948 1.7622634173213907
Ni 7.666928771722045 7.919120162848289 6.478237316731941 1.0597277333324653 -0.06158640535322942 2.2020061329746525
Ni 9.130633877300124 4.704131152844536 12.862346373369551 -1.7604032241842005 1.2584493251095163 -0.15523215313484878
Ni 5.751856532509964 2.525346040922516 3.0969340367341873 0.3430093300852544 1.1610430818442004 0.09877021349237829
P 6.218700981096091 6.130438202535276 7.985847496773604 0.21283926212535603 0.5925675448981987 0.23935839146180715
P 7.981291274510961 3.9883871650132217 3.171639435545096 -0.7780199303701698 -0.4047661995780771 0.5748063642600358
P 4.749609208803557 1.5102679763615383 0.5919956071038323 -0.7799048060977085 1.3925272127642532 2.025673450415763
P 4.93910578455878 4.372944668424883 12.99267752267395 1.0243298134491456 -0.1552774045504874 0.8207799470455155
P 1.1785203808257958 8.716711558813133 8.968039774005794 2.2702388399998066 0.7876839358224951 -0.32929120916821353
P 7.636151827004559 3.4564631788126943 6.756707411795024 -0.11848440409185401 -0.46362235048433703 -1.1635576207359382
P 3.2414921583870275 7.428334973309028 6.168601239910883 0.3871993943389074 -0.2615444406405431 0.046635440470351945
P 1.7719421453496877 0.8922676745825571 5.615768383154489 2.741994618224555 2.2507838165989886 -0.9330566796647607
Ni 3.7486804962199605 9.088466376926029 9.36048462933928 -0.6320604607864986 -0.14660353092557332 -0.21314419496028456
Ni 6.642536262633989 8.414553222799155 8.757446355470815 -0.7345348626033414 -0.3107049615255939 0.25010174602124025
Ni 2.685561968269822 1.7857641825093493 8.504024260629949 0.008555602879494943 0.3881147070643251 2.1118375451083566
Ni 4.425932261487564 5.87686273732268 1.6487268201824898 1.7269351743337418 1.3370631182586779 0.48212143772978905
Ni 0.6690361633428651 0.9747248234622365 0.7739648772367193 -0.17075338869889944 0.03509401548965569 0.15072732328595975
Ni 7.951571089062108 9.271295082251726 0.41926877223812614 0.9166728389900988 -1.3854978167212977 -2.118209767183287
Ni 8.127872201737302 4.675748282222363 8.378511185442367 -1.4411370033521567 4.423945000317491 -0.396064300928705
Ni 0.6532147002395394 1.2557012148438509 9.995729746086067 0.2944039103727253 -0.020650843481132178 0.3263074439495413
Ni 3.9716660537537667 1.6206291810443285 4.2955926955164205 -0.8368202883378298 -1.019198405759851 -0.1533904719404197
Ni 2.061709277550031 3.2671068808364945 5.134273323327276 1.143584777158437 -1.0601262543224645 2.5077077277483846
Ni 2.1705180748116417 5.158752730951856 1.7014375984278995 -1.086188241516839 0.669309574945944 -0.649380697232501
Ni 4.353520871956266 8.664228965754933 0.5503508752528932 -3.4475593188477918 -1.1865337699161371 -2.456955951116814
Ni 6.595047558508982 4.192276240896129 1.3234039469259677 -0.9711923101942178 -0.719240398338116 -0.8036443158064933
Ni 9.214866007677031 0.3385576141146772 5.5068305303361775 -2.8215077832595346 -4.180562575297955 -5.054391836759966
Ni 8.61418720605172 2.6739843755745167 8.636723298844245 0.6343184035827399 -3.273534972707104 1.2054097808850337
Ni 5.0992375452386725 4.801371709262777 3.868669432469646 -0.682300073668341 0.36809609785055314 -1.4795387430588067
Ni 0.03421842622949997 4.741819116141854 5.949370450928906 -0.2802080784883174 0.44651577271103743 -0.16202809301075966
Ni 8.587861742855207 6.9933803398206305 12.002217273146188 1.2756749449591835 0.30769265706183135 1.0288477559241571
Ni 5.576471901324383 4.644036152311394 9.730961049292686 -0.5694528132576064 1.0295674076990011 -0.9335966113286308
Ni 2.8230996546751936 1.1018726023680254 2.0842734258983606 0.133232508935306 0.6448964362089022 -0.19121577031830939
Ni 7.580424141324976 2.31004770567913 4.967807553331931 -0.6693982780050084 -0.8028932965730818 -0.9775681318135746
Ni 4.827201524306744 1.1658860288618564 12.276964395954021 -0.3191060411050956 1.002966517282021 -0.08080617281478987
Ni 5.610924123852253 3.637533735974645 7.567232418985722 0.2369433542624113 0.48914646289737046 2.1710425947136027
Ni 3.960743090693899 1.8884007574939794 6.668177170268874 -0.10910501975948306 -0.40310243872240903 -0.2773294713889417
P 7.759484050320942 4.642951337486956 10.68653234480722 -1.2469320684985363 -6.078288162216119 1.8540723690045875
P 8.078625349448549 2.7884790988124966 0.11448443620085152 -0.7930979077492147 0.05684451979286984 -1.1612665107089162
P 9.13852684033311 7.165127100603567 0.3935371516394737 -1.1002110381584924 -0.42539467446170603 0.9116494176335783
P 2.9668376189133503 3.315484010895309 3.3048593719121624 0.8315574972769937 0.20453434180408644 -1.9662094907221748
P 8.803571559583725 0.7305133675919732 3.0451406751635837 2.542871934354343 -0.3085732598945718 1.253357769519222
P 1.257234918561161 3.444464752780323 13.617807676368038 2.242583283066067 0.48523247255494495 -1.229618259810437
P 5.259500231845653 9.103635080764304 10.829359438666925 1.8090407826862456 0.1480639175211837 -1.3883620256429703
P 3.3436143815152426 5.8609926445892935 10.754941141710416 -0.2507337231782843 0.14093270579304115 -0.999989179821252
