# total energy = -340872.39665551274 ev
CRYSTAL
PRIMVEC
9.23700814516362 0.00000000000000 0.00000000000000

0.00000000000000 9.23700814516362 0.00000000000000

0.00000000000000 0.00000000000000 13.51929511153864

PRIMCOORD
 96 1
Ni 7.9622919258063245 1.0522799866216277 8.852245346900432 0.5164230392251364 1.5269974507614026 -0.4275292043062056
Ni 6.8470617275552526 4.439638725859135 1.1702365827343224 -0.1384798733771744 -1.0801381786680173 -0.8526441427439637
Ni 5.973637932831049 4.506283740812392 8.082388736744337 1.2837582361879505 1.337532858806245 0.5322790324207866
Ni 0.15683608778833638 1.1093924089994502 2.388386451271007 -0.6905332602114107 -0.04623049172244941 -0.9067218984249739
Ni 4.033801528771637 3.1518889234109757 8.518940833862684 0.019282502378695825 0.5893125282960109 -0.7537332899086632
Ni 9.16821107164036 3.9013335926046704 1.9776702663944148 1.2200709824416343 -1.064467819120612 -0.8467007806763355
Ni 7.988090890014841 0.2116411054904382 0.007611294847052504 2.441043393651615 0.9982194895153389 0.5038763129083774
Ni 8.200301918917978 3.510561956070015 8.334983965976738 -1.4970088748191122 0.7212312035158998 -1.9948212409215966
Ni 0.9934310066816139 5.20047262629848 7.794792635625468 1.495405020667102 -1.2985950440904668 0.7235446821404248
Ni 3.9484792830165105 5.682330401773409 7.942842481109779 -0.0920632337858479 -0.24928259255405458 1.8306102813269054
Ni 5.179735542643587 3.512510964823326 6.102920948532889 -0.39463142513692034 0.16685636763733847 -0.45052078010537244
Ni 4.345236500935742 5.128830389849767 4.311654433525615 1.0998071178518543 -0.16897161420812834 0.6435131827081304
Ni 6.981903574857768 2.843428267922539 12.503766820876363 -0.4587866196585905 -0.2353194455057431 0.09999868658284068
Ni 2.100800510861277 6.250794367158488 5.422521992752097 1.5740725498723342 -1.7416164304950004 -0.3594525632429423
Ni 5.42145881309567 7.809290120167274 3.682480231026152 -0.4203020904301471 2.269116039249273 3.921714964763284
Ni 1.2415370498755827 6.871484377525649 9.786266687237642 0.297262719977759 0.07985820707922375 0.23747351573426842
Ni 4.07281865187109 9.190980297123351 11.96092631654192 1.831545648656981 0.15986708080369885 -0.6335874389539862
Ni 4.141274120453015 0.784631204947187 2.881151286157828 0.4611857160183864 1.6447043532572836 -0.3541141817491643
Ni 1.8509209620718785 1.1062980112157577 4.463489605015172 -0.18488391456301065 0.053449378068391826 -0.21085976980148202
Ni 4.334235224039092 8.268249352042877 8.983923518856933 0.19247921041176527 -1.8092094470536262 0.45101417480202327
Ni 6.370699972024494 1.5505703998792093 2.8831926649942337 1.1656998638899214 0.544880523234881 -0.7156434250154772
Ni 1.813686581576164 0.3688097255779177 12.465399059461069 -0.04492977063315488 -1.7097913155646038 -0.5503896259785682
Ni 4.780964656912879 4.521875810838878 10.588758571452138 0.4225474348208981 -0.2567372490598869 -0.6045031199935202
Ni 7.985439868630006 9.083729393641402 6.315228042322444 -0.4775698138033646 0.24826186459902408 0.8426703193607036
P 9.07766991619035 0.0025244743709944774 4.3092481928609825 -0.34156771254272145 -0.2582359450926004 -0.0766633542910099
P 9.134338962169315 3.4185521162987893 6.2233780027949726 -0.00750247902463224 0.08765379186424259 -0.0580087153043001
P 7.69486206122882 2.3040793527290977 0.9089779634084143 0.07270154142978447 -0.4163220227364766 1.1714928164226146
P 6.0890912996918605 9.032168413257606 5.524105991636151 -0.6537723985422934 -1.3589488625881756 -0.990885931968403
P 6.2964621362408035 2.329952213004091 8.100369497119669 -0.878573718125532 -0.215462558680816 -1.9821094497818827
P 6.629151464525136 5.5424636219505095 5.541720966482424 -2.2598839791280434 -0.46476880538395443 -0.369377535666138
P 6.463504194510339 8.169986057646101 13.179704301643653 -2.1473635059291083 -0.07803272383471077 0.3553102589397945
P 4.963728103325233 2.51813778329414 11.765017683604272 0.2753787754204741 -2.1309503546784074 -1.4436494853613655
Ni 0.9753726554364831 2.7186547596774115 8.36012987369777 2.6598306458302905 -0.5502988660369749 0.1581840366743211
Ni 7.833509555954861 6.736217627840896 0.45003812925026027 0.6549934154335881 -0.03333203849322647 0.011128762923309866
Ni 5.1164989837565455 1.1986126722611978 9.541824041539234 0.3857233240140131 0.2779653052007277 1.3567513407162248
Ni 0.9665513125008822 -1.0160709140482712e-05 8.671532516332793 -2.0844848641270164 -1.4145461402375057 0.3468022214687834
Ni 2.133213173019417 5.0439977055350464 2.8476098615842638 0.08107999530146681 0.4126733702402957 -0.6191172703622692
Ni 1.1511621605751436 7.306371965746618 3.3953302774086316 0.003985724120625393 -1.0999798959842926 1.7606724186851872
Ni 4.391172143259033 5.21405102851349 1.2206115312511738 -0.27453776757641746 1.0470971890526484 0.7979040708886065
Ni 4.271525174625694 7.12895674714548 6.169246362998636 1.0916042703260878 0.6231716429373009 -0.32086184745393775
Ni 1.914961140681848 5.005664121050499 11.657580192554471 0.16189233876384376 0.9789346731437979 0.974817822761947
Ni 7.465590277977983 8.640916452290856 2.606196030910549 0.22711531242839594 0.24850354829618493 -0.10092145550742619
Ni 3.207209366176749 8.449802750366684 4.492907629079363 -0.5513661309592246 -0.36302279709270385 0.7191606941401163
Ni 1.887444092927759 6.05353805470848 0.3932914924014953 0.0021985503132155686 -0.4428370383078696 0.531729844785536
Ni 7.256713809074586 4.12842544189446 3.507229243471937 -1.4210178640047784 0.5072308312029071 1.2285437957993357
Ni 2.45822654739853 3.5959303868666885 4.639619032059622 0.1222191885439379 -0.56621296616407 0.4412866631016142
Ni 3.8537537628022833 6.65501508779182 10.763170838651847 -0.7326867536510091 0.8899341374436738 -0.2963785176005928
Ni 6.973534845329333 0.6254036557075133 11.060487043614835 -1.4180271568075706 0.9503730594560212 1.55454887801711
Ni 8.387489892310597 5.646435387482577 6.615396635451415 -0.18952732687229293 -0.15973801142500232 0.2226498204578746
Ni 0.254819500833335 8.191249650774639 1.61369057246155 0.1084445033573487 -0.9330024293880576 -2.0658991307050294
Ni 2.1643880760640797 7.1941146037609025 7.634805804302751 0.7991019478514495 1.6125383100477002 -0.05192754210722669
Ni 8.915043147892769 6.543515160487486 11.513788607900853 -0.039042715724758564 -0.9777990168774581 0.5157656081467955
Ni 7.961571439158182 5.755469033568265 9.292082124173648 -0.9397307492508268 0.8415526608164926 -0.3459175048709849
Ni 2.0041721669352865 1.776581519196783 0.832163926007196 1.0406856290993496 0.2976694684978744 0.4943357204077938
Ni 6.605550908294288 7.110815262825564 7.3363534473176895 -0.9621438268387041 -0.012705620492126507 -0.13947103364585012
Ni 5.163857125359504 8.352758741066767 1.5144047412449078 0.6111879882128636 -1.1133884560807148 -1.1011785442780841
P 3.703587718714258 0.26810324248326967 0.539927151913618 -1.6472214632521824 1.3199228590339656 -0.5446954038072684
P 0.3093492556878128 1.9261102097114506 10.25093808505186 0.07013660891608565 -0.9400943032378326 0.4798452401011027
P 8.950319282626864 7.339237241311925 8.021470666942989 0.3592031662362975 0.7939782534716391 -0.021306989007892338
P 8.532335419612334 5.86989709250672 2.3185324996310195 -0.34716011902883437 1.1141608154703648 1.6456502621103208
P 7.442211409946563 4.648653749887175 11.230883983302391 -0.5302018381767836 1.147847409089533 -0.3077453646766377
P 3.885178065071303 6.204609325610839 12.83617903891141 -1.1236499859077227 -0.4545373574639333 0.5118883845795764
P 2.635475499850096 9.120474212696712 6.696296201627939 0.02228889330518742 -0.05335141903794682 -0.378960808479199
P 2.4357898542146827 4.753105839851337 9.62763123023061 0.39504588696651965 0.36278188472649137 -0.9796746366336161
Ni 3.044693441978883 2.0407045347994766 6.533929916964686 -0.3208927006918732 0.43980493634976514 0.050414705007126075
Ni 6.220589349986326 6.3406796950185225 2.4214549410191233 1.621511460080588 -1.7784690805469758 -1.1190909057821308
Ni 0.23236525733369912 5.075237267637877 4.62700589721296 -0.350652448452809 -0.5162934556258076 -0.9769130147280789
Ni 0.5895788426798333 7.829075791966287 5.974825812099653 0.45299263868463274 0.1662058785375331 -0.36379978446804445
Ni 7.271585392452929 8.279989589604291 9.38126913420548 0.49687854143430554 -1.0088204049596368 -1.9590461402045163
Ni 6.68996792723508 7.357055430341007 11.287421863763361 -0.00034349938234779555 0.3065084069457431 0.3972521505892191
Ni 3.7744078614234224 3.9140714270635124 12.768352610595363 -0.7785984285814591 0.2623047158453353 1.4099829463468554
Ni 5.714484427698881 1.018176951942844 0.12151376801269466 -0.10779015760280146 0.9324108185506458 -0.2796339511524023
Ni 2.487905055097049 8.860295399642187 2.194141403529906 -1.5500972700036595 -1.284667121155465 -0.8747013796543194
Ni 8.963500493484563 8.874501918422244 11.12782668159297 1.716239899403425 0.38814761718478963 0.054245134496809795
Ni 4.994967665428063 0.2939844160657411 7.305083403087439 0.2883168236383809 1.1435595803474563 -1.2026437881041223
Ni 8.743825961867326 4.441476890512732 12.834881239243922 0.5207692320089741 0.6758250074669586 1.252461740067514
Ni 8.994130413038963 2.623097908715326 4.024491548096462 0.3952114660101065 0.13807852417369768 2.295551607732982
Ni 4.496049135605433 2.8370362581723447 1.477983217480432 -0.05711731383828227 -0.13897403940477354 -0.029131113038001442
Ni 0.20862337487571486 4.210597867816036 10.201092417111147 0.48411635667263075 -0.5600333197159194 0.7852768690428992
Ni 6.729770196040843 2.97305120553017 10.090409965042205 -0.5009946204852082 0.12973657996690557 1.1425306248623097
Ni 4.698773756974682 1.3043764174053134 4.995974499333802 -0.6206681597891568 0.35868586028024674 -0.1496829411818454
Ni 6.952613021508248 1.9464316279924159 5.304823109171238 1.0739528757929115 0.1805310369109536 0.5734416227020254
Ni 2.8800899539030627 1.0359489559303792 8.723379843974183 1.1472154319324888 0.18018676619765744 0.264329459584848
Ni 7.7895875814430475 7.105263820831537 4.458811984007227 0.0336264298051937 -0.2563060750597393 -0.058994990476969364
Ni 0.6035174882189136 1.2803694328088455 6.598686887419476 0.026714790287024958 0.09445718793932119 -0.9576827057435571
Ni 0.28982683862562175 2.050384919507864 12.527614928929907 -1.3367599851959624 -0.07880174079025139 -0.9777488803658129
Ni 6.000840922302613 5.756429682432456 12.735622195351377 -0.3247624680599246 -1.434920847239116 0.315749723038353
Ni 2.8612464569516223 2.7738643583434706 10.539439412985065 -0.5304247528208672 -0.4185503978463631 0.6665793204989745
P 1.3960629618857054 3.6548532628731794 13.42057776733126 1.524679344151187 0.9698206266576717 0.17942289144843937
P 0.6303981061004761 7.688747161727911 13.064911380876971 -0.06498283262928808 0.8906028813759242 -0.432224810009662
P 5.050251160160599 3.134966724187917 3.6073260840181556 0.27399500769907004 -0.1450647256835437 0.324241562559448
P 3.6105525710206745 6.728938865292986 3.1383696380491477 -1.2484389920613659 0.45233263650313066 -1.0578436289358748
P 5.764687567861176 6.542175794282604 9.576879411774732 -1.097491325234484 -0.7737989503102867 -2.1002130734955506
P 1.8002374974774888 2.5942876797979033 2.8323198417294986 -0.15692162502212975 0.9011042951278804 -0.3282527406013702
P 3.036638770732973 4.319465247752153 6.583423654888809 0.01153242611963175 0.14779472302019708 0.07100872710839384
P 2.699903632809066 8.702942963089347 10.380953595512645 -1.2375660539026043 -0.5197479898333113 -0.12407681057796695
