# total energy = -381170.09982083284 ev
CRYSTAL
PRIMVEC
9.23940356584956 0.00000000000000 0.00000000000000

0.00000000000000 9.23940356584956 0.00000000000000

0.00000000000000 0.00000000000000 13.52280105184295

PRIMCOORD
 96 1
Ni 8.853769147902389 5.843026406599568 11.637168053932216 0.023366956860714595 -0.6880896837669247 0.13884702690860604
Ni 8.511070437669856 6.267955806785716 3.8190149871266663 0.22052943168076214 0.3934332910637611 0.8349518676705232
Ni 5.693708408808514 2.352398293892159 11.472690043098927 1.1272868113293617 0.3194361707510047 0.9872033409104934
Ni 1.3571390027558123 4.005170486136266 11.67853378674023 -0.20662619133610868 -0.2944105952409446 1.0246473446895643
Ni 1.8790728988771301 0.33600753431518376 13.11222124637983 0.34615687457530064 1.43863634841749 1.4086907098979933
Ni 1.2870304100178314 1.369686112526263 1.8779928126236944 -0.3544718221988992 -0.4651691261461666 0.17542893979769789
Ni 8.190989786876251 0.442921290359932 10.523876308740988 0.9965207616566774 1.0062241049873701 0.71796435983917
Ni 8.014101409442322 8.851098960329738 2.288017207300497 1.4268496401952073 0.14802123720870639 0.6926017127046653
Ni 5.092472713600468 3.817508964378078 9.860650684532292 -0.24317750809758118 -0.6354440325467507 -1.4710340480219053
Ni 2.8172419166175904 0.5538310883602913 6.274673776972826 0.1532706585331038 0.19122502628969001 0.20738055300362992
Ni 4.965883648088728 1.974386583996399 7.43582285977672 -0.8279183578625096 0.10755104500880186 -0.19780782171353029
Ni 0.07049202797765254 4.090450179200522 4.6600926585403215 0.769400821242591 -0.17897449105711113 0.6158985063146554
Ni 2.4919594817291655 3.5197969091325283 3.8594346050300463 -0.5239604852527621 0.8515763636010817 -1.2171761773923424
Ni 8.454562246686 3.326277605640565 7.442422565600751 -0.5266524302626285 -2.190583235849692 -0.006855075248620453
Ni 5.411259847922894 4.3684361082605685 6.730527460223552 1.7504846795189077 0.569527889469916 1.7903234087824007
Ni 2.367172099873713 5.570999892710316 5.92237809846447 0.44874954713756265 -0.8558459375107133 -3.5027398206746767
Ni 3.7247638333944386 4.3277550152419435 12.208925432702395 -1.1424421789135615 0.29884446264258213 -0.03941218324903535
Ni 0.6299508369279154 7.90966843320123 11.839036082305313 -0.6826510292498565 0.3109132208816581 0.2148416372673655
Ni 1.9871184818341612 2.92591577900348 9.175490716733723 -0.344883921400148 -0.8039248231613897 0.15909343586246794
Ni 3.6540639188410604 -0.04636147820778098 1.327940640239923 -1.2964674562245027 0.5352028909358009 1.0451691187919998
Ni 7.218939876994228 4.232127190408245 1.86728249624232 -0.8834824682810589 -1.531213288614963 2.0831139519214186
Ni 4.032750105182507 7.6215006816323205 3.9142427457946356 -0.5633868095691845 1.9515256634577551 2.822822902526532
Ni 0.7761200460519809 5.068653531724017 7.574404670856976 0.7725722769920372 -0.4653884412458243 1.271688963728242
Ni 5.117788678822143 5.938377049332299 0.3838667198085244 0.12101359827161094 0.3077685046050893 0.1324524362361719
P 2.7300034700398332 0.5229539262528771 3.409733440480456 0.6585587641873432 -0.9184854667188054 -0.32776680210388714
Ni 5.253663344716285 9.125074988329127 6.142759119361169 0.9472825934561557 0.2357321075631295 -0.039156358484487404
P 0.38569150197322544 1.625284967231523 9.118059509353646 -1.9219196676658643 -1.4139108206463522 -0.43355149924088565
Ni 8.667207115144704 2.5287415465275185 0.9437588567766327 -0.2836325307888341 -0.8159524437498851 -0.9469388369634917
P 4.596150443608524 8.828065127739361 8.357104096045582 0.20998302362348353 -1.4818432228222675 -1.4839466423185153
P 0.3455684689178805 6.169990412900527 5.775263698376106 -0.6961868589527623 0.7093552780139203 -0.4423603557817672
P 6.936094021763889 6.855175327088185 12.622033016282291 -0.2150432117552103 -1.0106173489590595 -0.561516332019349
Ni 8.378392605340203 6.2384821100495325 1.5496863210137173 -0.06203274886202865 1.941567780914095 -0.336740209247091
Ni 6.678360864881181 0.8009444750146072 4.0653190020461585 -0.18277972373581425 -0.7622734661691905 0.060019317976425665
Ni 8.493136755737275 0.45733475961022857 12.900115959077675 0.5633970939818297 0.5176152597610247 0.36908957211207405
Ni 8.765070875592873 9.137816125570254 4.7987012638903375 -0.29450855427138956 -0.3690492057924418 -0.6110530052968961
Ni 5.3229219123446345 6.1956020390299 5.316705641760275 0.541591568070964 0.23558246935914265 -0.8201682816034456
Ni 5.794427144896645 5.048419238353408 11.702510038473898 1.9998642026621432 0.13610417405614625 1.2492157223263904
Ni 2.5557852801785557 7.203556270390546 13.316537716644804 0.8916151246905224 1.2954829808240462 0.37451357134112273
Ni 3.7404708191159157 7.524754888991387 6.488185301467219 -0.6092691739235959 0.8864649479481508 -0.8581483603916448
Ni 3.5555718789640336 2.25764821237819 1.9051732894445421 -0.5413113178263838 -0.7119634050607286 0.1899926965444857
Ni 0.23857340612351524 9.207573620980343 7.189924454664977 -0.21166246820843546 1.3935291716662064 -0.1670422583958994
Ni 4.908479234978413 6.208398612691221 9.88783116135314 -0.18258714810903393 0.7873905729517924 0.04175188712580551
Ni 1.4542081745145408 2.7654643001569092 6.632446573796294 0.2130161540228525 0.228407034656626 0.538898337509517
Ni 1.602731583616155 5.654773563025983 3.212855613865106 -0.2931039606143791 1.3548307266547441 1.4603212895900914
Ni 2.9981956315323712 0.831058462404025 9.069918522057655 -1.2070000081902892 -0.8173236130657987 -0.8545555008340637
Ni 8.61955027258507 7.01868504844876 8.133667604455889 0.6165507951866737 -0.5152899540619578 1.351857245848717
Ni 7.367527961919401 7.796245517485435 6.46767197811497 0.14019274230322307 0.995426500151234 -2.386464272854154
Ni 7.131073150987612 2.2592558685637996 9.339563117759262 1.648228307250142 1.6225740970171476 0.1407810107065253
Ni 4.449899927734841 1.3779368997317212 4.530043436468174 -1.0513801326987182 0.4485608281655242 -0.7650075772709019
Ni 5.563238793883233 8.491464423728107 2.4212438601900663 0.6731351193396213 -0.2608816102455636 0.29772474721584213
Ni 1.0992210578057933 1.613587882570705 11.255932716202206 -0.9285148259303493 -0.20706867819016597 -0.5668948227224431
Ni 7.703232443804193 5.2901589880103055 6.635111217726926 -0.5631291850324237 1.0104517699154727 -0.06372556318341929
Ni 4.8908227351468 3.472980852279161 0.5518686390854431 1.678995927450302 0.9697620055055942 -0.32345326233019783
Ni 2.7903737316304986 4.868019887640561 9.79181990127977 -0.30495777462917156 1.940917548924606 1.3384522852967207
Ni 3.600235154833222 5.649969073275884 7.689132190327991 0.38273415947870215 -0.09750574495765787 1.68059129696188
Ni 1.6965577247935666 7.336714551695209 7.393618189143111 -1.1005874476613045 0.2729359703069364 0.24872492027837165
P 6.556483895085884 4.979373177002468 8.605477737318962 0.6555899113670064 0.14604508731894203 0.4785967124059823
Ni 2.936744359747934 4.8107725443874605 1.4251678057962027 0.6653205083912089 -1.4286573828279072 -0.5983471276944534
P 6.890488326751411 7.681676915752308 4.151580843688174 -0.5816755805760434 0.9513179398677939 0.018499858576400397
Ni 5.293060160667096 1.0917186622729467 9.612236389884103 -0.5975436579565515 -0.14081289238572522 0.316585588676087
P 3.4612375706015155 6.703048550673997 11.556490507684355 1.2782771584687211 -0.5519042628508818 -1.3648168913331784
P 3.6422097643230282 5.521873985015555 3.746451484914452 1.1957378050129084 -1.175240456390505 0.36246486770670483
P 8.647046737001022 1.869168258469234 5.655005472050458 -0.17240557959034178 0.5237457981387948 0.39272315237061395
Ni 3.4682410383526214 1.6332862905461105 11.275690256359152 0.6307720809923781 1.705026804296425 1.0074294381493811
Ni 6.122000951819731 6.01692121734305 2.8390986492191934 -1.058161931507242 0.6680263373581463 0.14315336759344377
Ni 6.270699909585292 1.4873314355801264 1.716151727510941 0.9685605289983253 0.9642811848966812 0.9641480017529267
Ni 1.5158072767528277 8.010063790171566 5.075025948225253 0.8446415841544614 -0.46784924408149103 1.424759847545714
Ni 2.8886902228435796 7.410398793535667 9.352829053111552 0.7901007727941037 -0.5294161090506947 -0.12236317032096991
Ni 4.822913120409825 3.6345133413195048 3.2210768349797942 1.2253656551816703 1.0926643361594859 0.4589650542179837
Ni 7.225379741140034 6.619542823055931 10.192229772814358 -0.06949049069165451 -0.833143867927507 0.08219816806631006
Ni 6.058452335471309 8.78729164068708 11.092780559751878 -0.08496904594322785 -0.7281752389339008 2.1793786253831238
Ni 1.2428106255101905 7.955403479860825 2.885157074996584 -0.2910511918504084 1.2132038230081559 -2.214184934429032
Ni 8.013547045240387 4.685347643699783 13.433293285154562 -0.22795220650739448 0.06421150168090232 -1.4736995106692103
Ni 8.514960226486764 2.186837424984425 3.286662739770327 -0.4416005947976072 0.19393342635978858 -0.03824875906855348
Ni 4.6271116842865645 8.265727320700385 13.002646542165795 0.14078898112632526 -1.5438204358560121 -1.1110793483315637
Ni 3.7834710023793003 3.4304980756042482 5.689975689848822 -0.8514326389343659 -1.1647734954209101 0.16522166024739285
Ni 0.8114247302521788 8.516198306537751 9.460673217075215 -0.26856895158749233 0.3434916690383117 -0.0367829731563044
Ni 5.671312095050361 6.917522820999083 7.659598437469931 0.17866287335396328 -0.48774598300541805 1.2376694122496879
Ni 1.3627103629852542 1.7267058979754368 4.529854028699179 -0.4936788035500853 -1.1791924990597176 0.09650095784222736
Ni 9.18146306706923 4.020064404361573 9.64750411647084 -0.99004003902834 0.07514820319806413 0.48331545803789017
Ni 7.008327677275952 8.55599241683328 9.061276908089832 -0.7016879912766496 0.14075324279238338 -2.1410565898744736
Ni 6.761968225936267 8.576781074405824 0.4097324295304509 -0.5398866695647153 -0.6289671665731555 -1.158316941162289
Ni 0.6197403722686188 4.275487710402887 1.8627256225024187 -1.150063700014561 -1.6298639458103412 -0.09433454631852786
Ni 8.236992776233448 3.0325015362287506 11.681901549266982 -0.020866301926047933 -0.48768479075017945 -0.40835083160554186
Ni 7.101294553940365 0.8789056366729904 7.34588281165487 1.1063639451337655 0.34483738443292866 -0.5587562527757086
Ni 4.9782090121784055 1.2070448950820507 13.417714727139867 -0.804489437415608 0.09053239896361827 -1.1154875047015884
Ni 1.0274586118653743 5.850990772300693 13.7585027287564 -1.4907050440882714 -1.1340768376680017 -0.4109047083756472
Ni 6.929598721197889 4.495829001865114 4.569151983033978 -0.38856979232387273 -0.376509518725229 -1.063774392598013
P 0.7477827959297632 6.040897469076717 9.79537614763518 0.2802926677823237 1.0646673367259278 -0.5541478074694198
Ni 2.6356784010806806 8.833507136321684 11.126898904559937 0.817701565230508 -1.2657697700303299 -0.0980176515970699
P 6.8595732830901985 2.5351536924632274 13.266435204014302 -0.05519824243869848 0.09395505149192206 0.9871331497941903
Ni 6.51945236639666 2.5513596059664456 5.6574261957322385 -0.0742035798966077 -0.5334833371415328 -0.15484597344002365
P 0.5584175281909626 8.213654043332006 0.6524072068079448 -1.0612207729382241 -0.3786551043133221 0.5884164988443028
P 3.6698448197894624 3.589138631391167 8.153978584874432 0.4286779731986682 -0.7697132102766873 -1.6128452997651577
P 2.2581194219498344 2.525128939811579 0.13322665288956853 -0.050473326159203406 0.6068276543616388 -0.6914922816905703
Ni 3.427245805619566 6.97703381807675 1.9582776842285197 0.1834620945148195 -0.7685814106650892 -1.606845116317665
