# total energy = -381173.4584487447 ev
CRYSTAL
PRIMVEC
9.23121750314336 0.00000000000000 0.00000000000000
0.00000000000000 9.23121750314336 0.00000000000000
0.00000000000000 0.00000000000000 13.51081992160986
PRIMCOORD
 96 1
Ni 6.571380662251521 1.6036563393719263 7.761087976076635 0.25939499839770813 -0.14019479918575212 1.4057388263585209
Ni 8.715884805098339 2.6808563433878456 2.1348307500041126 -0.4368455966111251 1.085672478222685 -0.8021348211405024
Ni 6.547527196171214 1.4874260795355687 5.492770128198036 0.7329708605503312 0.8655456812969803 -0.5210124583680317
Ni 6.526627719698375 8.566459087048056 7.258593112045959 1.107602445526557 -0.423293054737671 0.5356921718673936
Ni 6.973197098607409 7.573604717542883 1.6195423416078403 -1.3382602238905725 0.521189093155212 1.0329257826482727
Ni 8.794054755085973 4.830991528923901 9.258505925459467 -0.7032028852592792 1.2114459597767846 0.4029507436358931
Ni 3.5820724165388356 8.00893047350849 10.161366078451362 0.26011027929717784 1.0656114458067518 1.4017163354626891
Ni 8.94384972183719 6.560635525054355 1.875734475289555 1.2832964660601833 0.061625486121280965 0.44775632998635784
Ni 1.9111297326392926 1.9595751622017743 4.398798848185715 0.8384434257635496 -0.1280296245781279 -0.234773343194286
Ni 3.953333522892472 5.426497371354483 11.538240020049178 0.31410858789050417 1.2851286341729158 0.06934779446620315
Ni 1.9829947610584848 1.6959315897352203 2.1259004701720343 0.07766094231758883 0.46886225872703763 0.46932814261986266
Ni 5.587619042006836 0.7466697987405096 11.97739580816522 0.5184889206152297 -1.2461679366390024 0.46773688687334286
Ni 1.5112795456158759 8.056554324711396 3.0771977446306416 1.3211420761530472 0.41375888999499066 -0.9515197714659548
Ni 8.44893645675843 7.032129191276404 11.20913049915061 0.4889096642962161 -0.4018410555114822 -1.0097714560189965
Ni 3.563342276183981 1.5932712196581704 0.16641946638899818 0.5405492428493788 1.706067072635481 -0.19157315365772815
Ni 0.601721221189045 8.241030975697795 7.003779199140478 0.2525427513625651 0.03237661655849263 -1.296079990978097
Ni 2.139094649378143 9.058159888428694 0.9478614152964202 -0.20390313597799076 -1.2598397776991397 -0.4301213905134141
Ni 1.115758799610905 1.5631774505320861 12.832009002771386 -0.2625741674566381 0.43266189754708073 1.3546214388574156
Ni 5.8534873378965155 3.391890873123011 0.4214955458721415 0.10315394438237073 -0.4406078918670347 1.5211965278089092
Ni 6.400575444417185 0.9454336050877821 2.4740198373164137 1.1712668164547377 0.13506673393056737 -0.06195150200213202
Ni 5.173802022870608 9.028592298701438 0.5541084474471686 0.4791651833149425 -0.7390098676555595 -0.6800207907158611
Ni 1.5331575311461887 1.8376030850658998 10.508513398390532 -0.40273142853623545 -0.5138419087615215 -0.8468892425380576
Ni 0.5073200214301262 3.849122308271501 11.40753613425798 1.2889330955206704 0.5131379407159614 0.18502943900193938
Ni 7.975134986155547 3.526435868525673 7.2792645774459706 -0.022906215174212163 0.07423109070043345 -0.8752806491965569
P 3.719257540153172 7.362976027312864 1.8504150918665416 -0.474595304556073 -0.19779856574214968 -0.13955022362321773
Ni 3.1486205977304653 7.878557988426378 7.260038720710114 1.3004979175401343 1.382923114015586 -0.38260020500399916
P 1.0589314245372317 3.738310773121343 3.2734958927774302 0.3501253723047454 -0.00625395132951181 -0.3570133576738303
Ni 4.712047291135682 5.522391258986925 2.5021224328227136 0.866696764182288 0.13329550096275752 -1.1440555461472683
P 6.353717784268717 1.6875311817889822 10.051766602162019 0.3996237361451892 1.12536362616472 0.7883907320815325
P 0.9398117936160688 2.1694838174649735 8.16185943860888 0.08659115492768313 0.08357396536791413 0.13875446719479975
P 2.6941216029688837 3.034338124791532 12.173532410005349 0.04890829566492867 -0.2506005400345297 -0.5582158068912064
Ni 2.2357362656299755 0.9815922841266999 6.778391638334144 -0.9312347959646735 0.4963902889439773 -2.027750644659766
Ni 7.418954130374389 8.289116387776867 13.011608801540207 -0.15215942774679603 0.2787068113524426 -0.3970878570972129
Ni 2.97391980610128 6.3136543002174275 8.93902825692475 -0.192216700778998 -2.325805264411201 0.38119098336129836
Ni 9.004074184959451 0.3243314427084874 2.254712879492703 0.47363782573881014 -0.5548376344475929 0.09947109621414482
Ni 2.8532308682011496 6.95677476263339 13.374171331621602 -0.29255528719976065 -0.4267496458277037 0.020520488550854983
Ni 1.4825704591182924 4.343989417262644 7.91467881947345 0.733362182451479 -0.21892043532242944 0.07853871693685184
Ni 6.147889327150835 3.294519990686834 3.342698638062891 0.9390224103298924 0.6536343303025324 -0.3576401926245518
Ni 4.605472884828736 1.7320256502514748 4.11112641650591 -1.2077875370885907 0.053533453141765865 1.6556377123403359
Ni 9.08582584734614 5.672167763303095 6.709676301333915 0.511259492746326 -0.33487564523452656 -0.10277779198987459
Ni 7.493542367962966 3.669944376143497 11.233368907001642 -1.810589101009972 0.3864581452975086 0.9831867635519325
Ni 3.609692219368665 6.674281043984178 4.221888103081442 0.5982082881237439 2.128032152590348 -0.49840114872641905
Ni 0.711149919954207 6.972901699646662 8.832860947310584 -0.0977865094228703 -0.06977279781876371 1.4033942373857444
Ni 8.698317798151427 1.0476878015938051 6.762394861487951 0.0748296435163808 0.8858746226623195 0.14322612981290817
Ni 5.386627742871182 6.866604229865417 9.037103481257958 -0.016081221832578756 0.7234487799925089 -1.1084169710080525
Ni 7.798791037807208 1.2308905445619853 0.45807793779538053 -0.2629600900411471 0.7164024146686888 -1.425651249011732
Ni 6.9558701033161014 5.033136730249972 1.6638171070932775 0.1503815099107668 0.02369245852093339 0.9601741047068432
Ni 6.763823853960564 5.800758623403204 7.322756535685429 0.014779986522651964 -0.24484384005641058 -0.29014770619953256
Ni 3.9623154975426806 1.6181770445361383 10.532495178394415 -1.8163843675355105 0.17675897146303107 0.5826266316354031
Ni 8.253899292925329 4.555144286891494 3.8638784094825582 0.15104742562953985 0.8338496357452801 -0.17554618210185252
Ni 1.7610947542324684 6.124894364300197 11.154154906312119 -1.229687936706108 1.7317331099430175 0.2981052704837124
Ni 6.564586486154344 6.394889014422808 3.8733090213044012 -0.37272948285750646 -0.6533602507055393 0.09106821686243026
Ni 5.236325059156181 7.1400975114293725 6.018354113498087 -0.8707994734967519 -0.7212625709744676 -0.05322723475525672
Ni 3.453315394523307 4.533515544234311 13.533248287592535 1.6673727413890769 0.18890126325251982 0.31932072821906293
Ni 8.620240160339028 2.3314455289119516 4.49345575267003 -1.3148675559982452 -1.4528411791629625 -0.8046665864234206
Ni 3.0919870782247822 3.2547980616839074 5.9897114917666725 -0.010957270342452098 -1.2990560428872855 -0.03127669862609452
P 8.52562941194233 3.4916987969853492 13.067002568532505 -0.5466571555193295 -0.4267329336571554 2.6897873400933805
Ni 5.2218874349496796 6.47258817231675 0.2561782868554299 0.26600684728727086 -0.5400221667013151 -0.35367092356415863
P 0.22733719394726276 8.333149295363194 0.2852224665491106 -0.2557476314531079 -0.08028603864526172 0.46735559227452417
Ni 1.7517066060112332 3.709204744270256 1.027534207496852 -2.183951589465787 -1.9138757143154654 0.39041250195956634
P 4.500993964899589 4.6531428921192575 9.527681766587756 -0.4742854866251381 0.5865552772658479 -1.0109541634731878
P 1.3629800361034394 8.570622366151081 10.743385112080345 0.012611775226739572 -0.542885090071407 0.3912558237964681
P 7.754388881519949 6.994013494122537 9.056288720636713 -0.6850645237873557 -0.1358061831997532 -0.4331912876879894
Ni 5.879565527399947 8.709515265007237 4.463583532764506 -0.17171703816374942 0.35275895327285056 -0.4479836155058156
Ni 8.717214100421701 0.28959437116816383 11.461782460912126 0.8718677668602661 0.5125129055374528 0.3090792529967129
Ni 0.8063468506636375 5.514129319303536 13.411447911102595 0.3093510186008608 0.43889039495529575 -0.5071529267771201
Ni 7.778473128038339 5.837600412538849 13.200043798600616 -0.9082365352972874 -0.5756486576556731 -0.3957082031408669
Ni 4.522567320251631 0.6038351700018897 6.456483390225533 0.5665464382440888 0.22814221103101354 0.2643803674274414
Ni 6.7068026233189 8.806932303531031 10.207127069958057 -0.6688863713655965 -2.4942875976877366 1.3999253050005374
Ni 2.4726185384963704 4.173184199428307 10.214666205309369 0.6634623721365478 -1.092184311199274 -1.1124466609927357
Ni 5.09063798420285 3.254576512463347 7.049216174912103 1.4623992551650429 0.6141732960934326 -0.9462500384265833
Ni 2.28286163108662 5.01153568124536 4.643019938983164 -1.846947070813716 -0.5597361001904747 1.3732807058298158
Ni 4.1815384512869285 0.09933066991638168 2.564596543655413 -1.4244227759212695 -0.8954758931975094 0.6317601559372603
Ni 3.1107079873621135 9.092804647793784 12.277768548913635 -0.41511617535383344 -0.5809965522311478 -1.3780760703359298
Ni 3.3253522572147856 2.4636273326286386 8.40386503720073 -0.6104056015208843 0.07537034651119923 -0.0017205822355325206
Ni 4.721269277441497 4.667257423712442 4.8051902759461695 1.0321760489664418 0.1081313429923041 1.0568388418204444
Ni 1.9349647362845532 0.10154985460899231 8.818890422710762 0.10035992657700135 0.03049045527937329 0.8594357117445005
Ni 8.467657365895763 0.06047001350838265 9.05955841788348 2.1900129651685187 -0.26472386680978927 -1.6939268377285213
Ni 0.511391911479671 0.1806844668278135 4.795746740419794 -0.4609877410749673 -1.1465952818499867 -0.23869478973587924
Ni 8.06702252538286 7.385694053637799 5.528194925443848 -1.7698407154480167 1.3997553550815764 0.510057759128741
Ni 0.5682275946491152 6.565934243912751 4.381829101012562 0.06084284231898554 -0.7414758126975489 0.3290963195485881
Ni 3.425003250379227 3.728054890452914 3.1232965986986905 -0.36204140701604104 -1.825028416363754 -1.0602535239289481
Ni 8.466531157357913 2.560979752629769 9.586967414887896 0.6056310629503763 -2.0034246663198916 -1.1882276126787923
Ni 0.7615440595358655 3.283839472012331 5.873990795137603 0.12336744321576817 0.8192388278106407 1.356574191708412
Ni 6.336464638717597 3.683117323549301 9.07369141191171 -0.1302536288126402 0.38158796168940085 0.24079306702580466
Ni 2.144199512668549 5.674770966644677 2.101108189269604 0.0803120067871907 1.1732866750982438 0.7055099361259011
Ni 3.7261163347730126 5.281714955718439 6.96417912220886 0.2995090928097745 0.5685572980265305 0.09434765894465041
Ni 5.203905023214216 2.980972456289111 11.860973539004375 -0.34411901820966545 1.8097900021474445 -0.7840897907133336
P 5.740783403154072 7.478827807230764 11.900681621181018 -0.7403003043322088 0.39206494996132474 -0.43787326654469105
Ni 6.116493956353958 5.589548366469214 10.817397321695466 1.7204094574000823 -0.149606065197323 0.6260638768834313
P 4.577603839125777 2.2060855949450118 1.9595151592878728 0.7313541508825147 0.6960048248489432 -0.2944890138873638
Ni 3.158987255009175 8.976611312827519 4.658354837532935 -0.31904921972523115 0.2547646987145484 0.8440011223569852
P 1.8844145891267505 6.404849498130491 6.591510255182913 -0.8916629472093225 -0.8753840075436408 -0.6050929310587192
P 6.730139141217901 4.196068387668664 5.479407940833003 0.5262094291879389 -0.28898299646747005 0.4359400540777202
P 7.91235347577932 8.205943117891586 3.5060441090166177 -0.04562294004543756 -0.16627375566099106 0.6614183451233254
Ni 4.974740048197332 0.3856636519335499 9.015878142806544 -1.3473819836861827 -0.9677925404840493 -2.2300057035113725
