# total energy = -340896.8344360831 ev
CRYSTAL
PRIMVEC
9.03711149057314 0.00000000000000 0.00000000000000
0.00000000000000 9.03711149057314 0.00000000000000
0.00000000000000 0.00000000000000 13.22672615168845
PRIMCOORD
 96 1
Ni 6.451666281750016 1.949006751550873 11.320305336031453 0.06894927347620383 0.2127824407454916 0.5092607171487423
Ni 4.64441566305594 0.32613851379844455 6.294757623841517 -0.28380890846569834 -0.1799941905708771 -1.6365498424709493
Ni 2.843102426695597 1.4897497761811418 4.844671730556492 0.49367623244692405 -0.5911940615894399 0.11835482049252519
Ni 3.4110577806195526 4.2469183084909625 4.945075848066729 0.12390583221774146 0.7769287541885199 -0.4900759166901753
Ni 5.190799431545166 4.5157633420468 2.7221921992105176 -0.5906674996620086 -0.2943172641961899 0.05489845181009254
Ni 7.115044497259776 5.9607794157135245 2.6192224457116247 1.573962506657031 0.3881828412980992 -0.17677774051610845
Ni 5.349635705362014 4.454292908813858 11.326799404440921 -1.2542663973764203 1.1869101794189496 0.9713332066474563
Ni 5.696949979106273 7.821114028058042 12.50731187297361 -0.6528354885503208 0.31137447678879276 -1.0823105037289877
Ni 2.05631341491576 6.493002030295661 0.17565795338459264 -1.1239852577599547 0.42938399812675726 0.9191066452425719
Ni 2.712236013339784 1.7177651394420026 0.2832022927850612 0.9494847433137972 -1.0001005085881356 1.4399108442545394
Ni 0.427787945289791 0.053750932487929455 4.660529736783912 0.29333664545047544 0.09159683567239063 0.1113796747262727
Ni 8.458808772346393 2.366946052598197 1.342869601036329 0.9262954496815273 0.33650855285225917 0.17659493508134103
Ni 6.757527324497582 0.760335578648483 4.86728981351671 -0.6345264058284878 0.03424812254959263 -1.1403948094662295
Ni 0.7300666769915559 7.5105898357150345 2.516569894830561 -0.0320688555100867 -0.2297596920297785 -0.058281509349712525
Ni 7.494413405916891 3.917027585948278 3.979723451516767 0.587877338511381 -0.5748845257961389 -0.6631386702485418
Ni 7.553877600370399 3.9291011670713614 12.551422918497472 0.8546195213027796 -0.3038468009531799 -0.43745417672940146
Ni 7.942726439115924 8.841458152521232 6.730208136073121 0.18585296334449927 0.4177358723648676 1.205130301971402
Ni 6.869244098332577 0.6602107078872743 0.37776030278892014 -0.08348294831600461 0.34486926611212865 -0.2669746105171789
Ni 2.046706965264684 6.430962259030718 9.314287062120489 -1.6064121425453044 0.5456639383681248 -0.4648289691979285
Ni 9.150165885428807 4.998796958086316 1.048546238692835 -0.3295498621462389 -0.9124857974919447 1.4355597663746953
Ni 6.281605915302277 2.003654165511415 7.093810899799599 0.5161625864748981 -0.055011066128556864 0.12607430062396996
Ni 3.385654459858335 4.254636001813652 0.7081561998711106 0.15906926749275185 0.12313784370346535 -0.16535252939830233
Ni 6.03432343006955 5.748271735990996 4.860399015907166 -0.9438851377388325 -0.599186078655981 -0.4089933502855473
Ni 5.261668460861946 2.9459718682555183 9.291272249960194 0.36010485211496046 -0.524822061922109 -0.1765831080067991
P 0.2844756218121888 5.654882224519483 12.262670031755977 0.30600627049834395 -0.01786119655113698 0.9903372585537847
P 4.021686375608776 5.959496145863617 12.720725071280372 0.9652057535934797 0.28639158159121 -1.5546545503570388
P 2.4420625243759417 8.470240718544522 1.287679960378643 -0.6133340880215888 0.34397066555725925 0.36434897210329514
P 6.321938544458206 7.827557488642442 5.763506498758431 -1.2181220862453797 -0.9228023489266043 0.3896596829539418
P 4.750827652370539 1.0214195407458602 12.53811667534955 0.48753078167081837 0.7774198348923257 -0.11226182022090989
P 3.8841776852129435 6.145326272086639 8.135031655814013 1.207865184404062 1.0283291644165258 0.05489048139029256
P 4.747357401508814 0.9175198684613641 3.672136320449958 -0.08207012712887801 0.4301964667257236 0.7458004082148317
P 0.17899716612784053 5.463051456181395 3.696023213881495 -0.5804800176060455 0.7480287833247181 -1.485302127905145
Ni 1.5010280914817464 1.0835948686850905 2.704137857617931 -0.028057677468164587 0.528866921415444 -1.1206636495858895
Ni 1.8519933583201116 6.455154606834978 4.760364516262148 -0.13351841560684105 0.15532265596612604 0.23162451315265914
Ni 5.891211730469892 5.586218250437756 9.046842780865608 -0.1047230886417035 0.3261086976751738 1.1051436995734194
Ni 8.704392280594734 2.15060663754918 10.171630611732763 -0.03212027757331242 1.1982731698402525 -0.49123008489927655
Ni 2.270854444752581 5.131172569082515 7.064724956053609 -0.3676975768605539 -0.12316664005887175 -0.6278207116735381
Ni 0.566466941640294 -0.053613568391319526 9.08587496965955 -0.3320284055937185 -0.3827130764327796 0.24250233640742755
Ni 1.3893022805351323 1.0815163330127036 11.57490697796447 1.17760972795363 -0.20009044710011992 -1.7014313736356828
Ni 4.099269978858528 6.826209372802546 1.604005074669935 0.1694516391683404 -0.17390787516748113 -0.05891477205833725
Ni 5.7149519054514695 7.811570838188301 7.956034489686172 -0.37729910450605986 0.128037852108244 0.39725317903048357
Ni 5.310993016078853 2.926298076260794 4.883400272400033 -0.04069362106462024 -0.7802048538366305 -0.12174302023846774
Ni 0.7627683690963379 7.4830266452768575 6.890264419958544 0.24447591519403059 -0.969605425323072 0.4075324494693045
Ni 5.086746128363146 4.587048078498058 7.027412529600775 -0.015403479039263793 0.5135140931084575 -0.5526851068809642
Ni 8.099014247456193 6.968326990124106 9.119298726982697 -0.1275236314759868 0.9580915111462015 -0.37744591449656933
Ni 4.6888692151101665 0.3896540453907837 10.362730277740866 -0.33762441162425727 -0.8121865489495496 0.4023326504359199
Ni 8.11983575262654 7.14965663476083 4.781329711507238 0.6137755464343816 -0.16007122639470497 -0.6045871950668943
Ni 7.2203539589568475 5.991623077669425 6.913225913160288 0.8126349493408779 0.7916254369687463 0.2862997932083521
Ni 2.0818703665745018 5.3508286040957325 2.5775713019704733 0.2529415294628805 -0.6753274990052498 -0.12478412105763673
Ni 2.3993802461990543 5.049974121185133 11.391848533875017 -0.2283926364789228 -0.022379653246780814 0.32682809233970167
Ni 1.2202269592538733 3.1829881946889773 4.033714771173765 -0.637463891190257 0.5332861335290622 -1.193877868986034
Ni 3.6984288929944924 2.6190995409936053 2.735049297910974 -0.6569981045684427 0.07471882897012938 -0.4526519675157624
Ni 1.0754976166744001 3.1179119539200237 8.277100472732831 -0.0642364413815668 0.9433413494202205 -0.7230901111015094
Ni 3.703001671473744 2.840906408572162 7.286550801566566 -0.6630008591190969 -1.2173479270835164 -0.3679014653412438
Ni 4.0209995551257265 6.826607005713785 5.908325308742933 0.33372559079048325 0.3726875738759775 0.17614550624874825
Ni 0.7217127710108838 7.5718162669342615 11.36934974078817 1.9216545869299357 -1.0576518246400428 -0.3970976272892258
P 0.3915925058330751 5.6137181810946 8.061002348564044 -0.6212731403630075 -0.614558190236677 -0.5408863144738233
P 8.482684821243987 1.607548526135774 7.95452709946811 -0.33274985714077526 -0.12575831204544793 0.05421608103108727
P 1.7256183894389783 3.150590149534596 10.38201457022481 0.7839949170066821 0.29799317038588036 0.6919319403311504
P 3.946343976040555 6.032244894397164 3.7286408608482198 -0.17190061492946523 0.5709504808490554 0.3263943472363927
P 7.016729759955868 3.9226215580404853 10.242181534720551 0.5781220588968301 -0.032016147895280345 0.17735778138929456
P 6.4162317670916265 7.863516155774739 10.291874804091515 -0.663550818085296 0.24538145772743547 -0.6336134070959153
P 2.327535208827414 8.433414488696794 5.661316647992264 0.5040400921797512 0.5332583656149203 0.5104899615701531
P 6.881832794817947 3.88626525799695 1.486750358834771 0.5533510225997375 1.1006360415110528 0.14929650437670416
Ni 5.309447669991991 2.941064716646361 0.315358143348051 -0.11729629732102381 -0.39759642130251527 -0.10451894305069742
Ni 1.3571934229525617 1.0066800116951502 6.981264519117973 0.5754337134313896 0.21072273000298547 -0.5988217533380268
Ni 6.864228501383991 0.772069364374689 9.155632434247185 -0.2644911819736929 -0.810931593496526 0.265101304753866
Ni 2.6778588407408255 1.5150265773796923 9.193897372264669 -0.11370986552134611 -0.45598591698500174 0.5211692956608701
Ni 6.320546829268868 2.0573255714170964 2.6188916874263666 0.1669350433940738 -0.0453167216589284 -0.07903365429539938
Ni 3.9868392732056264 6.887101430891867 10.484363474155472 1.4728443617577667 -0.13698143445477698 0.5104318546387081
Ni 8.278310541978625 7.152412953804647 0.4608411810365549 -0.3049464617752619 0.7934974571804786 -0.2881329897623489
Ni 7.723007144321373 4.0137337173839915 8.188731980476875 0.6246238020027952 -0.711294146907846 -0.07039937565916908
Ni 3.27617888970487 8.430278610964976 12.359092397886851 -0.6552826645392327 0.015975806602966033 0.06299357011340118
Ni 0.0077890865044800426 4.974866686519007 10.296940105154007 0.4442570585838478 -1.5428616714871688 -1.3280863686813644
Ni 8.532660048497467 2.2588170120759745 5.75709105322005 0.2580888779917749 0.3774474571584661 0.31254895671286814
Ni 3.7206963360238916 2.7789479713117893 11.50637856055703 -0.6187046083048829 -0.43675149423542203 -0.46700823623743437
Ni 1.128464127873794 3.223691345421287 12.68289662575409 -0.8008973491889756 1.0247311626526223 -0.36443947493457235
Ni 3.098319495929871 8.298770562684208 7.9129681342654745 -0.13073391088316838 -0.12190037175193846 0.26225072267894833
Ni 5.5626856117816885 7.829681209872925 3.4987069187906292 -0.0048984657428818865 0.1496806271890003 0.4927192678502934
Ni 3.1111883428754328 8.317133973494167 3.4930325164050124 -0.06519597708135869 -0.18900025072422935 0.11827974428021563
Ni 3.427803548449697 4.380848302685642 9.270413692632209 -0.1446266097048606 -0.5489217831837901 0.3875048413944681
Ni 7.311520340970067 6.231350537588606 11.348253507424602 -0.3087979743108682 -0.34195337801691433 0.5706764012520622
Ni 0.5365089166230631 0.2529171243272198 0.41292370409873785 -0.08386218603229427 -0.8259422079727453 0.7708527231977691
Ni 4.6065682395952585 0.3060390738464617 1.4081573102171685 -0.41022079493474506 -0.1724369470489095 0.5004096945160156
Ni 6.132213423127363 5.690596889638064 0.3426673909497313 -0.8406530318203587 -0.6567661910632947 0.04903068017540588
Ni 8.073746483369261 8.901157311876837 11.480758349116956 -2.0311882095864053 -0.12839523544766274 -0.7384161999356187
Ni 0.07199414971335452 4.755779989537792 5.680415679688015 0.1413620800209759 -0.13905888580909598 1.8637322606918547
Ni 7.693076230638999 8.939465628030092 2.5537630314100226 0.7719235876644448 -0.33621904663629837 0.3893897171220068
P 8.494017359214306 1.7392282795373037 3.5307028124779616 -0.3789960325925086 -0.2268306913084416 0.3633601258274645
P 1.678345258559601 3.269726392008851 1.6722289414158116 0.07906193643017351 -0.41448291264520876 0.13602858362320444
P 4.598895731830663 1.0334027507527526 8.293514578566555 0.9684957371986611 0.28826257336167777 -0.40259387451710665
P 8.47934108994493 1.7198978977841044 12.330364323760975 -0.6785154098149282 0.9236994068195769 1.443874713998294
P 6.2791297467186515 7.692832228625284 1.3797066754179994 0.7141938370531442 -0.22091946803032922 0.2616943359548461
P 1.925727152020138 3.117920991031643 6.072720309916673 -0.9278833629939374 -0.3720959630385656 0.6007781057334493
P 6.883739625369572 3.8296025681453543 6.115734250089981 0.5699580350287992 1.157543553331374 -0.9631447572993929
P 2.41699357674463 8.542420129046068 10.16231877192047 0.05379030634757833 -0.24141990197652616 0.8341386277406085
