# total energy = -340893.58683143364 ev
CRYSTAL
PRIMVEC
9.08344134123276 0.00000000000000 0.00000000000000

0.00000000000000 9.08344134123276 0.00000000000000

0.00000000000000 0.00000000000000 13.29453457121893

PRIMCOORD
 96 1
Ni 6.53836989331546 1.9681091795978127 11.31249209196203 -0.8896523445371969 -0.25947418837507574 0.9266194086798493
Ni 4.785329348255597 0.34304614430982117 5.745618931147309 -0.8158390581004724 -0.7242013418878173 0.6859019320869865
Ni 2.688162637741064 1.589266102321374 4.762022146779019 1.0486995005427617 -0.770250570837396 -0.09499480561034607
Ni 3.5469020743497204 4.351758538450073 5.037724567238652 0.3164760596814163 -0.6208990448530404 0.5857091272154686
Ni 5.308163133590301 4.433727510789071 2.9358589926515393 0.03343102596493597 0.2708371787963787 -0.5779539087500821
Ni 7.607327406923388 6.293362236965749 2.6539080730704527 -0.620434446511796 -0.6844852542451179 -1.5349442164123048
Ni 5.2733644707987795 4.7157501895547185 11.754774830110899 -0.8652744299134646 -0.897840279664628 -0.13776459247770467
Ni 5.651898711078373 8.197424073482637 12.528635868201459 -0.6461012551502808 -0.78466648915241 -0.5869825946112537
Ni 1.8120738286626061 6.477719757199825 0.49079285525618305 0.5577301255040394 0.6541246396753896 -0.23726037128219785
Ni 2.710153648604618 1.523193151878791 0.14855422885869973 0.12676567026403976 0.10709904507304781 0.9555278641840834
Ni 0.8292455034099946 8.97038857593824 4.768443231281062 -0.754214857530772 0.08008035039235886 -0.36316035111183265
Ni 8.676548340322743 2.2396223170296596 1.3181998701908437 0.670045167560388 0.5868049313828086 0.8060403268424957
Ni 6.828849255730001 0.647247861169455 4.545799915223444 1.1910373142134456 -0.07755475575702772 0.8227262721386089
Ni 0.7291014738066903 7.576688960148185 2.541409655249255 1.1719738698240914 -0.7563000221945749 0.4990791486300501
Ni 7.7716196058036475 4.021602705382081 3.7965604525342673 0.08575297529710393 -0.5781058609469141 0.07644275363977157
Ni 7.526757284511275 3.7568113143521473 12.722962465024859 0.4425341623554701 0.48002675998428945 0.10818919281343302
Ni 7.97509776951884 8.990917152787324 6.734053556236759 0.4382545611435098 -0.49869811114154755 0.035412832281655135
Ni 6.8785629287809025 0.8210967484138382 0.40039535793565195 -0.013797568004724625 0.4181711601300734 -0.9604461274213071
Ni 1.7725154427432426 6.3932165047984855 9.39129888556135 0.2452441608186228 0.04878873936792888 -0.4309654836812643
Ni 0.39068152604078005 4.781950308172473 1.353171118362956 -0.8842471143612255 -0.4713024927374141 1.3196593209599337
Ni 6.484677673069913 1.9546747702350713 7.010447226562859 -0.5630127140592175 -0.01270484916117812 -0.07307795093259672
Ni 3.2985880454455554 4.548315120059511 0.7313414503779222 0.3380730691259016 -0.730265031583394 -0.17906833632249808
Ni 6.224191833113637 5.690094580835186 4.79189485947087 -0.7125591296631987 -0.11872865889217618 0.49126942277764424
Ni 5.100443002889038 2.6600312207049517 9.36022988367878 0.4199562770549542 -0.955285152045658 0.4488112536134335
P 0.2635142592135708 5.477196888716234 12.565249402521497 -1.6754881714073593 -0.2579659792606654 -0.26124696400478237
P 3.9496800188816175 6.140042834914559 12.699537178814193 -0.17184533621149758 0.9428849786090923 0.20551573188074929
P 2.5304014329999607 8.322857311406974 1.4149639513669159 -0.5591632584061401 0.4825505548474076 -0.41613330376443813
P 6.3654030082003015 7.742289174544491 5.799115857409557 -0.2859174701682689 0.28814584527815534 -0.1200401786147481
P 4.868079496527789 1.3206505825952166 12.785672725578268 -0.3668069467254844 0.49915576750425644 -1.4318308954598824
P 4.047554096558114 6.077630511228693 8.439423294145438 -1.4318774324271017 1.7528117849901876 -0.9702512864371873
P 4.698718737522845 1.0994506253257934 3.565102565249061 0.3895318991268259 -0.6263112170075471 0.37622541182590685
P 0.4391980015568544 5.573054442472156 3.5576041846344952 -0.15128371001006205 0.9148648392470825 0.15596003243980883
Ni 1.80061052601502 0.9965624881711138 2.457906489711226 -1.096189832814241 0.052557976602374004 0.44362919519186184
Ni 2.065783421570468 6.503298727291428 5.0642999908171324 -0.3258996669881613 0.1793691553923685 -1.1548631782857335
Ni 5.867466934875923 5.910531529053581 9.47211607757094 0.6686151199820808 -0.49150005073121167 0.15351311356121303
Ni 8.497867970765958 2.4402391968034967 10.00615792085878 0.6986160372195451 0.10161693891255404 0.678227189150548
Ni 2.2919338542304892 5.216411295204196 7.239352666903555 0.33448689443654006 -0.5810772848704121 -0.36939553338826703
Ni 0.364880011642628 -0.03402384526708602 9.16808331271546 0.5611941727932399 0.6022780873177435 -0.274626727745798
Ni 1.4056443408150752 1.353423638025082 11.297708791598366 0.2925501449934381 -0.3634334022675612 -0.49676129913015094
Ni 4.333146567669642 6.733636626291019 1.5968462339056928 -0.9638716081630883 0.36692110370584546 0.6064162778558331
Ni 5.757221210443475 7.878141119391793 7.953694457293397 -1.2927570972524511 0.6973448838166054 0.12540478536077113
Ni 5.469076292387436 2.6954384740490798 4.933548398138309 -0.2247966915975483 0.9591875724238578 -0.4471210103952042
Ni 0.919970912953646 7.544451827742256 7.095026779869302 -0.25282505848967424 0.36670538815061365 -0.5305201407481509
Ni 4.98603706244027 4.284831744545626 7.714419360611589 1.4387224803733931 1.240500968161212 -1.5876140360021949
Ni 8.085888500416308 7.200198494112415 9.082400121317352 -0.3999651786450079 -0.23087812190493787 0.34695443077593147
Ni 4.393651368727938 0.47094826152069896 10.747567457333835 -0.10983598438823665 0.5798608959648078 -0.464840024941522
Ni 8.160499885477536 7.26530859980013 4.687427111911741 0.9030724745978447 0.4208386796599075 0.6037364170308248
Ni 7.038549576587504 6.113800773623849 7.11214997465612 0.9401146149528068 -1.1935202285362994 -0.2969585584737789
Ni 2.4644102335271305 4.979288065715107 2.97862746664987 0.01454395925244592 0.9157223021513712 -1.1281486451090248
Ni 2.233908832588034 5.159930458545963 11.557709575800773 0.07055801272422042 1.3957896855656091 -0.005790124319215834
Ni 1.106762795398144 3.2038295880607564 3.741852703575567 -0.8562159192556221 -0.44034358246205446 0.21043296667670858
Ni 3.6157454743228215 2.759367732395918 2.661459137643304 1.0553419455599438 -0.22670984945986117 0.2297792324138043
Ni 0.9893956531561018 3.1779417809723096 8.109240210754194 -0.84367073560076 1.0883435972969449 0.015031440411825726
Ni 3.783116959730443 2.635460512573636 6.851378006305708 -0.021297218815879447 -1.394869744854501 -0.044581643265116766
Ni 4.185050144241559 6.658725487674029 6.220924519355842 0.6829683033799592 0.5111990718220357 0.3214958814935108
Ni 0.5169131984363716 7.185628654614216 11.405646413651453 0.2105221839564052 1.0762301018628626 -0.609427553878331
P 0.1398014250304796 5.716182223627474 7.798507499755405 -0.3001408128565024 -0.9933595903198763 1.2484798726016304
P 8.459544932833973 1.5806550001740591 8.030656636907079 0.3225711168355606 0.5118490467012089 -0.8054469162328709
P 1.8369170400264312 3.4345944087912796 10.306348390135867 -1.6973356062997542 -1.7831572300512646 -0.05520312753470493
P 4.058099971656249 6.149589531493492 3.8861386234690523 0.9081630017468746 0.25312304934606733 -0.006948149183059001
P 6.695286338035783 3.9545305764202956 10.363315190892076 1.240706656414115 0.13557889768029552 -0.6997061849599304
P 6.235101045855118 7.9946907519363055 10.348385647126962 0.11395154921850698 -0.9554281053814254 0.2333191272462627
P 2.6908513363018285 8.479301417190946 5.825425136164286 -0.5641442565604995 0.45076992000170113 0.7409091415608015
P 7.1966559520897855 4.141013621867949 1.659809014121229 -1.0159014801761341 -0.19349222505731192 -0.40590031318252034
Ni 5.3041210023080705 3.1249944028956236 0.6709165836011624 0.1607836790806973 0.07144607175612856 -0.3537701681461842
Ni 1.5357828012207513 0.9942371272536954 6.998761379608723 -0.9218345856966963 -0.11944239712974912 -0.9252356409584453
Ni 6.714416064957982 0.6826578395459084 9.12756208204123 0.17818516238659635 -0.027587936920597647 0.4829303067843296
Ni 2.6643912724251106 1.6640682396453597 8.85885300287191 1.2471542118116714 -0.2929692348087277 2.1045716075745626
Ni 6.546263403617166 1.9411131926971588 2.5468470030819375 -0.2568969145662027 0.8170824435892703 0.2387809216917823
Ni 3.980000545218893 7.128711812783967 10.695319504220592 0.1931762364787899 -0.7081252622615611 -0.7446223287463305
Ni 8.233966756962223 7.363200844358793 0.17609158884794018 -0.4924657570785905 -0.5380254479862606 0.1852919486347067
Ni 7.460493581805935 3.8661396112351456 8.177641247146521 0.6532643485576233 0.2981165833376221 0.7762414983135083
Ni 2.7739012381297825 8.347200933511198 12.453602103129839 0.33891330563900984 -0.19197630263341775 -0.35130910820020145
Ni -0.1580228078443127 4.922852646262292 10.029914752668999 0.5511763835459218 -0.3613682922084163 -0.13288438156726792
Ni 8.611601736574535 2.450703320931879 5.720465066098422 0.6406037223708194 -0.5824628523640291 0.34018265926973673
Ni 3.452207201052507 3.0830470719712557 11.885313870268364 0.6582216925628986 -0.6328904128869617 -0.8553337737609851
Ni 1.0175906542797994 3.413348240096586 12.708231848619477 -0.05384687061712662 -0.8068471390145072 0.05053297575254522
Ni 2.9791143390919546 8.27628650897102 8.167536827285051 1.200931433398706 -0.16300794042552572 0.1588234700305329
Ni 5.642470099233528 7.907516967856368 3.668732819540276 -0.4229824654757877 -0.4378557830431943 -1.0085015881676374
Ni 3.173963233777664 8.292927373036296 3.5893916867067825 0.37367359193833066 0.07037237907597557 -0.06237033470710549
Ni 3.5808650605615457 4.333800575427666 9.602987571672067 0.001826254575461371 0.714711400119511 0.3200318953534746
Ni 7.270031989163636 6.020559250900022 11.430999206060072 0.8126840574112584 0.8334359452466291 0.45447796498090753
Ni 0.642187476141745 9.155745274691519 0.2598563574891787 -0.044186207598911 0.0702098853561823 -0.07695800271329327
Ni 4.547606611654985 0.27248688231601564 1.3585421570757272 -0.01898451152230279 -0.27513220662730686 1.2404734573573863
Ni 6.1961785008116115 5.792555796258934 0.38596994515068267 0.21430144849317934 -0.17273699478783155 0.6383483506777394
Ni 8.03702867082727 9.049641599393222 11.18231184772737 0.1766422433795087 -0.22936477058420496 0.7066003409766024
Ni 0.32422434604035777 4.922207721945353 5.614880055286003 -0.6573632012173453 -0.7336398615928977 1.1441079966517587
Ni 7.978131638840783 8.847471451194078 2.2008832574960424 -0.18141729617064886 0.7060452398040807 1.0921035785600093
P 8.624363971297084 1.4496263625421837 3.6321201935643455 0.3949142464846618 0.24542388092959666 -0.4018009463021661
P 1.843711453957013 3.0398734765005933 1.6180242767922592 -0.8460248376552333 0.10470457669894226 -1.2474902549948514
P 4.720600747093395 0.8622401948023013 8.104494112787979 -0.5318540290682259 0.42833524514726873 -0.10117728027197415
P 8.570044993616765 1.737553278012214 12.439947874492875 -0.03986906828079585 -0.39608229865083394 -0.40019117861288495
P 6.26310529471606 7.832696663650214 1.3275939649595705 0.943358318701085 -0.3941223467109857 0.5013843997244591
P 1.8366172864706705 3.100914200582826 6.03722100687979 -0.559384630388327 0.9228907948753525 -0.2612891300966274
P 7.057543051893448 4.012165010096153 6.0690748180719885 -1.1669553335635772 0.2721700386751893 -1.0978492227945351
P 2.090771967991632 8.408050905330674 10.255722739600165 0.8944129991506338 0.7493670425201675 0.8894548838144101
