# total energy = -340858.8746572251 ev
CRYSTAL
PRIMVEC
9.39281200472064 0.00000000000000 0.00000000000000

0.00000000000000 9.39281200472064 0.00000000000000

0.00000000000000 0.00000000000000 13.74732980889145

PRIMCOORD
 96 1
Ni 0.707011036284825 3.5776374938929507 0.6913626117622564 0.013037035689616259 0.010275928004711334 1.7750934792065234
Ni 4.056924503564683 6.107459863166974 12.297604648946294 0.31575795056846906 0.6937103723878117 0.7608642445264896
Ni 9.414415305504473 4.697805448102122 12.481090410363475 0.007428431253587208 0.41677145156906936 -0.8476993971441787
Ni 1.0098681647922914 6.115659787901789 2.9908553884192486 -0.6948352300208743 0.880047217347265 -0.5302535173503254
Ni 8.657739776624762 1.6176676260353213 0.539390673343679 0.28612110153864273 1.1847355403651338 2.2655182945956853
Ni 3.8981108410031045 5.21335810428144 7.547710423513827 1.8001607065877967 2.8250852161981475 0.34597226936832026
Ni 6.390277427617477 8.86641987723575 13.477716589026164 -1.260979804840854 -0.6391880729702153 1.1962792793386752
Ni 8.528118973256548 4.175433610528216 8.072074476478631 -0.21841778465439804 0.504647386746447 -0.8387573574595426
Ni 4.1227681145510005 8.8201508861204 1.3491468604838583 -0.9551429700408389 1.1011813724915616 -0.9881232816216016
Ni 2.8701333349866163 5.668777979072111 10.345126487810875 0.4239121763789086 -0.26292049505246334 -0.9068411976116576
Ni 8.086929208400866 0.537973298037283 12.578641336272263 -1.4717698977466651 0.2274261588005954 -2.969441088740125
Ni 0.8662840073452946 6.158368903330432 0.30659546761910034 -0.5382537619469827 0.23880843249560804 0.7556207367393633
Ni 7.125772165801876 5.456181075924562 11.480449743921106 -0.8889236939012884 -0.3150951201734896 2.0896131864925174
Ni 0.72716894977095 2.2043708318895825 12.390124784834503 0.5569261415455053 1.3158690006795661 0.06583078245188018
Ni 7.909348707786411 6.5044470555117275 0.5248224221825122 -0.1662508728428556 2.0615768491805913 0.5072434296083974
Ni 0.8546998525051483 4.455621187664002 6.543660166374164 -3.27678150466886 -3.36657059770855 -0.4511825820590875
Ni 3.933239957278259 1.8373279236852542 10.337937229629858 -0.41715197483693967 0.5466610121740714 0.17415007308527428
Ni 1.76808411481348 1.0350972573899018 1.0492249856758533 0.8133114065826121 0.3997965142776276 -0.6981339553768041
Ni 8.854519184636654 7.5098066706216455 12.197758119824233 0.34636719081389383 0.34240280684950714 1.6153174154547343
Ni 6.10105396549327 0.9395066113117625 11.173059644420487 0.6276520473061578 -0.9119101274941327 0.152489300282389
Ni 8.5683765647954 4.079955678192136 10.276679189382987 -1.592545411865541 0.7192103164311291 -1.1473738118872239
Ni 0.9217175649712507 8.280947129732304 9.252227744930588 -1.0622983222731188 -0.3525733196246057 1.2484551900112821
Ni 0.7152870427955303 7.409284798328412 7.105128643943711 0.2495463877384025 0.3687357883170811 -0.8684150324249754
Ni 0.016799983253941237 0.8131479314949811 2.748379950814142 -1.1561777833320992 1.0380836727001284 -1.9506484030591242
P 7.930313463809444 8.9985767398003 10.366049915461819 -0.6758723157651264 1.0826056663719033 0.41646189074845047
P 5.380653475932982 8.426592070096618 5.23869521421519 0.01523327200998667 0.20991668916192235 0.5525650363633322
P 0.6480692634372726 0.14545050915926214 12.348222511942767 2.5563589130971844 -1.9319294864933827 0.1285225050541464
P 4.781936863737564 6.503498381516061 8.989750314515872 -0.2874151377597179 1.0265877562453867 2.3048916541869855
P 5.289233238311037 1.2932305123294148 0.6956297661803853 1.3676013960568512 -1.4127797923657022 -1.432703527872823
P 8.667301659076129 5.116274001121014 2.1549355239035495 -0.39763061697456037 -0.6553703391570327 -0.2740024638982378
P 2.309250968875777 5.699661544396363 6.373853156837067 1.1238394762107098 3.5891278584526183 -2.505057177499415
P 8.126125412201993 7.256642213144581 7.932992293745721 -0.5786185389172744 0.3079970756761276 0.09917002003395825
Ni 3.8196057196587905 0.8611198393966103 5.752253776441242 0.21436315496905017 -0.503533584856978 1.0796247293667083
Ni 1.8894674221995267 7.8141713454291555 5.081425729919825 1.5247922155799676 -2.21107030005945 0.5662060241855346
Ni 9.442499812900921 8.424215688701533 3.9727724237431965 -1.7605199522677228 -0.5795685615353696 -0.016628609695616522
Ni 5.404360933012791 6.8423722470173995 1.7057412047992881 0.8296628513574421 -0.6286856307769947 0.24124095319650068
Ni 3.314760868975108 6.390606176031817 3.3481757970897768 0.03917718442009381 0.7503980548878432 1.0042685239228961
Ni 4.492779151296224 1.9337733156406767 2.4896549487288175 -2.311355150424142 -2.277302945935439 2.347076257974835
Ni 8.416034549590396 6.907408076185624 10.116439697984358 -1.1026852107305978 -0.20448446240275753 -2.328087632687474
Ni 1.8578606103637265 4.467653379628835 4.486729241191191 0.6068243119275292 0.3511635837612726 -0.49373896736405937
Ni 4.7691720324493465 0.6880328599655874 8.188335883569266 -1.6250120170346787 1.1539794901291998 0.33260433270184653
Ni 7.501240426225138 8.105996616432567 5.974039667410176 -0.33360320628000606 0.9413045214958498 -0.7260926453732591
Ni 3.0859519725946942 2.5650735921030745 4.063916512697096 -0.4285908128015006 -0.8685230187577493 1.3502266522238293
Ni 6.534156519356196 0.9606592235715611 6.633113549197174 0.5105033313065918 -1.3135578360478861 0.22721815655484742
Ni 1.873377535520559 2.1897931879165777 6.373564797513632 0.43509030448291525 0.448682184234737 -0.26057873429316414
Ni 5.18027662098703 3.4241495556436754 12.431916222546544 1.78530332985999 -0.4295498342806602 1.2389739899937242
Ni 7.264457032594027 4.366774580485746 0.2864103149786443 0.5019991504903225 -1.7604574744609036 -0.6140318854195619
Ni 9.083450187570966 6.581374184467212 5.216094230369929 1.4820846494091122 -1.4001034824496144 1.7407299141249892
Ni 2.5315412538404276 4.617224515341549 13.297228073866577 -0.29157878221910427 -0.48850394421736515 -0.1323976717388365
Ni 7.6268974629976 6.759264647872328 3.623782499892035 -0.32886003516806595 -0.1072895638172991 -2.592502452897277
Ni 8.977771661578517 9.48523710676508 7.501478064364646 0.3460512022353718 0.5074118368654617 -0.029374596507375214
Ni 1.8982027372091237 7.818116326401231 11.368546601523432 0.531426454612504 0.14507938097156303 0.5182829752520105
Ni 2.9774274246152483 6.664293927375516 1.0179074724446722 0.7362772992157449 -1.7264870310527298 0.8448138480662677
Ni 2.024235486455117 0.7461480653713713 8.379203455810146 0.8344101362344403 0.842759022419768 1.097151425396562
Ni 4.924895459916131 4.4539116959094365 10.270066649848841 0.23326513407987567 -0.23931828225249108 -0.839414017206935
Ni 5.838036448397852 0.18746455651187266 2.870827463781465 2.30161786853172 -1.1189667214994408 0.05026069592776505
P 7.399891986490135 5.230396664956073 6.107347149424914 -1.0317618442471588 -0.2744534353927274 0.34006233164178856
P 6.01020668939346 2.590706575609731 9.868424379957037 -0.608095722440785 0.9983578148654161 -0.8951329080357938
P 4.10271446127628 3.3301556875780434 6.877871440078981 0.5499201425413174 -4.039991109499074 -1.772261151964051
P 5.833152186241948 5.9497827308378275 13.446138894907062 0.834367455921963 -0.07953604785311463 -0.12196593488255124
P 2.710098606886062 8.08979401601154 13.387177397154648 0.1448857769035182 1.2047695761978736 -0.5380066789331831
P 0.7931374851547169 5.848415505479148 10.536242030284285 -0.16303699389124826 -0.27607220194307297 1.1139083331399267
P 4.6340000772847105 4.889493952097668 2.7855388537275476 3.0350684969319475 0.8106523716932102 1.3049814072327848
P 3.2492272207794533 9.124722202788353 9.967363563455521 0.2152779534738357 -0.13464635856369714 0.3109942106312386
Ni 0.4758107300103857 8.533219270084732 1.0024816575626707 0.00458787648099855 -0.8369688981005521 -0.7736246295159516
Ni 5.724843672934783 6.9454489641306445 7.1379020430098254 0.41134848078128516 0.061531897966210156 -1.4126183270871737
Ni 4.595949796527853 4.148316562751113 4.981716335850602 -0.8261088154575966 0.3095685339283056 0.5979290663204283
Ni 7.570578163215294 1.555618711031667 8.849843442903559 -0.48825223321787525 0.12334867416269077 8.767461779984901e-05
Ni 6.201604016222019 8.60565663498152 8.942362639510582 1.8388108148598268 -0.6477642446750006 -0.1761128532385999
Ni 2.8520239937624194 3.5067781213849933 8.501912088946572 -1.5327238117222184 -1.6938329924631343 1.4383442710983683
Ni 8.437027484048944 2.437988847931194 6.5812999812536885 0.47832777501531165 -0.7027300593879188 -1.2053917831629046
Ni 4.369066426574285 8.829928803244046 12.002930538112334 -1.3225255867641352 0.07998264847223001 -0.12602133589884748
Ni 5.5433087985364145 6.262901506278611 4.524672443893092 -0.0783559115020844 1.009331026047468 0.6252745482129166
Ni 6.725356597136151 5.426283755843329 8.972991659634019 0.43532993129754705 0.44926428199045204 -0.27188516044491884
Ni 2.9678091852928534 7.792417593211708 8.211238376674535 1.541898536242951 -0.34448668596172927 -0.3078114420278828
Ni 3.7543162845709306 8.897040443828532 3.8044776569120624 2.5494943247668673 0.8148075315121643 0.6881997269822276
Ni 0.1524960573191533 1.176383933061256 10.17002662880291 0.21014706000517358 0.03434453891814085 0.004322795745069974
Ni 1.2713640463699074 3.570301707847257 10.320326646714275 2.402360889479753 -0.6774396602522462 0.28933035250455974
Ni 6.225226937995284 3.2924059768000102 7.37267913203228 -0.13059327154024605 0.22396648238676914 0.39136278168797756
Ni 3.1592252977450888 3.950410017318628 1.837743085968506 -3.440802459739932 -0.504981373047098 -0.7347873449337797
Ni 5.656717608671764 1.8811735693463287 4.790903241918383 0.5632086321201075 0.7301652727807361 -1.8516447333997015
Ni 6.615742482983465 4.096919096372064 3.9165865018889945 -0.24967237179330548 1.2568534413773065 -0.13434708215572347
Ni 8.759088216359766 4.433087832063977 4.682546825270842 0.5219074593784754 -1.2925200415409805 -1.408460339054742
Ni 7.157585619498119 2.433226692329188 2.5932416955248816 1.0421318746275732 -1.6880660080723702 -0.6541097272770541
Ni 5.3761918903098005 3.3877242313348397 1.358123570757699 1.9487010495247665 2.8815142457201532 -2.747784742543771
Ni 5.731371677162386 7.321339901086629 10.824661467715137 0.23519963209842717 -0.6797030023651262 0.30948445885493153
Ni 1.3946353089354473 5.656050719031247 8.345151695052841 0.19054651216542667 -0.3550426071007047 2.7750985998673756
Ni 0.3724475321360726 2.2344090441483906 4.466342143096211 -0.05892711335351142 0.7728874942396109 0.5616849963867294
P 7.904736837173817 0.6554980383201654 4.656577579100376 0.15034294336334753 1.4200238755226253 0.4238101035834056
P 0.6824901616998205 2.4461230229831417 8.165790317313851 -1.1366024323033328 1.0843540165215777 1.0511723875632863
P 1.5836938256162756 2.4911051988766473 2.5949324016557713 -0.9994500194883303 0.46155286954981806 -0.1471239222054176
P 3.336364336203144 3.609385197906325 11.61529764707732 -2.1223726403117253 0.4314851036301601 -1.3773510192444474
P 2.0258040860321094 8.386494156359015 3.0500648564041914 -2.5131985756596267 -1.0215723053086663 -3.0852101507833445
P 8.087699418971605 2.966691440684098 11.912858168989183 -0.9417220686492427 -0.8115761690590605 2.3600736986757678
P 7.934061195732916 8.320622366937183 1.9370532855346028 -1.1190389694982728 0.19357552879973758 0.38744184936701664
P 1.9089387211402737 9.334087978663534 6.455924728836376 -0.1354544562872893 0.18274758494629817 0.11683092764883106
