# total energy = -340870.3282472034 ev
CRYSTAL
PRIMVEC
9.27349349270509 0.00000000000000 0.00000000000000
0.00000000000000 9.27349349270509 0.00000000000000
0.00000000000000 0.00000000000000 13.57269510566310
PRIMCOORD
 96 1
Ni 0.25164088261184514 6.20979089906597 11.722017562233933 0.07536623274614117 -1.0255168917787114 -0.1897708103416667
Ni 1.514036914728783 3.448200178551817 9.138156126513529 -2.26973850332462 -0.6806679373815568 2.467283558295067
Ni 5.846891278301682 3.168335418501592 9.429888176183564 0.7401108140292221 -0.4818337312860411 0.5445249396676751
Ni 3.3626614745953147 8.089963883787231 2.086475757657982 1.3331753531684973 0.8349472396848331 0.7302575753842262
Ni 1.576697910244187 2.1719170899328337 4.762889440461763 0.04915512156841212 0.7166561825507077 0.6543655520416022
Ni 5.725807273796041 5.023367962370069 7.89058099169313 -0.07845618452537458 -0.8090333480325484 -0.6020510589086018
Ni 1.567285314351315 0.8440390655806776 12.84674580143614 1.3890688219020078 0.6122197719114876 0.9640050484171592
Ni 2.8849560044184623 6.439263495488742 4.021779661180349 0.03977702278762182 -0.3262259399793285 -0.005606547553500022
Ni 1.2382988592818374 6.558910108503354 2.3535727718704673 -0.2212845646792318 -0.7045329169246124 -0.7005135113525742
Ni 3.508654082616478 4.029082537304129 4.38706164242235 -0.9956532714500594 0.37354529389058244 -0.07166795795894754
Ni 5.824421603574167 4.901282420567451 3.983518154387837 0.051878691147162266 -0.0653543570360939 1.6113242351349408
Ni 2.9704483409075118 1.9790191518366504 2.9076649352780333 -0.4120665898942323 -0.6688583463411384 -0.41981049550570926
Ni 3.48866970414442 3.2864797255707416 8.466416715287904 2.6985907973176237 -1.0254297313815437 -1.5603253754895707
Ni 9.427989892066055 6.986445978896525 6.813981256357341 0.14448031393498342 -0.11968150972374873 -0.3602454914578828
Ni 4.309512980457275 8.770313733718798 10.67195207382255 0.13450880454456834 0.8415444332863766 1.556012864157146
Ni 8.88237462905817 3.474073225390351 5.7958935555492985 0.6152966110645984 -0.1978834121464721 2.3184359685303235
Ni 7.074303056225656 1.3909498356291896 3.717235352903819 -0.6075033402724247 0.2676556957446036 -0.9497307978863323
Ni 4.165356524147234 3.8297673417125098 11.039459693502275 -0.29458800135907326 1.490881935985768 -0.4565749567192524
Ni 8.069089249940083 8.409519195976856 4.987001957647018 0.3418438490222435 -0.716032947144412 -0.42449993056157864
Ni 1.6118166300927637 8.657696428769993 3.429711614579779 -0.10384017181611793 1.4829045742072462 -0.11292593616747003
Ni 1.10703255892361 4.705741536826471 4.180946194054137 0.21012006342198006 0.5057784150270966 -0.15710880133227137
Ni 2.2601265600146037 7.198669877426941 12.08525010141453 2.123012587888569 0.8396788408325475 0.2692940026789749
Ni 3.7262844278518625 6.454101085073564 0.46680818797614926 -0.34438641293843913 -0.06470463926723695 0.2722782821182795
Ni 7.152042752156635 6.129491718931609 11.751361677685967 -0.6019703262693374 -1.5910526293700986 0.25598211606141724
P 5.889484433903613 6.705755877925645 13.62332112922268 0.8836596172888718 -0.23979599321985795 0.2891323775611408
P 8.688169128379823 4.715441611017549 7.89033709881433 -0.7586883199210934 -1.5712134831569844 -2.052644322577652
P 1.5196566517840346 1.7256209422083526 10.96171536082455 -0.7846937428459195 1.1239523476394901 -2.0303374315503357
P 2.7955038862089636 4.614416172931888 2.1953836652105796 -0.6575652899258223 0.48547158514894456 -0.37929170945605645
P 4.855897943424875 0.6921985925643963 3.0901635777739545 -3.1360161776916184 0.7745132027684919 1.475560475137349
P 4.480729490772637 3.641469056387621 6.347542153422114 -0.0009713627743338111 1.0538537910501915 1.323131338668934
P 2.293279299243192 6.759607054625061 6.512260726848672 1.186575164677034 -0.9248060096201943 -0.039037573518435995
P 6.372763273668265 8.591910265948288 7.678250447987574 -0.3883121677871119 -0.4821165526337826 1.3156586844409728
Ni 6.1786783284052955 8.483280563200406 2.9271828570275185 0.57243117915964 -1.6381858354124752 0.7485165215944141
Ni 0.9730676719596436 9.278222972194254 5.561506934925904 -0.2683295818831766 -0.0904156708800959 1.3818843883384266
Ni 6.460824367854187 3.1988359385918925 5.482907586148353 0.7735750072249388 0.0657680475347448 0.3271350820571592
Ni 3.3624018167775804 3.9745822160603774 13.281181150986257 -0.7243437810029526 0.95290148230483 0.8020222068220381
Ni 9.022589850634743 2.2065628616133943 12.39203395836902 -1.5928858259240952 -0.6747330599543605 -1.0670821168150073
Ni 8.518584752918793 4.204527760651165 10.300467980134094 -0.32299714862938567 -1.0020738302644225 -0.35557379701382635
Ni 4.516970303333566 1.9335512132526596 5.049368056069423 0.012129693383998464 -1.3869553751034307 -0.9152623317958172
Ni 3.93493803138843 8.279402808811453 5.0266479970176645 0.17106140685762156 0.7102322813022349 0.005731246056822388
Ni 1.023135263314929 8.788563968908129 10.744118400165732 -0.7238251894953212 0.3836152765320748 -0.4720424562272322
Ni 8.262673426554565 2.3670406664667407 1.248037882145575 0.21972364795001514 -0.34725910650054387 -0.20533369777693025
Ni 7.9670900950379195 6.274594071577683 9.207268691450283 -1.6322584141844472 -0.0014475310798039585 -0.8403085039967463
Ni 3.4725801929383784 5.620182182939085 8.475604892638305 -0.02165768747909173 0.4245636939199785 -0.43802856117563266
Ni 8.923762230506334 3.0066335125074977 3.568763940072641 -0.8110714615085001 -0.3541627755989127 -0.6357818755021437
Ni 9.06099138717896 8.67241346293944 12.837666123959579 -2.6901053855544315 1.3179793621543494 -2.263340055997444
Ni 8.471549593934904 -0.1350025908855551 2.0152599643975795 -0.1263918318643888 -0.42182983992858314 -0.07965226171600476
Ni 1.5053476513281714 5.693359320072731 0.16575349530009983 -0.6371823553940962 -1.3456665436569728 0.23972657343450327
Ni 2.6173508027626973 0.5693071841774525 8.687474543717384 -1.4523837799105697 1.5799881440258208 0.8931305328937844
Ni 7.885279335464604 6.91005093952167 3.179946759701065 -0.24637673176116925 -0.9330253122061931 -2.083724588922224
Ni 8.789982813412177 4.8721080100462935 1.8962272566520386 -0.18928384340291915 -0.6840743919599445 -0.20043960290942253
Ni 4.378609780455095 0.23406019365252853 7.354961627318668 1.4259559247363442 -0.416738798558921 0.19834441094329067
Ni 1.3447400175659578 2.2079724326239525 7.344483507023737 -0.20806549488579648 -1.5325577184579993 -1.6769267036260989
Ni -0.09511451333480683 1.2110718823936877 9.26812877452983 1.4126255261760252 1.0746905252898846 1.0686574317219275
Ni 5.511960513904785 7.47320237872012 9.349510171354533 0.2723019362673633 -1.2613122484796084 -1.2814121045532771
Ni 6.693366490622318 1.7171078751840607 7.463434608026561 0.44117173479030475 1.658469525362176 1.9971408901937089
P 1.1038053831889112 0.8431200623757679 1.6764723540579771 0.7283333617783199 1.5629314456538501 0.3262156555666833
P 5.855830926026538 6.924109555653289 4.821360671618153 0.6425454194782224 0.7969908150457178 -0.2645829703565508
P 2.633505228423173 5.754703479512482 10.531543036232025 -0.2393308806579814 -2.6525233135355997 1.0058263553283193
P 8.251146474145855 1.3391573744846685 5.466240336297852 1.5816704168242504 0.7519738840153952 0.8643269783985309
P 9.039755087085684 4.224076284929169 12.956480904608094 -1.5277595257384076 2.217570820182129 1.3912102937250428
P 0.4076303166157827 7.0946398274503535 4.295079715188638 0.2962525335456898 -0.7789714956501617 0.9769047871979627
P 2.9134627234083026 0.9223731924443993 6.028529340601684 -1.5024650128376769 -0.1023425042246689 0.01231275592908202
P 3.463288152460883 8.869632849002203 13.008274293101964 -0.017672734689414726 -0.82812687432889 -0.7730787843148105
Ni 5.849571317920441 1.6391363419158183 1.5682163730977627 1.4132621313187597 0.9380890998823458 -1.4974932706546984
Ni 4.828782248458611 3.495912302560512 2.4095466512298613 -1.6463794269668612 0.7475806400437061 -0.9991065201059824
Ni 1.430927866066796 8.24580494189532 0.5686728772227013 1.6428323330455514 -1.285681164242276 2.0403009705209505
Ni 1.3171421009381878 3.188774198154685 0.5900334421287514 0.13927665824685692 -0.7791956958458258 1.3211320488507183
Ni 1.8613014254680644 4.491616572130501 6.690809788466984 0.45969267641262773 0.33109021005016526 -0.6646638486438166
Ni 5.2970102082881585 8.825444652519904 0.6820533906857738 -0.0808090010282673 -1.1748535053647313 -0.6423153057452873
Ni 3.6268354836595895 1.5958847682760604 11.407551543271902 -0.2438778765987155 0.4258078507397247 0.8667435582598234
Ni 2.6793070127728216 7.585142718644116 9.586204964507717 -0.17887678913698227 0.4926349356666031 -1.3839258442484876
Ni 0.9942761515724494 5.599400284026842 8.7811127168885 1.6091704220167318 2.447629017288933 1.2403654710246121
Ni 7.94601144433398 5.432774152989285 4.954970383781433 0.5439145597771858 0.042373579870204445 0.5955898766642904
Ni 4.700158893745181 6.316120775428205 11.813443079858214 -0.3894876761524518 -0.11397751736043597 -1.58008250351184
Ni 5.38577608797936 6.211654871257563 2.2604372220465363 -0.2968873389162113 1.0279185592416684 -1.280024480177131
Ni 6.947348930340518 6.708092798285254 6.918043763561144 0.08715422652000475 0.351200350536479 -1.108729617152465
Ni 1.3806748048417 3.928344577516674 11.592181234571944 1.7101435566977001 0.06004888566278046 -0.7232834580592382
Ni 8.556800819593201 6.881034178389852 0.38945797877177124 -0.9752091446630946 -1.58681673691188 1.4901298883110916
Ni 4.22842555337622 5.847596063806962 6.022869727524423 0.4349774330541348 0.08785870878619707 -0.2501729655788078
Ni 6.892088182630544 0.15830595267786796 9.63935506509925 0.06261741772090507 0.07555855126260536 0.698463570802081
Ni 6.083921771919223 1.181906745366021 12.072518522201403 -0.2656867449436908 2.3150475116740648 -0.28040913875553
Ni 8.426906996271569 9.24908565564706 7.549255226185174 0.14250724936901263 -0.6040691177798951 -1.7415382689588974
Ni 6.65589230342715 3.635645302475578 11.926530550926985 0.4300257454758143 -0.5083790858747375 -0.9930343457699735
Ni 3.5282026068944816 1.4050826397087333 0.6233382666505839 0.2747555400141784 0.8991093761850386 -0.20921015001320098
Ni 6.593537333196934 8.35005755571568 12.098591876499333 0.4226862743916075 -1.309264607989171 -0.09218844650980251
Ni 6.3845313369077275 0.29212524579403343 5.87445210095549 -2.416678591654006 -0.637112164277793 -2.557539563668847
Ni 6.665518189670305 4.611532116456337 0.5113135379358246 0.3126589999281712 0.15659046693495612 0.7118687884643934
P 8.352923065204248 7.6520046067107215 10.716036407177755 -0.3768918417653122 2.6753567664903475 0.9472242294143944
P 4.502104893268272 1.3729314377771207 9.365199994991135 1.1384736811841167 0.39049683414325653 0.3652743121310419
P 6.922579429227355 3.621911258616127 2.603623250348689 1.7625791487895968 -0.1225464899763696 0.003329064373232976
P 7.6033744068464655 2.076409380474029 10.45481600579021 -0.7233683044635606 1.0411792809063165 0.3892827592304973
P 5.109954571090999 2.936562995693173 13.314881953680132 0.9489054737715595 -0.44063848799465405 -0.06383380662650942
P 1.0865845057770267 8.453215897304158 8.278393852719685 -0.8958718430843474 -0.5444334083951333 0.2772770208844515
P 5.874006973267945 5.481793839580143 9.99558426199581 -0.0804737291760356 -1.8149478921992999 0.9164085295851185
P 7.297219292750634 0.5090702798604692 0.21869586963744478 1.0585871919701189 -0.33779050488847634 -0.017457533354815095
