# total energy = -340895.1015891716 ev
CRYSTAL
PRIMVEC
9.00544353611314 0.00000000000000 0.00000000000000
0.00000000000000 9.00544353611314 0.00000000000000
0.00000000000000 0.00000000000000 13.18037689929066
PRIMCOORD
 96 1
Ni 6.365038487368576 1.816785195730609 11.250308796347733 0.3012862393148553 1.307657411403051 0.35039122437162235
Ni 4.57430603979403 0.3955307872751114 6.110145711829807 -0.5324314988382507 -0.7402095443906155 -0.7495624463604252
Ni 2.714348747741207 1.6946713813523797 4.674157497201432 0.22446939016511666 -1.4847794226324558 0.7460114957843733
Ni 3.404381853413583 4.333509485025633 4.716202111992662 0.15344652198933575 0.22966481832312702 0.14434635946028043
Ni 5.104897767622266 4.659758693528175 2.5053260994087023 0.4662860133594292 0.14193800712910393 -0.06015327245112865
Ni 7.4338675645889944 6.145305665036069 2.5141172133907106 -0.4776258638522806 -0.28637049854528746 0.25117903824581905
Ni 4.920745452709257 4.460558282462805 11.48646124388347 -0.543856709956057 -0.4269530200877614 0.22663631590944838
Ni 5.574378555600158 7.724194058817587 12.30873208355974 -0.6412125595994118 0.6649297007106936 0.47163647903806516
Ni 1.8677470007133816 6.59029164659001 0.4005981503540664 0.5789342703854804 -0.30061646694134037 -0.3304867721382115
Ni 2.754431976929813 1.5065566712825549 0.4129230003804708 0.5810901403862185 0.10324958941997057 -0.05063427721709989
Ni 0.4790742869791549 8.943882326190225 4.54837666621444 1.202786998550206 0.6832621804712943 0.5669740126998106
Ni 8.564825196779575 2.118872799220114 1.2997052353871146 0.5057879281087935 1.7710465628306598 0.282944503582874
Ni 7.037673076125117 0.5907652010062511 4.9044185835744685 -1.2201799972156726 0.21568290222173825 -0.9427577090026087
Ni 0.7294967603455528 7.401429956964334 2.4368541100102195 0.7393312555507202 -0.294845368785518 0.22274392283357766
Ni 7.737251951948003 3.925724990728069 3.8737518744359547 0.5031296645503399 -0.5018525976101292 -0.28914651862852786
Ni 7.687676985270116 3.672041646256483 12.610984486665995 -0.13411465442994322 0.28994484616010713 -0.4706687158081571
Ni 7.6888206765994696 8.578360378417514 7.047283685469101 1.297111774676721 0.9974443019122112 0.5077594500128675
Ni 6.837310962843315 0.7388543167261146 0.49053641551459815 -0.4723615301295478 -0.788139792412991 -1.1014287126156772
Ni 1.7523242308840483 6.460226025567535 9.240287494807115 0.4672386070806856 -0.22365075091856323 -0.548325801471004
Ni 0.10743854358834982 4.952597706503932 1.3568015485081213 0.07735112438665388 -1.2432399643589298 -0.13916712925218613
Ni 6.297542688049636 1.9548296397279445 6.856089113709206 0.5684151160217114 0.41839510321542134 0.5295732034538493
Ni 3.477686163814673 4.133201404405062 0.561846920716327 -0.5178983382190823 -0.3242449049935577 -0.2927095533894378
Ni 6.094118723964841 5.511484537929247 4.764178612442515 -0.7325332587922804 0.7817948240315697 0.17926245461117515
Ni 5.046542493494616 3.174562934318273 9.068388886916559 1.0529932428221092 -0.8827427619015571 0.5312894148140076
P 0.2704721928598852 5.613480191443098 12.435619683557578 -0.8163640773660068 -1.0830304126141477 -0.23747582972711356
P 3.952381103601193 5.945790063446862 12.73930845490818 0.36632872153748525 1.4096304481034432 0.07323555955638356
P 2.4322622343500826 8.44658372312278 1.3803543855379752 0.5629841748141272 0.684527163226647 0.45806773921469496
P 6.155238669258724 7.695511721148364 5.856094044717508 -0.4575092956080637 -0.26101813582342787 -0.4593080393796993
P 4.653094665309895 1.0892984503827863 12.345176213014554 -0.32672679087514694 -0.4030163067665059 1.8652150158849683
P 3.8827059869460046 6.090075279816182 8.208382537182095 0.5122100295850534 0.9557353522091991 0.3649992040927843
P 4.8246213483823235 1.002666083545134 3.940629900328173 0.3805042417069189 0.5665376964933404 -0.619326815269914
P 0.3356292784919502 5.609031502335219 3.6388520840963823 -0.06576470510063513 -0.13850815551194856 -0.28907401351937956
Ni 1.5758085320914474 1.158064017240615 2.597114082671984 -0.17255238958085123 0.08450187649882221 -0.27836665440420444
Ni 1.9781267221613132 6.572199710521731 4.810204533821991 0.08083291228766723 -0.3215917836414268 -1.1159060802962457
Ni 5.872224595183162 5.516500569980034 9.250528485198776 -0.0022386595225316287 0.7695131784507392 0.007567527934612773
Ni 8.800488648731188 1.9054257764772835 10.09026358152871 -0.1793745547090072 1.5810608082647093 0.15490870835715903
Ni 2.3397222965513595 5.18459594293549 6.972735723315384 -0.060738712640953464 -0.031167169631423745 -0.15951098301586078
Ni 0.4964989196812519 -0.20549881827599994 9.127608683623876 0.5770064572351482 0.4546142334484558 -0.2554560683546181
Ni 1.445688878407743 0.8115165390029299 11.569537361067882 -0.0059001675345188714 1.3071462760945876 -2.04490273095902
Ni 4.296326008656333 6.948339076225999 1.5558911926179717 -0.3208927006918732 0.1547536708365335 -0.45176493692511877
Ni 5.5404820661223075 7.871198919135449 8.026810281842785 -1.4956415621579402 -0.5101024963237473 0.10757392782693731
Ni 5.464395073667908 3.05327762074556 4.601559213573738 0.05783979382660361 -0.3807214999240475 0.8593683488416748
Ni 0.7848514206862679 7.341822926184873 6.710209033289267 -0.3782074752529422 0.616485489166377 0.9167510005262017
Ni 5.003550506043167 4.586670513772003 6.97501590161926 0.5624907801174764 1.516581140524085 0.2457254713304155
Ni 7.992187053071402 7.0832496258720345 9.17525558484023 0.16593848380875936 -0.3328742985337816 -0.4311655155072123
Ni 4.574513164995409 0.20983674042835931 10.430831445257018 -1.178927418323789 -0.25571960642864994 -1.4822749110430473
Ni 8.02872213750595 7.1996810053776485 4.8233722933635725 0.17335508798780466 -0.6562625119539988 -0.3353150467647903
Ni 7.185056165071583 6.199014130297998 7.093296999227624 0.20257361853328984 -1.5778682694693407 -0.17684664608083092
Ni 2.4230586710540245 5.325071856688145 2.414354909874337 -0.23986489878458048 -0.1266733676605496 1.0643999419971542
Ni 2.2636082877663455 5.116604844221949 11.562749057728773 -1.0417526369112833 0.07208370534012747 0.07150983511452846
Ni 1.2676512596571834 3.482269934575626 3.6620095821549086 -0.7443839874832793 -0.07133242899639972 0.19543315083376667
Ni 3.8169662491170167 2.7338365275579095 2.757664030615679 -0.8521517764885777 -0.6028979802899295 -0.7895371869811499
Ni 1.0244952786817734 3.367603622003503 8.047516498170209 -0.6228158022597791 -0.17102746829589255 0.09889594043696516
Ni 3.8203973231050776 2.7970727520832726 6.70024451001423 -0.9689793617032989 -1.617210004491757 0.43177152452232737
Ni 4.031250778108902 6.838994980784962 6.086434378993681 0.6601065682904372 0.5677371161180803 -0.2770379082904519
Ni 0.7111040424630973 7.39993505333699 11.337576046954828 -0.3481307104722198 -0.11179387944555585 0.06707159683751675
P 0.32754869400510767 5.576017546324113 7.946594293526114 -1.334486101560121 -0.14826806311218982 0.04300324303440336
P 8.422854379399576 1.4746774011572652 7.947042764614317 -0.5104169422403726 0.1582560275628371 0.13301216539438385
P 1.5467209494630048 3.3478456788806534 10.322568003040567 0.16199595422124358 -0.9044238464194165 -0.3659145168182021
P 4.089227823607946 6.149988495675943 3.7606254927088667 -0.311946804352495 0.36066432416285626 0.0015660589355392383
P 6.728426145022728 3.9327762530184938 10.603520731090232 1.1572836148017682 0.0760894840654109 -1.5947300782216858
P 6.1021065523832405 7.640011172622331 10.157694541654175 -0.10771610983175642 -0.6501088336477772 -0.10855223257980659
P 2.3979334835823978 8.571002931046792 5.739105228256879 0.2411514788064879 -0.037605726167915875 -0.052034499998736196
P 6.8973322440255345 3.9451497324400044 1.4945758291993103 0.7690393241381143 0.36605361349922766 0.5819100651843526
Ni 5.321721831691929 2.7067391479514127 0.47193927406382524 0.12341783683772937 0.24611036547366 -0.1952943112630572
Ni 1.3961139117298558 0.9921927527101871 7.1067277177205215 0.022695127604670594 0.5685716962042336 -0.9865736777462946
Ni 6.702067211786365 0.6217322197011196 9.219634410596566 0.06530113520065528 0.7765117212557594 -1.3099058411175957
Ni 2.699048499169775 1.7944607011993676 9.048935327785301 -0.06361320597527109 -0.08510634285204052 0.46671410203578334
Ni 6.496680061010239 2.0470994142205208 2.6393307014347935 0.03570310982856432 -0.029267895726181853 0.3080037605443469
Ni 3.781971095527503 6.648097588661828 10.611640038984287 1.5453453571409708 0.6065366054837812 -0.6195476730314685
Ni 8.079710958819337 7.292013817974992 0.17126552520982002 0.20783666670444206 0.1291637381825711 0.5534019304423309
Ni 7.506064205434884 3.6125696971300947 8.277540741378191 -0.1427427624185864 0.013294146005744845 0.18493842195002988
Ni 3.047451098776333 8.373891782882287 12.339363199210633 1.406448965051668 -0.7082939266289414 0.7683600386829025
Ni -0.12682276080436294 4.787663008101479 9.998489106430736 0.08311502345362459 -0.3784787266364579 0.6902355264653338
Ni 8.654735545065138 2.1841802757592674 5.8681406265385805 0.291666199726588 1.3966654033023431 -0.565567105049955
Ni 3.350169083313514 2.5498643215156642 11.286237814432159 0.552198654162849 0.31729418470733745 0.5186691549468357
Ni 1.1256714368336467 3.251937705198637 12.56531428030628 -0.8067741196847267 -0.32854944590618257 -0.8265165924189766
Ni 3.04226396329832 8.559376903438952 8.08593732248166 0.56781682031608 -0.9441149943614514 -0.0016815014674809751
Ni 5.857167493587263 7.646242939550777 3.5852471814351428 -1.0414034811019808 0.8751569791344993 0.1707176503649576
Ni 3.300251909781174 8.250156988667179 3.449937690640364 -0.36451737936035933 0.7485789994012334 0.8249816438316889
Ni 3.216969567939739 4.4566499199672185 9.471537378880647 -0.09488836193946883 -0.16223506681524316 -0.5220920645854557
Ni 7.351845984842909 6.1987889942095435 11.294238250471512 -0.20792742664603545 -1.4237766576968383 0.7343543711614192
Ni 0.5467393886366134 9.19014518518632 0.3931110245963923 0.5206561034698775 -1.7835907180442572 1.612253946038062
Ni 4.725948703534074 0.5693466540949546 1.7251791224267994 -0.5245338412577288 -0.9321354534020722 0.004816190441720737
Ni 6.143882804957031 5.6767794540732295 0.26568309798626116 -0.37158996993642457 -0.5700133137467667 0.5933959543367652
Ni 7.687001577004749 8.732092305058426 11.221166280513707 0.7685914379674182 -0.40450317572467753 0.3610559031743201
Ni 0.07199221727757199 5.0663904910528474 5.8163287076858 -0.16110892363059995 -1.2593414979064828 -0.31997404553234565
Ni 7.984694524047605 8.84811843960482 2.5676824921003814 -0.7498013018441086 0.34213901166515914 -0.12762853248496728
P 8.588869731026614 1.7490732657667518 3.5301401707917286 -0.18815332934290177 0.08881258805903414 1.126033655648551
P 1.6456637576174002 3.1600101375605134 1.4181430277130436 1.2968646916629214 0.28533768640539886 1.8054160414494649
P 4.6405590879046965 1.278646906217347 8.174601317381535 0.25013697013454983 -1.1854107120552877 0.4095211977645592
P 8.463270809999097 1.417645927229734 12.295525600610944 -0.8447737388569516 1.5930447200994629 -0.49304888327557017
P 6.346289153922007 7.8110605671872335 1.4154936262240998 0.020064117739726734 -0.14166932684874955 -0.46804207681858745
P 1.8633253279361168 3.2593852070047435 5.939618632990121 -1.079610331189005 -0.16917396002692156 -0.001039497008107887
P 6.8928115113693496 4.042507582531674 6.168047111603131 0.9362659306306779 -0.5152758129945707 -0.8949770991842199
P 2.3419916683229904 8.267231309615639 10.215411329834964 0.41171126343734255 1.6176054401579625 -0.05417391493924219
