# total energy = -340869.87579658494 ev
CRYSTAL
PRIMVEC
9.22380107121390 0.00000000000000 0.00000000000000
0.00000000000000 9.22380107121390 0.00000000000000
0.00000000000000 0.00000000000000 13.49996522382246
PRIMCOORD
 96 1
Ni 7.09850819701064 5.658663620755928 0.3053151956085607 0.7070646822075307 -0.6949007931514871 -0.36859849140826845
Ni 0.8903550730406258 7.408114304893136 4.764880060844662 0.504473580172744 0.5607889669350213 -0.6928295124447552
Ni 5.90352786868409 7.559689028447718 12.851508243565538 -0.9180602062559285 -0.14221414360862603 -0.8175606687772694
Ni 0.5104101026934225 0.41763618880159914 3.903501558974652 -0.5727682507840846 0.10224068853948198 -0.022311004792374477
Ni 3.846177479868767 8.960775192460211 11.946929146841258 0.5426498341321494 0.13458799452193596 0.6145869865920834
Ni 1.1489351132115702 2.815196335184914 8.166979481284804 -0.6255918223430194 1.7979598422817358 -0.4117434022268586
Ni 0.4353468093028558 5.004410184593938 8.713080159973 -0.9011297490491772 0.04121632633730966 0.8962935040027983
Ni 7.693397249262371 5.9093665347834055 2.745379539862737 0.017971753987072275 -1.607706950097328 0.7523173833977431
Ni 4.89094820720424 1.1829893868903574 8.96315308838502 -0.3251759014482593 -0.26195376026381983 0.07199988737706955
Ni -0.11600128983383912 1.0904193190029494 7.183439112823082 0.7438504835773125 -2.0407979647620276 -0.2335703240251203
Ni 7.949108687289734 3.029695829876193 7.51485028651724 -1.6641814881452888 0.16725565995828615 -1.0990915798420684
Ni 1.7054623766685897 2.32029328690882 4.82352406588864 0.1472434785024174 0.5096186147087933 -0.40440058870854223
Ni 3.831760678742021 8.414264977002965 7.358398939318572 -0.1954490916733666 -1.0087923799351786 0.25739416591759545
Ni 5.283485510819668 3.3979191937794626 5.454431139074363 3.771822478673795 0.37720885878509874 2.3862683547932644
Ni 5.215994958136112 1.3388070589531298 4.09348603508969 0.07643529744060384 2.8882891025501416 -0.6783891686497091
Ni 4.952009770517776 6.451993529975545 6.25938027054565 -2.718470824071002 1.1884422997927597 -2.2891981547111286
Ni 1.3037289433517136 2.1644294958405244 1.6511803071670557 -0.6166191865307639 0.17129923390004048 0.5985900969431949
Ni 7.784869684818313 4.1832520674412494 5.631173003943291 0.879999137718149 1.1388835150280254 0.6140848501446844
Ni 7.9210867795334625 6.338863609425619 7.571536078586676 -0.26036019052445486 -0.7129113707962949 -0.5714161076315643
Ni 4.641342925508232 1.5836436354779762 13.044341029461728 0.8003479044434088 1.2890763059667543 -0.6822072568442187
Ni 5.4898403891354395 6.7956908067412485 1.7723026513742595 0.025993595850284264 -0.7274257623623859 0.21731401006725798
Ni 3.2537696301142165 1.8054114854398084 10.90050643672792 0.8165630807506905 0.05214942831004567 -1.1937099759496024
Ni 3.217132692126095 7.195321213406239 2.425876293394829 0.5392966013892002 0.9576999321347377 0.24588128018198946
Ni 5.7438915429639446 2.9211870336797534 11.390150073614077 -1.7381058462385808 -0.7359368851571906 -1.5500039389589046
P 5.00553548832872 7.044954807796382 3.9957192776598576 0.5159736103925437 1.1971719663562737 -0.25975598128155264
P 3.6710636158948287 8.630489322500834 9.680757435294748 -1.5926605972871668 1.1122890523689488 -1.5505796089567168
P 3.3960190907518815 3.522634208516972 12.396032333111757 0.9688752320252669 -1.3384538279586173 -0.17066777096362865
P 1.0901057097653875 0.08403897424561212 11.967166166465109 0.013581852449492737 -0.6870900388578166 -0.5811143087559347
P 3.093552204924472 0.5107089538492167 2.3723081460988036 -0.8109585900797196 -1.2904600736881582 1.1491676705628533
P 1.3179059256497354 6.1223348784912925 3.0210356030189303 0.5472999313096509 0.7231818994843674 -2.773445380534669
P 8.4925566007802 3.001000584639273 9.424797877017667 0.9546896845535043 0.9211712410810845 3.015509343853097
P 1.666454921796544 0.3936515387888822 5.9989932877382826 -0.8854431915518556 0.7772444856567259 0.2013045220128791
Ni 7.994342207907495 8.210437420189898 5.878114451880244 0.6920070165434599 1.56657418461276 0.08995030120790315
Ni 0.6600635084778812 5.214620611771502 0.7981677928990655 0.09939293467804172 -0.07049810602056246 0.5519813959457204
Ni 4.927243864551485 6.175998953318808 8.43892296449633 1.4449913441012405 0.3467672544657899 2.088712786165435
Ni 8.217945594289176 2.0007346976342837 11.43726524965721 -0.5850768929481085 1.364247906203586 0.9509736691544977
Ni 4.792152073571117 4.922272235756019 3.4923736842325743 0.4025313967102874 0.5941806550215897 1.1856721932467904
Ni 6.925294436064283 2.955711721214884 13.312343182461188 -0.13337623360202192 0.5100983825586892 0.852850345217499
Ni 4.003609317124873 4.748975460599719 10.343660029752677 -0.4656239542953981 -1.2973586005802042 -1.1343406328523495
Ni 7.066390921563853 0.4379691359569401 0.19165213935477918 -1.1278964198889025 0.2831519916079897 -3.274843664216198
Ni 3.529662744958802 4.139429788392517 6.881580075488476 -0.8658585845517087 1.0583339383087322 -0.4793937543859808
Ni 4.8746589744532285 5.164240210137283 12.467636701088036 1.2864717784643713 0.7118788157667223 1.1208387417111727
Ni 2.6308217749017935 5.954636950605584 8.511039253433925 -0.728523623412255 0.5638974306570159 -0.47605877647547695
Ni 0.43368652510399835 4.4355138038554305 4.003428530623219 -3.4510858439438112 -0.7943412932380126 -1.476778149594534
Ni 1.2066392129229713 8.271692683326634 1.876954053948687 -0.14351383625665606 -0.7107051071735954 2.421680158633655
Ni 3.7944227318699375 2.265328656125534 1.5566944557901883 -0.9381875731334229 1.3891364419151493 0.1924468145119331
Ni 8.04335748697821 6.774088664553893 9.913875172515992 -0.02118409027678287 -0.2528947353853451 0.2039468447317326
Ni 7.428212967500417 1.1539805324158756 9.188454576550088 -0.7604294709819162 -0.45352357148743827 -0.6733480066813758
Ni 0.11927297208569879 0.36530310847350156 0.4474724182351781 -0.6155285245697464 0.5252678912102761 -1.4862884030778143
Ni 3.1826172283920697 4.911323583844664 1.8960565460366525 -1.3107260230260458 -0.6717382389920947 -0.891668346525961
Ni 7.713791073505004 1.629199989134404 5.260787581061065 0.12051634692021826 0.08188937857663962 -1.0769435829901193
Ni 8.311078314043975 8.938416698582264 10.829469332519583 -0.7614255163465984 -0.9965341313931162 1.3282383208781963
Ni 6.282995046134066 8.496098540404429 7.869561704182142 0.4479337361044866 -0.1062025014007074 -0.034857216888501255
Ni 4.114433287398608 1.5511389603847892 6.586295763581346 0.17723385421692056 0.6210075454064465 -0.0055106454055840574
Ni 1.6865997034093478 3.5946259761396524 10.77214894293414 -0.43673169674108014 1.8443129756249785 -1.7244327196268625
Ni 6.990921780924676 3.5760307931124484 3.7453899275771247 -0.7880901701219782 -0.7755573277622901 -2.4298279845517703
P 5.934372259578419 4.378427698818048 1.8003420843526305 1.0706816612408079 -0.7707632488077565 -1.107330679922409
P 8.133640052191636 7.825223814651654 3.6109705516972936 0.6441323043493681 0.9803104704454019 1.5177358229538183
P 6.268024816941034 5.044911895244955 6.943207980189844 0.28204847413116585 -1.7013894646541536 0.9049750909371964
P 6.321781129779597 0.7547679639409316 11.504076008199343 -0.5030931548854497 0.6087163867439194 -0.011050344276890646
P 8.932485794471901 2.5262792131804024 3.292385073439309 0.4785743438084791 -1.4531731085810844 0.5512697145906763
P 3.8336607817696025 7.280816625846294 0.04191664174048794 -1.0405748145530982 -0.8896978530631516 0.04522699015859953
P 0.699662209000742 3.7280021401145347 6.090793168233443 -0.37038129434030403 -2.1575101074448066 1.3488343998619932
P 5.99116320298045 5.845500935934021 10.548967084262946 -2.677484097245995 2.356744120081902 -0.7576053712695598
Ni 2.3971644453159207 5.0346089094109345 4.565985392862423 3.22572685208489 0.634182649335824 1.3787715537410579
Ni 3.2560663565893027 0.41358601773649734 4.692507350236356 -0.6918758902822343 -0.9443816177592769 -1.938280882632707
Ni 1.1415745199299685 8.443449083698438 9.802608459789228 1.2800892719767953 -2.1760865848954136 -0.35189043462496816
Ni 5.029581937808838 9.07483671692172 1.0293254723855474 -2.6195054638486823 -0.48659927099548456 0.6069991469424966
Ni 1.3180166112629925 7.2649240165427855 13.30038175718853 0.2039728128736616 1.418485327390912 -0.5732562461640965
Ni 5.588664194171877 8.161754197958956 10.406488873357885 1.7538497393363985 -0.546446325060104 -0.29858503833360833
Ni 2.407615011967618 0.4174895303640334 0.25524102417101974 1.9405377969876838 -0.5323312258149606 0.17043122947279035
Ni 7.300518665006069 4.446517798573414 10.837083580331564 3.1192407580054926 -1.8926270893493342 0.1179591277160033
Ni 2.4618048434581046 5.459706230926177 12.358259945207639 -0.5302357767385126 -1.4806342901158307 2.3251246934044087
Ni 6.305122944984395 8.89410555807498 2.9851255005578645 -0.7776643468029638 -2.019771483109031 1.2351049939566212
Ni 3.312894195195751 6.9896765677755335 11.037450366970125 0.20779090106817116 0.26102764890512464 -1.9625991476630977
Ni 8.233044956697674 3.7026551346786443 1.6332529273398368 0.13482093646834845 -0.1854292455435194 -0.014936566705174275
Ni 0.8359235779611944 1.3943066702004927 10.200371046730503 0.2269106526167576 0.9954388414464083 -1.2190916492475004
Ni 5.9811092597762565 1.8945964183217685 1.9096515064849637 -2.129173722393959 2.809711304845238 -0.8556803584671263
Ni 1.1305797490130904 8.049777252547125 7.296595782396213 1.0750540792768906 -1.224643432303665 -0.34962503562955916
Ni 6.982352869698351 6.3355707124312195 5.233423330323562 -0.05907700866781438 -0.37863042172297373 -1.9383449031014233
Ni 2.3447363598364444 0.9168430626731755 8.126034105800649 0.7513231378052738 -1.105387183042793 0.8936416682022479
Ni 0.7370813253225472 5.6919799903463355 6.336478334459928 -0.2123983179331955 1.5428549866189494 1.0681385831039798
Ni 5.374312280298275 3.6339193688459455 8.392415636946001 0.24467440435808183 -0.23086886593355727 0.17826949457028654
Ni 7.776559040022921 1.0148487165516207 2.13874582166431 5.543344695589292 0.4423693546428317 2.3683135700870563
Ni 7.949044120682001 7.7870649494812465 1.461438417021073 -0.05194091184366538 -0.018888866484702952 -0.2760899425548858
Ni 8.96704737721145 5.858248229060805 11.967260249236377 0.6538659866973642 -0.4522817286605372 0.6140874212478457
Ni 5.534308334261505 8.862910662738669 5.453108445995939 0.46063807104503246 -1.7231615662239226 0.6864287511247339
Ni 1.490252649292244 2.1776840980280694 12.465381481717923 -0.35210563595956784 -0.08989245138677422 2.2683763328697704
P 3.680407326413954 3.1887695037289467 4.3893385331448735 -1.9606559078937975 -0.8964241160433918 -1.5114818716243066
P 2.66138945176298 6.826240036000226 6.016867169519093 0.7149039757462914 -0.65483323570664 1.5757080285932283
P 3.1813720152429266 3.0062304798656743 8.642732073707187 1.6888985312759945 -0.6569595380210234 1.458724891637249
P 1.4874393899552911 5.797039084929594 10.517134824270297 -0.6458770549546167 0.7387386162720438 -1.290875563959022
P 8.004525284327155 7.7195836205987955 12.842908893795569 1.662118692078989 -0.45803405776328215 -1.1818111676294873
P 9.078636922976882 3.505607071677578 12.981363682658733 -0.6157295848369589 0.999880936378162 0.4843510983912561
P 6.303342751371176 1.3223610215833361 6.77621290594832 -0.596692879920482 -0.16600378982905603 1.4462763814612511
P 8.527265764337425 8.298146544895095 8.203564765986739 -1.815709452955673 1.3138673968685048 1.9006677002656236
