# total energy = -340891.9505238454 ev
CRYSTAL
PRIMVEC
9.06739738209794 0.00000000000000 0.00000000000000
0.00000000000000 9.06739738209794 0.00000000000000
0.00000000000000 0.00000000000000 13.27105261527581
PRIMCOORD
 96 1
Ni 6.344956729959055 2.0446346620012106 11.302637006941726 -0.7087271575116181 -0.6977254070844758 1.8983128268802016
Ni 4.539048509049886 0.2927907986205784 6.049834703444038 1.2129251154254723 1.8866240776883638 -1.5715955490867515
Ni 2.683677634837881 1.4210062648959465 4.902698298828243 0.17939640908587814 1.1412299037730151 -0.18710020548803907
Ni 3.510170915965944 4.447930231682295 5.125797987087634 -0.2938207841757456 -0.1258858387622477 -1.3602074175856254
Ni 5.132763561838733 4.55157965237977 2.795003514249597 0.18292370551284623 -0.5136259360959735 -0.5695425447579352
Ni 7.220731316440173 6.053920472752609 2.5600790329247185 0.2320055506411617 -1.1017413587600897 -0.16595571019994002
Ni 5.288650259470698 4.289640673715728 12.107552602265066 -0.3714799267211215 0.5225039553118938 -1.2007002912245064
Ni 5.911915960676399 7.851214666047168 12.126238695010528 -1.536150063794948 0.42469327751930724 1.6685492781956812
Ni 1.9399062210025364 6.599551116656956 0.26322745584723845 0.15879313101322973 -0.5368370841051142 0.3316381121338353
Ni 2.80770149769328 1.457955909663877 0.5628913417645264 0.5458292603013954 0.6115985933877209 -0.7136757597661451
Ni 0.555233924585013 0.17174466910058728 4.648996144043265 -0.4473264415377909 -0.794121978138355 0.82912703345863
Ni 8.567267045758447 2.4906418096932255 1.3207788800108433 0.7468496754149525 -0.4602148674646849 0.589310728523798
Ni 6.814330560980384 0.7238675696071027 4.576735333233677 -0.6801676007063705 -0.8713705155088735 1.3618161568336418
Ni 0.7588124127902015 7.203394452441086 2.3499185208822193 0.60402695168805 1.35640964110609 -0.10414973263673677
Ni 7.651169742643467 3.6779993760910052 3.9546411397835626 -0.415247301615059 1.1261228729282475 0.1664010252674747
Ni 7.643190432853092 3.904076797685805 12.618170397505146 0.5419283825850925 -0.17506795691385332 0.08136693041426632
Ni 8.124061723890554 8.706487866805515 6.70190843321224 -1.1518981821201386 1.1075386821681572 0.021458169873775947
Ni 6.937447684086877 0.6173909343725376 0.334913393656019 0.13859840123290967 0.27767091388876053 -0.3126721125542938
Ni 1.7711710211285692 6.60492808336797 9.104167599360325 0.9994618465628722 0.32160618181913003 0.5728790653303361
Ni 9.330714712145058 5.106422772133005 1.2556169346954433 -1.063576417654594 -1.3624738450222986 -0.8789185030594605
Ni 6.418529593185308 1.9782159753938264 6.8780417226975334 0.16263204514334573 -0.9359124039460011 1.518642651038804
Ni 3.5705235136531455 4.40899482686426 0.6831350066067354 -0.8004913719998085 1.3039609363880704 -0.643726327160201
Ni 5.893871839673164 5.653930367317588 4.793013618362047 0.14864781504911176 -0.5620462363808901 1.38889732932115
Ni 5.087036676301389 2.8028413726391426 9.384505234269424 0.40766588972337536 -0.9333914372963602 -0.7479004852769701
P 0.19224242786436238 5.719124955263949 12.274051781918232 1.3454274310629732 -1.5574634805607435 0.4768655886474884
P 4.083457122211931 6.165694281600285 12.599776274958835 0.3921279419887763 -0.3568441790858177 0.6521914272084187
P 2.5551835450203737 8.540273403433508 1.3537007868141322 -0.4014813581792182 -0.9128915175707956 0.4959244050511523
P 6.311806324739042 7.760114523474555 5.6307613532535346 0.5739123916908567 0.03471194955988861 1.4967054846460803
P 4.960165650634424 1.1066214591551655 12.730310529211382 -1.0603517400697093 -0.40713624247215047 -0.6868383278583268
P 3.825580337622989 6.221023541078545 8.212764446567057 0.8011408326583492 1.3231783898567857 -0.23956099439091647
P 4.656081408441218 1.1340049995721349 3.688357064242761 0.38015508589761626 -0.9616440043841502 1.5468671931021358
P 0.013608350151585267 5.546962279139115 3.4726101286072506 0.9827224223210042 -1.5690586415975107 1.2333990670091082
Ni 1.3077000658726192 0.8725193907825454 2.5157539670391844 0.3301242465924702 0.869194076682845 -0.3110973118680061
Ni 1.5926793015563703 6.4795350434917225 4.758230174854254 1.447617725980494 0.35122914689188545 -0.7702770531999573
Ni 6.104625359511449 5.779123924449077 9.05876714013259 -0.8167363731037611 0.12385620992672865 0.7268292664289677
Ni 8.272513155581487 2.4320392197214136 10.220462158156822 1.8916742385177616 -0.5727703076666136 -0.1495736692974908
Ni 2.283080013771092 5.272646302902502 6.9537399838952245 0.46782944658714914 -0.27745905498827056 1.2358824955525942
Ni 0.5845615150236373 9.29344770846501 9.382912999270346 -0.3813815021055496 -0.38359033683141036 -0.4579700372945661
Ni 1.6809685509073735 1.1177199536817781 11.494669071184342 -1.0167340033797587 0.05616189190354843 0.494152143642078
Ni 4.410173588537838 6.870892986517157 1.5237824952152255 -1.1146421259821577 0.24937592359880925 -0.08333510988423067
Ni 5.854283582235917 8.09787507994214 7.949692043216882 -0.9621253148959429 -0.7728802951507592 -0.8863057966624671
Ni 5.247484274870353 2.7250158999905176 5.086343020393476 -0.7863356493247168 0.742557990018134 -1.1170491927617536
Ni 0.7121370774755025 7.2305059709333825 6.852813502663715 0.8397451752941085 0.46422733105818764 0.34506672683491535
Ni 4.891743069181958 4.663380663419914 7.132872768469901 0.7138426243613125 0.17497514008973092 -0.2275763112252145
Ni 8.379272693617711 7.049003875394815 9.225160231235131 -0.13629135036628787 0.9584627784426913 -0.10344962124591861
Ni 4.642580053580004 0.36002736448147593 10.419873270476037 -0.3115945632193989 -0.35633252955672184 0.380958298525202
Ni 8.29163629688592 7.231866080556743 4.565282303465242 -1.087773840836404 0.20947034565312309 0.5292860112307336
Ni 7.43823098001032 6.209671159422239 7.0983939895177395 -0.7706321225465309 -0.4493699543303809 -1.2886513026141937
Ni 2.171569159450599 5.086574239029447 2.6382454397189323 0.5590383027925017 0.45732134796697366 0.595587305561129
Ni 2.4221194868683784 5.347615545342072 11.276267201564034 -0.8398107384247215 0.6145497055962449 1.5610599396627505
Ni 0.9392917058920028 3.186999802058261 3.7940747583074916 0.8102165697073723 0.010191852931337285 -0.00866384632258508
Ni 3.512192945606005 2.7434861886757385 3.0206638355599 -0.6563201046648116 1.0261072170645427 -0.882992673128834
Ni 0.9694045329531801 3.1978444094551803 8.53519838105888 0.23311061077988238 -0.3905659968182951 -1.3552351611820146
Ni 3.5587268295198746 2.7540769089429635 7.2754031896004765 -0.3888017058290207 -0.45027755374631484 -0.533327528289959
Ni 4.025679665411625 7.2441705389494 6.051334450988729 -0.1483999607043638 -3.474441745060932 -0.5210751932851672
Ni 0.9472982178748451 7.560912868037337 11.347400028125982 -0.276734261007104 -0.3103223813751946 0.21033063677088937
P 9.311763851392918 5.4263386903421145 8.025124629668143 -0.213964891089367 -0.2544373972821167 0.9370804561121733
P 8.412314290067856 1.4313703002259452 7.954177684754721 0.23686519272630818 0.8343998518217952 0.2948163153197955
P 1.8926288104945637 3.499643667481142 10.509744780688884 -0.2776130640676316 -2.410876383149932 -0.42810127475959175
P 3.8248096088364187 6.112686275879225 3.6287706616433857 0.2069969444119661 0.5486664726398744 1.0761005182635337
P 6.693026917371703 4.028408952055832 10.36479880486722 0.14514880075691777 0.6344593000359783 0.42716719298109657
P 6.397484163613194 7.7871263005944735 10.129157999140705 0.1182800013905318 -0.31021928013842703 -1.3472529143074863
P 2.2435824303087344 8.537389971031986 5.792602610816568 0.1276262184921221 -0.6610450209443067 -0.036700697855143245
P 6.999604693874401 3.967367232159462 1.6119284796859017 -0.7347706327632314 1.2557784631455728 -0.794853971208373
Ni 5.108363195195665 2.8476705858250684 0.8002313777804909 0.9933701318428375 -0.9615984958581955 -0.33036181652457297
Ni 1.4637953136468334 1.1510063698641273 7.045681580954823 -1.1114405883257246 0.5414781824215513 0.20918315343000746
Ni 6.788334332379241 0.7408607792413552 9.23901521459842 0.2878990193746719 0.23197392607227793 -0.08497315970828592
Ni 2.6957735430882908 1.4855026632356496 9.338375756283568 0.6665672363141166 0.8080072207608794 -0.13749976885209225
Ni 6.411094327244278 2.118769703871787 2.6469782502406485 0.2487002376880233 -0.23197135496911664 0.10731244663543454
Ni 4.189246448716826 6.7340840932021795 10.491444052336707 0.3975989924056765 0.862829567917398 -0.9143817289630768
Ni 8.284146626559954 7.222708009092789 0.133903699159482 -0.2514400052166895 0.8173909759686245 0.7037145347883752
Ni 7.431212814353785 3.782927299834438 8.297115725188561 0.6463303404419515 0.1381908813818459 -0.676121455661455
Ni 3.156179717992937 8.279703601790313 12.460629806571177 1.5454944811243254 0.6955155439173505 -0.034178702764237914
Ni 0.09988191704076993 4.742584380486876 10.132554646240107 -0.16149124667068315 0.4889780556403063 0.8116101076207894
Ni 8.652817941067754 2.5500423306440747 5.943693561916568 -0.04205476307820499 -0.6896434014072897 0.22142674668405093
Ni 3.5310531323832555 2.6960546324104517 11.68188362714102 0.43874769872984437 -0.035505134885145305 0.08067993164957073
Ni 0.9813009584588303 3.2231152462571977 12.732314424056463 0.906995978021967 0.6529745852313464 -0.6074714585932247
Ni 2.95754930859753 8.574412154979829 7.880377229851492 -0.03854597859399813 -1.6935352587170576 1.0189145559708452
Ni 5.749627680417155 7.592947983366195 3.5510948010533308 -1.5635294842491652 1.6633566782511484 -0.2688815977319046
Ni 3.032047046367669 8.32395250153694 3.619666087824618 0.8017463274528321 -0.3108206611678518 -0.3289865334436011
Ni 3.5055465432465223 4.378954538982995 9.269790868416047 -0.7074374921659172 0.40726016964452444 0.15642874454611125
Ni 7.448721958905165 6.058127745187535 11.246872512383991 -1.2880154688024077 -0.13063903717651695 0.006465038899053382
Ni 0.5313213839268568 0.07045821218876154 0.27780057709166 0.7127311364646886 -0.1348787862894774 0.2635298465016881
Ni 4.932328740343001 0.4771046941205044 1.6896968277303455 -1.0693986807633262 -1.405143358866367 -0.4058149525575656
Ni 6.339307741323368 5.896610193714861 0.26081371463564995 -0.7908978147741025 -0.7629018437818087 0.6706393495009612
Ni 8.029824261786725 8.735793695490166 11.359596584488521 -0.1781648506716222 1.0530482644297607 -0.18397940047087025
Ni 0.21182528622149102 4.916642142686923 5.960082882878049 -1.5231965889580734 -0.7634859984200528 -1.5990623870484524
Ni 8.016785344197451 8.790270619604456 2.41883527549784 0.9239539460325442 0.06050062848821838 0.5593373220901594
P 8.456209561312408 1.518426383518436 3.4906052856640444 0.19321454591589304 2.1474100428963276 -0.07774861693538869
P 1.922868581120588 3.229516828884476 1.5375177889316576 -1.2681120450102612 -0.5227602942970738 0.05410372382293908
P 4.558316728714145 0.9146827891066867 8.047698822456914 1.4065232699330292 1.725799775177718 1.8085178203032404
P 8.553874499667103 1.5868670997658811 12.433132016945844 -0.18421594196170857 0.759043389267667 -0.9150067641415853
P 6.444888517686014 7.831638154868282 1.4948647511431066 -0.5899452767840033 -0.6978701601924562 -1.8486632821738744
P 1.7231410166290042 3.244369225971561 6.1028925798512885 0.5360374710219543 -0.46876558524817336 -0.8013231238724845
P 6.771079074957555 4.095135930177845 6.156122736810831 0.8120376820765112 -0.15537407802935177 -0.7605639396772514
P 2.5553467581751765 8.455747124040466 10.320234359687975 0.23603215530205154 0.8023412807243536 -1.1554825570372873
