# total energy = -381173.0363826296 ev
CRYSTAL
PRIMVEC
9.20162850862732 0.00000000000000 0.00000000000000

0.00000000000000 9.20162850862732 0.00000000000000

0.00000000000000 0.00000000000000 13.46751343723990

PRIMCOORD
 96 1
Ni 6.750719597750105 6.005820159334928 4.8312957623691295 0.7727501973307982 -0.4269347652553164 0.3395943908664345
Ni 1.418062980422751 5.00911815483534 13.162204594976886 1.0135319515026933 -1.0088551148523142 2.0093829407858554
Ni 7.4820926421530745 2.245547035341038 11.137189311154893 0.020045348686649346 -2.2408002230237147 -0.253310482766525
Ni 4.369071274086227 7.770011600412939 12.979302903534665 -0.6089303025269384 -0.24229047750693758 1.517533477135025
Ni 6.715348537489609 1.8303235456805573 8.781384681520056 0.8773128491352375 2.667782296577199 -0.5431756247286322
Ni -0.015385122985314643 5.832893953435994 8.949284037725882 -0.43154758143697936 -1.5769982081595615 -1.0208300278260032
Ni 2.0791723889908735 7.248601316942334 13.305553085969125 -0.621903831968471 0.6997558072509432 -0.47790174322148665
Ni 2.462254590022345 2.5413977974366335 13.120805547833807 -0.4752905308508847 2.0430546220066876 0.7435036417608549
Ni 0.15402053981901354 3.0663231030246987 0.7138586645643038 0.2000199988735007 -0.6920255284862211 -0.0144655406060267
Ni 0.04841160828369462 5.57047270797057 5.141034542480117 0.9994587612390787 -0.36834626618814625 -1.9550300770665878
Ni 9.13801772136194 3.6347077003948454 11.982841061541007 0.4933874975619116 0.7813862757392414 -0.03912987612192616
Ni 5.191402416999863 1.7280474440168176 13.147956793284026 0.08224753324700673 -0.4440426285801965 -1.0380520481312445
Ni 3.473596385592289 6.620912223375803 3.6159603023264957 -0.7388882544760307 0.24835828096757231 0.029058093708220923
Ni 2.89458390721255 0.7314264138487312 9.75625766253994 -0.44124552545103357 0.41540182491505234 -1.3092658935407517
Ni 6.819704207212369 0.4480438584786744 2.838507342321937 -1.47198741307411 -0.641770746095727 -1.9316217254449766
Ni 6.947726465642202 9.229693546901826 10.112123286558274 0.9864183831153528 -1.8364752247481146 0.432964516389164
Ni 0.32427459277839316 9.052046905541488 6.689071446754464 0.7048422206349152 0.4893943172421185 -0.2065570286610701
Ni 5.587514124100236 5.849935369565661 2.8222517452729794 0.8320899727416959 0.8120718777485563 -0.4176772512127903
Ni 5.68897128082038 7.499971406483496 6.822898092492394 0.04527944066308976 0.09674624108381402 -0.9451910010344496
Ni 3.5773539494573656 5.449305662832638 12.06790183629492 1.21458759072956 0.09464950645578538 0.9041711069786623
Ni 8.996441464034158 7.380791913118786 0.12295952238526466 -0.624075385698493 0.8576086858380907 -0.2745238836193466
Ni 4.756312611235738 0.6411105890129296 6.334108502499801 -0.04435050109091717 0.5678654141658285 -0.7626197937650157
Ni 0.6752854375580604 7.889927224064029 9.918985703483957 1.2679678061229132 0.7494732290807286 0.25698973139032516
Ni 7.54618198521092 3.9390791705552743 5.799636507260263 -0.16074742652612317 0.568620290053982 0.05566746876563316
P 2.7262493139749027 7.262422163069093 11.277102834198317 0.9539301806796604 1.503962680429126 -1.9132182832371243
Ni 2.936239679793004 0.18614526551657962 3.4116040936877656 0.10587545707859185 0.16976865618812698 1.3492635169796117
P 8.373113942414422 8.08196521252307 8.35815393466949 -0.3311832839846038 0.36696326979769056 -0.0506072806339064
Ni 3.8778331307285674 5.994888624582205 7.292470081196214 -0.5404931928004627 0.5073059074152166 -0.2884104117934517
P 2.174510462705494 7.763975332064634 1.8402548634066638 0.17310929052558574 0.8958888123652119 1.7723174591232829
P 5.861593832976183 -0.22018300979587233 0.7163909527494465 1.1901276579149827 1.6484681911750902 -0.20551753165296216
P 5.037992865318544 1.0886170723825475 4.003865076896605 0.6538089082071837 -1.9847995950195367 -0.8487496927855642
Ni 6.319356451560772 3.570563147565522 3.6970883010254334 -0.3716604181630438 0.4472516224357974 1.3340492711330185
Ni 2.2562209244935287 4.052608863972028 4.390880974145912 0.5139753490155923 1.1368482297655518 1.27646350229875
Ni 0.1626544279153776 2.942358762798527 4.855254042702182 0.2655299076508524 0.291060447821789 -1.3610713082478172
Ni 0.6384623603076822 0.7512430411580456 13.916655323857828 1.807247438231249 0.2847342484934451 -1.739135830164992
Ni 4.970682952257793 0.011375973413124697 8.560207895837571 -0.14174620283327202 0.2167612228875815 0.22671319189397082
Ni 6.7539309661244324 3.9347360018656405 1.5363204706037716 0.2886343548787997 -0.1301189030069888 -1.2249817894796902
Ni 5.5079384401427 7.868340203415973 4.482998477857626 -0.5331028138736624 1.6517010962900909 -0.8693894805231028
Ni 6.986907000134709 0.35275087274409483 7.144839152262967 0.9918105006652015 -1.6304581277509147 -1.0048848173506564
Ni 4.598072204550058 4.817448231519488 5.325795883058305 0.7888964680733574 2.447038434892786 -1.009768884915835
Ni 8.281456520131695 2.2364926328185795 2.5913782833931727 0.18177236551722242 -0.2619365338726392 0.42980051683888565
Ni 4.257998415500262 2.7076344193581017 4.941230379499781 -0.2557401752539402 -0.6217097136797938 -0.9797162885048288
Ni 1.8592994740781383 2.5043060326317272 8.548019418620855 0.76498777977656 -0.6078720364657532 -1.220532495459085
Ni 4.753174855890048 8.384128291824362 10.936914024791275 0.056908797371901985 0.3640831200364182 -2.112782682630445
Ni 5.231208662235791 3.4254534648631223 11.193295321256961 -2.0709189525171237 0.27025713792319256 0.031491642850378025
Ni 5.720726101049041 2.815293473740985 6.8869635113159315 1.7637394876462849 -1.1189422960194084 -0.3325367126887047
Ni 7.963779495044971 8.755137956159222 4.545905411642974 0.5464668938853944 -1.0615640152102557 1.000127248061013
Ni 0.6009740053109894 4.237506388653196 2.7412718927941757 -0.11570607001576846 -2.871513168643384 1.209399104550085
Ni -0.07529876699367631 1.1629846345639547 9.566136373314057 0.5643597150054152 -0.661503448637964 0.014405891012684868
Ni 4.3310593464233476 2.886072400776296 9.078639612136918 0.09438134039606326 -0.7420003177424511 0.1394134409350373
Ni 7.124287314830132 1.7080799099987958 4.8219625505007055 -0.31902170892140547 -0.0649056995344495 1.2352183796060339
Ni 3.1686636160884962 0.8464826574468627 11.949805374614046 0.34057860915657473 -1.6713769774524634 0.547640088257889
Ni 1.7500393363223812 2.201185983958142 2.746335549001603 -0.160271258220653 -1.032546287821667 0.39985899208444686
Ni 6.04032626650893 5.992385781608517 11.318906752998906 -4.326292959589955 -0.9287621660544649 -0.4862606567091432
Ni 7.667201804291576 6.937356230232843 10.137845519090064 0.75019570906905 1.303282422263807 0.47466986654775034
Ni 0.06728138801215439 8.906624367467378 2.217304476741261 0.5088416273334526 -0.23462036255618948 1.7029771208562479
P 7.922574602264923 5.0451057242106785 3.121917502577733 -1.7449629783697302 1.095151621357714 0.736597658669641
Ni 1.2059654416598908 5.733442751746233 11.102106261868943 -0.8237925086195942 0.21520416281310678 -1.4921304636808883
P 2.2465224079704895 3.848203886701825 1.4226674753640498 1.1409293418134607 0.6499072591599323 -0.2636985108690684
Ni 5.894609276320267 6.017616647174147 0.3477470271224357 0.44428251250514456 -0.8943561777707693 0.4275556866687669
P 2.417608288153477 0.22964504446441242 7.444734030119355 0.8582375776713413 -0.34145561244488937 1.2960571081599614
P 0.7624239400452799 1.0015696660182674 4.56962168914438 -0.15155110473883576 -1.255175025233619 -0.8038798288560672
P 7.964635246502886 4.095295218953413 8.043688277957093 0.67541183118894 -0.7309772271590701 -0.6059977022611757
Ni 4.038125500587527 4.275325082115901 2.829766715334048 -1.140567587598668 -1.7031069615658927 0.16173190192657952
Ni 0.8869578610805371 4.136435700333402 6.829915254447299 0.25056145926647816 -0.3318368584082027 0.8676732691629444
Ni 0.20583399018863568 3.5384494638222517 9.712433986266102 0.5780647232963335 0.2941606840136676 -0.6384427101637585
Ni 8.739283550116342 9.094033936750813 11.84039525031244 0.5200295256294721 0.6525007309187214 -0.47559032147949054
Ni 5.737969953007461 6.837794609000125 8.982656504258859 -0.7119209818585676 0.5448450420112552 0.03458365151214044
Ni 8.176695978751427 7.0306699456599215 6.409149623893245 -1.113357088622147 1.084242687754694 1.2602282713868103
Ni 4.259240635358527 5.243621659189851 9.679950397053926 0.8290792109398302 -0.13470703659830346 0.4596669653810148
Ni 3.05210658686901 0.8370813535269488 1.1647715908341392 0.27732278652072234 -0.6301737852867471 -0.8645650625512659
Ni 7.650850510305388 7.273804577622224 2.5199736456144395 -1.2131721984392718 -0.6420746504893909 0.045233932137135
Ni 4.381806328040579 8.152173638586437 1.9404799220599804 0.8867444268617825 -0.45667882928696835 1.1051097610116905
Ni 3.1102056697214477 7.710541474902121 8.926174147547881 -0.3560900745286125 -0.8775267649182564 0.16628249741173942
Ni 0.5899532147610426 6.280378352897021 2.461632559930355 1.6573269271173006 4.547591151115943 0.052871136967418624
Ni 3.2575237432829836 8.229531730056259 5.665055327978794 -0.45815567094281096 -0.8794589489439628 0.6285904999600271
Ni 2.2750474565676635 4.9630087940222944 8.734409447457658 -0.9319837583155562 -0.508418423753105 0.1954748027049795
Ni 7.178696544622097 4.237211936538644 10.036341434064163 -0.6263865503301728 1.403295249914035 -0.6071248738870835
Ni 8.590677248553643 2.135854421042033 6.909427447167635 0.0022000929751123397 0.07265140491813939 1.4741998473443965
Ni 2.760267734834178 3.6626162398771775 10.886855324991808 -1.3104917955280526 -1.2897437643474239 -0.7220698973671114
Ni 5.127782356999585 2.2416731497089697 1.972802482772011 -0.41047327726518335 -0.8023027141769344 0.8605258594848858
Ni 6.169811583882941 5.072094100835036 7.2916750604869245 -0.49984122360705524 1.220644595556917 0.6999514682015171
Ni 3.7250676930478295 3.586104698236692 7.013827284707577 -2.8997770485850833 0.8368825090343328 0.8494492899557501
Ni 3.6897058344159133 5.910482085620307 1.2322609356521954 -1.215103868244346 -0.2507414364877682 -0.9418830197071392
Ni 1.287418257847693 6.590666470234219 7.273480680296217 1.0385762960658307 1.1718360586946464 -1.115680080328369
Ni 6.874683937976277 3.880823660016981 12.552045524017608 1.2399792913297871 1.6132456205273702 2.2752666322317006
Ni 2.3867552275256303 1.7934526199615646 5.960371475453908 -1.3367031638160978 -0.12506077175779107 0.07668238045440343
Ni 8.598130567703228 5.278100161478114 0.8364363193635096 -1.8711352380241453 -0.45623377132974974 -1.0827218802347933
P 4.921288610041782 3.890945451454688 0.18962348111971894 -0.20976679384761937 0.3542851601093899 -0.024927359369299004
Ni 6.702751507963955 7.816360203569058 12.585673795825102 1.278517042393669 1.6784652517578125 -0.37226745561942337
P 1.1320303560217309 1.8955262857965496 11.431750925086469 -0.056463996524999525 -1.0415870578676965 -0.8735976050671793
Ni 1.0715112448528228 8.0505324492947 4.392510582567383 0.18942499696647377 -1.106946557110113 0.07665358409899702
P 7.910290428110979 5.910942167049294 11.989642905387145 2.8737829385141667 -0.7063830827594738 2.39887241671052
P 2.220454194204104 6.2527918704149785 5.298672242493824 -0.11694122797445021 -0.9942139679003716 0.7205362343314042
P 5.422188463408163 1.4563601585716024 10.406024223557827 -1.7875131930271149 -0.8648867075567427 0.8813104003304048
Ni 7.736600487039927 1.345931413986219 0.002453154179356988 -1.784333766857869 0.09476160655361744 0.5377138302831127
