# total energy = -340859.77946431056 ev
CRYSTAL
PRIMVEC
9.34060239321702 0.00000000000000 0.00000000000000

0.00000000000000 9.34060239321702 0.00000000000000

0.00000000000000 0.00000000000000 13.67091576503318

PRIMCOORD
 96 1
Ni 2.6766896569905647 8.594596284109013 4.361008521243875 0.8712918397521381 1.2150203073916042 0.546592363719665
Ni 7.519474294686272 7.985981328792798 5.673142686027673 0.7535312012001861 -0.6349390678858743 -0.7593832891055889
Ni 3.266567364380749 -0.1766438636233014 9.74564055598059 0.09290552718148515 -0.12277094728234986 -1.1628639371030232
Ni 7.2840163955240635 7.507537005130206 10.448420923817592 1.7453566142637233 -0.5670452322573782 -2.018157858765008
Ni 7.534727498007911 4.97525305747984 0.8865585833874722 -0.6029206059977487 -0.2803674868843172 0.9570723258530678
Ni 3.7977393872170424 3.661301211516377 3.5145874393832957 -0.4418304514202262 0.9555887993290059 -1.3033734393157166
Ni 7.942753022012303 5.527161217103665 7.4246466334725865 1.6100276278107049 0.38538522394830405 1.049575989610444
Ni 3.49690661356117 6.146826104771074 3.970813272696112 2.423530838689149 0.6661795139573947 -1.7097033838364877
Ni 0.47862086104335083 1.1486138471904446 12.689398577951545 1.5413015260889005 0.3887837081068918 -1.4181968496162154
Ni 5.190273719123526 7.774491414764286 4.684981702682373 -0.9836786155866866 0.7429115167028109 1.5805866968417681
Ni 2.951471491231831 6.786227684795264 11.216452870199792 -0.83459345588984 -0.25090881530356784 4.331665536755779
Ni 3.1081227299992613 5.410394349544686 7.425521847894655 -0.5389996389740718 0.4127705579397924 -0.2254134992459408
Ni 0.9679105578699083 8.268011470307544 11.387913633686425 -2.6289853783146593 -0.22096394811501943 -1.1621620259399918
Ni 3.2763096124300266 0.615284145255989 6.079866130091443 -0.07086834487578762 -0.3410612052199481 1.9498151085245516
Ni 6.358269315788803 5.6226595335521905 11.743083492267571 0.12636714927404044 -1.5595962106330301 -2.5236866196751437
Ni 9.284334369154829 2.735918415265222 10.414107287735305 -0.2252327506937024 -2.3201825189077847 0.064000928331993
Ni 1.215100253340738 8.433554962328007 8.863469253426048 0.6576179975406288 3.461205963096949 0.24257766973005318
Ni 2.8034136064484225 2.382339261231335 11.598090259051727 -0.3967011631817555 -0.2752083112808809 -0.6272345001527649
Ni 7.981180259284334 7.354463216988732 0.830228213961991 -1.0203286627095522 0.2705852106865727 -1.0190590519685094
Ni 6.062854091383727 9.478282632333347 9.105869088111001 -0.22055977069806532 -1.405838842271495 1.315603405723005
Ni 4.728110065019793 2.0074261718718973 4.933327764700183 1.1615434185193865 0.1015886567777799 0.08712028795827577
Ni 5.466139063214951 2.022371135322371 2.467204236184848 -0.26369182600084906 0.968381323107984 -1.6653971057199446
Ni 3.268444825414215 1.4601696321220317 2.564390399443061 -2.2245217975786655 -0.3172209082672408 -0.09121399841167517
Ni 3.216100090928932 0.2959784627151157 0.13893211647646314 -0.7313904034370887 0.7443539055762922 0.8736683104041147
P 8.686218250662572 7.009748294401407 3.701715194867104 -2.4301822825673955 2.4373152940677505 -1.5876238061942078
P 6.93351029959968 3.1675196191127366 10.840544072650465 -2.483053162424498 -2.6460996693974432 0.09070389154447604
P -0.16558178848930413 6.173026493820186 11.149165040384466 -0.21637915695781443 1.3313357288565977 0.5618107233313163
P 5.113316497955744 7.562366339789129 10.375158844862941 0.8431845399929608 0.6122413691780424 0.6058105259510341
P 3.446579449141701 4.384413268067531 10.514424420836392 1.4498275891476191 0.4141352994978029 1.0492448315232703
P 8.2749421971077 7.91333946582134 8.30480783844304 -0.5387854660807366 -1.3637902498408772 -1.00563172281901
P 4.214171453162327 2.1823663096618446 0.47658087353236117 1.5510025554267484 1.4796292458900842 0.2963926586679798
P 3.574228118213057 3.009523333634763 6.9323025597408385 -0.6114556400519534 -1.2452659936500232 0.46203597983382366
Ni 2.455896503214134 2.5562332515797492 5.12522576570534 0.8863052824418349 0.10759655353475661 -0.26873941572708554
Ni 2.3480685919189686 4.830277571408091 5.237505407988316 -3.8302245727617716 -0.16480694130747744 0.6543028171244667
Ni 3.6677462270043937 6.461062642521591 9.374406729810618 1.6352540064776615 -1.1228568005824662 -4.227503719934184
Ni 7.445197826337418 4.725578761835369 3.2714907957774644 -1.277054856025846 2.015709911445148 0.8553067771777915
Ni 0.30204238163514524 3.930945714571543 1.02501246103352 -0.1634195740416476 -0.9530369794414297 -0.4024208392743521
Ni 0.7514178173263509 8.743392076462788 2.799858573267641 -0.3638802599969927 -0.2438750483852381 1.7444202184923827
Ni 0.4730277084720112 6.19121264621898 1.9090752355247633 -0.22640928750030687 0.5006536922060216 0.15049386711891502
Ni 7.384708086771627 0.4236486151714315 11.130722955486581 -2.4315719638260704 2.014574512289124 2.2779873735969733
Ni 7.464056502091484 0.3960088393299966 7.334678887560952 0.8084710477711753 0.6163937007835191 -1.5300974298429648
Ni 5.1374432733261015 4.415816372517838 1.6147126969827301 0.2458655964527056 0.3454534207503728 -0.5369016187944624
Ni 7.0024439435149874 3.475778171483063 6.5505829735899255 0.4009946483507868 2.7352678410236826 -0.46583375631335905
Ni 4.550433130797978 3.7870630789521105 8.615588353395633 2.804148980266113 0.893963570318041 1.1139450999151332
Ni 6.390363624798694 7.305322309043144 2.828293234352598 1.3352188659610875 0.11404847980768747 -1.4110849211617829
Ni 6.1722138614325655 5.890604047014865 6.1028468135771945 0.26906594582856885 -0.25592915133629474 -0.8640469852642669
Ni 1.27964381424247 6.484180632859041 9.503309841751596 -0.15526840568942293 -3.154900673300947 1.5477459961626636
Ni 6.356447898368276 0.6046722871459372 3.8850553361764333 1.0881011422688358 -2.881873171721469 0.424468820213327
Ni 2.345219708261222 3.496168705990803 8.886122081776103 -1.3374480124019223 -1.05193523387124 -0.22314475781642212
Ni 0.00913884514996447 5.691518452650246 13.244287323723526 0.9842558282463952 0.3780439530918844 -1.3913558181639714
Ni 1.4134853025436154 6.812035768553801 4.060138385179376 -0.6113715649785794 -0.39468953206836543 0.2712354426760619
Ni 8.45258176892089 1.8596018021424023 3.6846536509679577 -1.8921822885024315 -2.024774592750577 0.832547886214721
Ni 9.429151064989915 3.725144227256368 3.2591462559673734 2.7057420636504244 1.466736449087816 0.47271942768959885
Ni 0.6914343383974447 0.18562018229574195 6.369348204006681 -0.19122425495874162 -0.20722860080679795 -0.7562136331283557
Ni 0.7343927017756149 8.568638750715971 0.43262119760300943 0.09933097109185474 -0.54076367285303 -0.10339794207237675
Ni 2.189736044763359 2.7889076512993065 0.34329701917996136 0.06538572449466158 -0.730825017851922 0.23002400143475865
P 2.8440358852272403 7.053228797440128 6.070214485883085 -0.42672573456830376 0.7230335468319612 -1.0296124020043236
P 8.18989601447235 9.105928867964803 12.898221750064364 -0.7030285644649441 -1.3705969883500653 1.9945931840711906
P 1.4047144771186189 0.8459138871634784 10.490294843285387 0.18201173522153816 1.1645536661006204 -0.3396771803882279
P 4.5027773785952805 9.103518992608414 2.956608822417931 1.2415551204573392 -0.6163721035169644 0.25757182914604027
P 1.0031059467957733 1.3655213104697523 4.40448155180087 -0.025873268222336085 -2.2102411192899356 0.2092649145105364
P 0.9775593998976202 1.1637923256948315 1.7000194824182477 0.15926621399490634 1.3704576345587236 -1.253243612538861
P 0.4869078432766383 3.3219010915561267 12.542696014541052 1.7017846432100434 0.7083306934041478 0.020272119985474766
P 2.3736525012257474 8.036280471405798 12.800502238423013 2.113901883836553 -1.259963190650882 1.8618281016906064
Ni 0.2817620662328529 3.2761695033976777 5.622710906864051 -0.7116605291083292 0.06742563774282581 1.1360182776650887
Ni 8.000907611038958 1.7225658279037181 0.37762092992462043 -0.19161377708767646 -0.9359705108774461 1.7132581910672815
Ni 8.630828479874253 0.3124132522095581 9.486371593800916 1.843664286297386 0.7165811063383981 -1.5059059201984257
Ni 4.504542752402868 4.444482680536278 5.650763537320806 1.5857983229496948 -0.6700266556176268 0.4069259262335573
Ni 7.3269738248420175 2.6690864068351363 8.680005816168253 0.32038825025162887 -0.1344596964741878 1.9023695134480785
Ni 2.549283843575279 5.349568348301259 0.5358133680478812 -0.2389210468140724 0.14335365652970797 0.7738650276615318
Ni 5.169163958249732 1.8103955099817188 10.359764598448736 0.13945869235067598 1.9721387117224163 0.07745756805753111
Ni 5.842443902295714 1.8491683495335407 12.784930520567835 -0.1802883247725282 -0.037868492910999293 -0.7026534405137125
Ni 6.2021785131507645 7.920195467804246 12.430566755952798 -0.017105035111402798 0.4921813930689523 0.7300750270597749
Ni 1.3037519084085147 1.3184446756007615 8.328827196888598 0.9695817711739882 1.2275336093672666 0.3736136852346727
Ni 5.80021503994597 7.686605689073346 7.387092742502194 -0.3084421336333462 0.7263178740101879 0.8046776421670142
Ni 1.314194701619533 4.52216846867227 10.80308545582207 -0.030644207248418195 0.36735022082346414 1.7413963440643945
Ni 7.913647705692506 9.333634067337078 2.0483538883412344 -0.5271982754637695 0.3199059112985716 0.25647165410332606
Ni 5.679777315739468 9.257713653008674 0.6269711066742591 0.25737822507799546 0.7985926123151988 1.2893503855637471
Ni 4.211686852988685 7.336417173622286 0.38500747811001684 0.9578328581681762 -0.9789269598343142 -1.676290355593681
Ni 4.2100615882134464 4.345210760816508 12.59670991463171 0.18277149620569813 -0.2937914735997069 0.4103269814953062
Ni 9.106442601083414 5.517325563032823 4.955583617458585 -0.7486121666320139 -1.7081596934984515 2.3779935163789823
Ni 8.013134459261877 4.691513585770447 10.196712245023425 0.8745710247240422 2.273040056894027 -2.281739641550554
Ni 7.741350958312862 3.4510535975746865 12.751642482602337 -0.542998989941452 1.566349984417096 -0.7014360231668436
Ni 2.949995676091097 7.9924076630765 2.0588125605759187 -1.1890873895759264 -0.3687591853558488 0.34149417899230866
Ni 4.360127702460512 -9.060384091849486e-05 11.649438351286905 0.6171238940813243 -0.4143818682909702 1.7156223204240841
Ni 5.528207364545199 1.9085278762383897 7.509215511337737 -1.4593689529791511 -0.4572933229425157 -1.1789464444871824
Ni 6.080498488857442 5.729712174868362 9.0130571288427 -0.2683097843888347 0.18972838713950552 -0.05672676326808295
Ni 0.7800448948157327 6.952994795698235 7.439178742307741 -0.41363470571230054 -1.9901660015377725 -4.159365115284734
P 5.583727903763706 5.62190294477751 3.986548451089029 0.10632437169055238 -0.39008648607871527 -0.2869842208698864
P 2.0075475996999326 4.8433077114164735 2.7226444855405547 0.5119758020870602 -0.0731669111019772 -0.36021181000646996
P 4.384777551551637 9.432046651658444 7.853736149400206 -0.8265343330307895 -0.8054543724320385 -0.516620242837607
P 7.3330732380502415 2.9480341496382216 2.1717750008765373 0.2396034175930777 0.29149959224173666 -1.6441531087395038
P 8.94182382867645 2.1307408015426157 7.3716443205954825 0.037260169903039056 -0.5128024117534136 0.10682959346174503
P 6.051925586860569 6.101804402376523 -0.053256377255761884 -1.573200431680026 0.3374745163099543 3.0212652725002678
P 1.0335749910304257 4.619899189036209 7.6753306482101795 -1.3842402901651127 1.1381831465268915 -1.2398707907763806
P 6.953359079182339 1.7598068087018663 5.522913111242868 -0.4861791527389304 -1.862644684054631 -0.7687367052960309
