# total energy = -381168.50010942656 ev
CRYSTAL
PRIMVEC
9.20965212012349 0.00000000000000 0.00000000000000
0.00000000000000 9.20965212012349 0.00000000000000
0.00000000000000 0.00000000000000 13.47925680370132
PRIMCOORD
 96 1
Ni -0.2325612104440417 6.960461552128251 1.3446202384090948 2.142828337062916 0.663254884111432 -0.444145472706648
Ni 2.9202977510964176 0.516957105040254 12.141412969463408 0.6564329760935921 -0.1565228469218143 1.4040318709697432
Ni 9.297880430387242 -0.05160812671384238 4.862062613236053 0.4540516760767664 1.1782216505060161 1.063058083257279
Ni 3.7440550710670855 7.043431306677033 2.5218071621719744 0.7291926244548216 -1.3010594464705594 -0.4380861538864455
Ni 8.134379049443709 1.7487287150319237 11.044727613522806 0.582386490600139 0.16310435679407395 0.5444796882520364
Ni 6.4472352770988435 3.7434380243854597 2.2308843872284734 -0.24723779420988387 -0.17946917130534254 -2.40293887347041
Ni 6.560302174267829 3.478411869801124 4.406881090678522 -0.4300414292050981 2.291809881302363 0.33901460710356457
Ni 1.9288695074588482 8.226190069878475 1.6309630534306165 -0.0336318291218324 0.33906525783584185 -0.7925456347901705
Ni 3.8315559743824337 2.8502215092980294 10.258158868185058 0.044728453255626195 0.9445194288887218 -0.993972541313527
Ni 5.83338434470458 6.082017318791986 3.6238985838157767 0.5400303942314313 1.2253021489335865 -0.41553089429374884
Ni 3.8082739742160094 4.003472547605 7.69269242990986 -1.0419513831856506 2.6904733104168117 0.8333690965644358
Ni 8.686285862724299 5.668375010455438 11.948821648545586 -1.1681460114375688 0.4536950640682961 0.36086281332690756
Ni 1.9675592553619932 3.3949447940462556 5.260387428425133 0.36049334580263076 -1.6362731917707949 -0.5140360270501986
Ni 0.17676269208632148 3.6664177050057885 11.02752766751378 0.6831513659250429 0.7155866036356128 0.3604005289785083
Ni 7.784163614187133 3.555754526999555 12.73642832165974 -0.42209363511293113 -0.31108857011725777 1.0075389671440518
Ni 7.829742181759773 1.9307759054155138 1.1092832388629328 0.7481825352937631 2.3803581599564168 0.21863941374690085
Ni 6.356216286733031 6.081787077492873 10.91977473952835 0.9251441096859035 0.21371497986209 -1.4708646123235765
Ni 8.000056275540505 4.125233356228537 7.416718762035243 -0.615369887504695 -0.49493221634121215 -2.125866255287281
Ni 5.774737280994219 4.792131883938704 12.775316077080122 -0.563077762969198 -1.562336749492645 1.2784877318176304
Ni 2.192772084503507 6.841924121692314 10.794336516875363 0.014664286880394098 -1.2860120652191336 1.7054744333568046
Ni 3.000080966065459 6.788996251851948 7.009132720830594 -1.8666586903100304 0.31801332226154905 -0.40993643092510695
Ni 4.066687598689786 5.372763601696777 11.237871513558503 -0.85232892549639 -0.8075871025043254 0.6713050081094181
Ni 2.2780074134355717 7.6093460005957265 4.023787197908441 -2.210160900871303 0.696672283229613 0.806604683986398
Ni 6.079420196937979 8.433665109336234 4.219587161570719 0.41297650330301133 0.7062828097361835 0.21357202652632254
P 1.7262755835423103 0.9721248131198373 2.990130858082941 0.46917850441587583 0.134422158368033 0.16688156444831906
Ni 5.621129495877211 3.2153473710852407 6.555609856591882 1.4315115644472507 -0.6073261912646121 0.23701714492314016
P 2.7994763269732674 1.5932145319582507 8.713072135463241 -0.6918105842619376 0.7762499829539405 1.9179051471898325
Ni 0.327233669744198 5.257099582673783 4.944124296101128 -0.0861304132411807 0.6897570441670184 -0.10531367103785089
P 2.1936562110921054 7.73882449756557 12.782149638837831 -1.3098652176876473 0.6936975168720053 0.9479927321493029
P 4.124671567458698 3.9495131967446038 5.086316717608055 1.014409726121956 -1.4771111074539207 -0.41681875986723704
P 0.7329934369642738 7.238169397467796 5.732566284648468 0.20410265358330656 -0.47440530003245396 -0.5744998887632107
Ni 8.952223772853126 0.046641361409351566 0.9806824217253127 0.9616393763984601 -0.8229173051034925 -0.629499899148174
Ni 4.899940069835922 8.534584475563955 11.82105154201517 -0.028692225728369943 0.5158363134837309 -1.9450256575557083
Ni 6.779031408426288 3.5069249522834225 10.566294482650335 -0.8570888087788788 1.4765128117482893 -0.37118399274725755
Ni 1.6318582316015724 1.865516311594594 10.87839393132116 0.21293567849390424 -0.04888901239121903 -2.0487969238071035
Ni 6.268365416643029 7.057918089217296 13.005501197317306 2.153353662074272 1.4488282013488274 -0.013427843370131712
Ni 8.127702051769399 5.2547879600306775 2.977015392720202 1.0170613048121904 -0.6798426132667841 2.912800971648577
Ni 3.859267817143815 2.275134002022627 2.292416834899333 0.6683140438018942 0.6826363739618373 -0.7518808100809568
Ni 7.171638871675766 9.026785115158258 10.765450443488499 -1.0265003387379033 -1.7235796275979476 0.39319237869754864
Ni 2.854117192079041 9.181240188256005 7.440630702396044 2.3027962051105373 -2.411405259070208 -0.7940844400322001
Ni 7.4688527598762615 8.61576755763161 8.43502261203581 -0.29480525957620196 -0.8120466809375757 -0.5223473751293715
Ni 4.064108896139707 7.007292632368073 13.274843915777433 -1.8743581158368172 -2.5340849321903325 0.2636092935893718
Ni 4.165590051137268 8.191644665359386 5.357317173421805 0.21990105406814384 -0.5101865713971213 0.7764320170577595
Ni 3.390993853353457 2.173671266328996 6.782357934715889 -0.5580759388792325 -1.7195962174701676 -1.9873735263942998
Ni 4.901809629184729 5.727998297274042 6.05071739562521 0.12201812827672534 0.24587665219629912 0.13076862077584575
Ni 1.5631358086419758 5.431714583921968 12.976911674723702 0.05991107453333553 0.32235488705969645 -0.14237535177683866
Ni 1.5331583914973113 5.8046410209231665 2.3925948241439072 -0.512621406090859 0.03148547220279094 0.8485920841617773
Ni 8.893401725755439 7.308798218384058 10.019724662683211 0.35962714114759353 0.7283081649673393 0.05959919971987156
Ni 0.6209617046761058 8.96296222704381 11.721305485447733 0.5379971658514864 0.333661056101135 -0.2442910528767341
Ni 2.027919314337763 4.4018176240284035 9.567144866805672 -0.49989727365597136 0.24415915528456014 0.6619832164878598
Ni 6.308427402688895 5.690818932293087 8.320596370236855 -0.37278784689926764 -0.3902150412367796 0.2793984381028285
Ni 5.248083333400472 7.7016911808444375 7.650408154844944 -0.6801316052621126 -0.42008868886776035 0.15279449022763364
Ni 1.4352137428541445 4.4186436581676665 7.237376446433647 -0.6046563577419328 1.407298714646473 0.22701015430909935
Ni 7.080039673236185 1.4410342428957506 4.86745394349611 1.680383551826448 -1.6849130642656853 0.646791596349086
Ni 4.764125332314457 0.6526171204087144 9.413009368631094 -0.5923364027239992 -1.2827999860397392 0.21533143241959044
Ni 4.349552849129487 4.649483584659531 2.907367399738166 -1.043893594513686 -1.566679856952689 1.454030057264741
P 5.540535831535288 3.689506302480957 8.776815820570791 1.2640584437661777 -0.610351351244181 0.6177129338155749
Ni 8.432283661541549 6.509345169947881 7.586206750034754 0.685071208655575 -0.03175903757915175 -1.1113004632034345
P 5.292731726124692 7.620885694507329 9.859442642787483 -0.10837662623389077 -0.166743496208558 -0.8330685346048814
Ni 0.3174097339935947 3.0025859913998207 8.660961161752132 0.019186086010147603 -1.5187622073358036 0.7860839383252268
P 5.3658195241154925 6.350239222608027 1.440757032371617 -0.14103940657423453 -0.47480562079466615 -0.3042941729032437
P 1.5019837195972532 6.583915721904978 8.871966260807909 -0.6026645241228846 -0.35398974035615816 -1.961178613166487
P 8.188448916127681 0.5206658318863852 3.0510158672206913 -0.8261787494635836 -0.26075331219781545 -0.6644995551518104
Ni 3.500229535305182 2.6680269644830066 13.1830771016721 1.0334027222846913 0.14623303496003204 0.5492650254558218
Ni 6.153042154742725 1.3623101379026346 2.5385217595224665 -0.905964194323343 -0.4746379848685503 0.5292312467333982
Ni 0.4349221301658763 1.8847000166367864 12.843386456680628 -1.046739034382281 0.7075513920359621 0.22023658303069168
Ni 2.516647915141424 0.5052737405580049 4.861981568298765 -0.31602020309092027 1.4066245713975838 0.9732885306016139
Ni 0.1875508783976149 0.5941155691993939 9.30796592025364 -0.3460779417082491 0.6508451975931694 0.2880196041129362
Ni 7.311008534855554 5.71256292058143 1.1220487374510186 -1.56885346756524 -1.687237598633804 -2.6397822118198473
Ni 1.14635300898551 1.2446568340552948 6.848271413826293 -0.10395304324489839 2.869408463595555 -0.7678118794889165
Ni 4.818637262292728 8.902436394332678 0.7190159481776509 -0.29035647977622897 1.147703684422817 0.02245010147340005
Ni 6.863843093367982 8.213222879912365 1.7391340996152385 -0.33772417042691516 -0.29535367588050426 0.5622393262283026
Ni 5.303092584584829 0.7023575297041428 7.132440750984178 0.5987667317303753 1.219667062134996 -0.900507542084146
Ni 2.532009614618321 8.894746334942266 9.911782936832507 -0.14295616398097316 0.7715168391443293 -0.7489695499714327
Ni 3.6948755295762994 5.870582128989464 8.971078693320184 1.454665633966211 1.9969192611012059 0.766893481439705
Ni 1.8336232868412996 1.5086054593597766 0.9964336894803112 0.8931778411919521 0.009249029402093748 0.3582230617112153
Ni 1.9157181244534471 3.4333582523904638 2.828487651626849 -0.004723373617598317 0.07071922089243304 -0.3778048404978848
Ni 7.1212712850815505 5.811842968759458 5.368060232438473 1.5532525278031895 -0.22236982732361057 1.4926961063763713
Ni 4.100459392443852 9.273014370082914 2.7919990105432353 -0.9503908000678343 -0.15137601261355219 1.8335508520124677
Ni 3.1777167331580216 4.974519831444983 1.0791842543123358 0.5140421976977857 -0.6169328611164407 -1.1240256240795867
Ni 2.714655432379608 5.542027795153548 4.909427853289819 0.031528152515268276 0.6802501331178479 -0.4371818969046212
Ni 6.825807230754322 1.6083551997879981 9.068493786975388 -0.11567264567467175 1.3954603272506483 0.20875737874649855
Ni 8.130750446569671 1.4830947234179268 7.188366362539008 -0.5049124674823756 0.24569333254089948 -1.028355646779087
Ni -0.12852990281749277 3.9947233782386617 1.276310407857511 1.25072598832333 0.8108284922597584 -1.5689717383106592
Ni 5.279359311472141 1.650848533952509 11.426312044335894 1.6051309618400356 -0.03656494360822735 2.089362246823976
Ni 8.440056607799644 5.116560293694495 9.459000528611748 0.14613481881927087 -0.6607051211063847 0.670734994538561
Ni 8.841827674753866 2.803583831749464 3.133334499375578 -0.7375844480629425 -1.005901688650945 1.587452570723666
Ni 6.770549318966921 0.5379099842248398 13.243800941900469 -0.39495024192891987 -0.6810991113817044 -1.7517512049361574
P 5.673348222516304 2.44998845422189 0.35387811384288587 0.13585246305665635 0.21280455223267866 0.16056744930483316
Ni 4.694610879285908 1.4662871085825924 4.878951273008675 0.03940755526334504 0.6910829620672936 -1.0051370425707786
P 9.067224696934671 3.194284897042277 5.280782202700666 -1.8034836003134422 -1.170209578834817 1.5316945991267557
Ni 8.135042144385158 7.529673301450261 3.733430816560761 0.856261684891893 -1.3228521168656184 -0.2028772658166377
P 7.034230864364432 8.86000752773192 6.341774631487393 -0.35335930586101083 -0.13130726688813515 -0.7056559747854622
P 2.362027068308314 3.7398923083791016 11.76894148926926 -0.3694736949243701 1.386379962215935 -0.406117571399649
P 8.264271980751959 7.761977562604491 12.3345577904643 -0.9188130252615531 -0.4186316447062597 0.5920232423589546
Ni 0.6782144270790311 8.40970159492443 7.56095941013909 -0.41545067587511675 -1.9363826371687294 0.15468142283770134
