# total energy = -340897.01769631787 ev
CRYSTAL
PRIMVEC
9.02369904060137 0.00000000000000 0.00000000000000
0.00000000000000 9.02369904060137 0.00000000000000
0.00000000000000 0.00000000000000 13.20709567540390
PRIMCOORD
 96 1
Ni 6.253928798980262 2.0467373810011096 11.191771839673988 0.44500293561093685 0.40822587599190335 0.6083376632482619
Ni 4.497673315499661 0.2956416486622012 6.081233245727878 -0.6816927791016453 -0.025260060118369402 -1.3689298850602876
Ni 2.597327404893233 1.482593761070472 4.821778418212651 1.1337611061997959 -0.5012381039545819 -0.6042629789582561
Ni 3.4855391303705776 4.1791277137982075 4.93110684932039 -0.17626866209017383 0.9859545561050568 -0.1944489325436264
Ni 5.082941415008302 4.750571506295529 2.709554248149821 -0.11706978313251451 -0.6104701362102325 -0.46363957687551766
Ni 7.321242904066412 6.052213029443017 2.5938740352501313 0.2367548924006891 0.5388404876883881 0.27011187059458
Ni 5.137300178347855 4.457301285755112 11.699743835117179 0.09234271269947968 -0.3899944405855413 -0.8249451341667985
Ni 5.67043836819305 7.943643525345016 12.361867682175504 -0.8740058962491917 0.001164966842378639 -0.14748233398610083
Ni 1.9731761859904797 6.293344316620894 0.46734369264438524 -1.011438302198458 2.042527031637992 -0.5451823707460159
Ni 2.7413997846208726 1.5103687068804228 0.3978296266772131 0.24001222299572214 0.08838449938268003 0.34286560541853855
Ni 0.4690518788827945 0.04585753642351815 4.893255138732671 0.5934144662795264 0.39335744352050317 -1.146298062324542
Ni 8.547915535144675 2.3267247164758182 1.3352502904214203 0.5057925560944838 0.31641666719839057 0.19869588074543845
Ni 6.824470221568228 0.7714450592067907 4.705185909334603 -0.6266871122897272 -0.603638972221012 0.008196162657547175
Ni 0.7208997111041727 7.602538675909685 2.649752389517038 0.13978239423868183 -1.0488290841420906 -0.25808759244019425
Ni 7.791738574804174 3.735775329933847 3.8269011552300745 -0.10541034451671523 0.4418204241178972 -0.3525368099597154
Ni 7.56326753745455 3.935929999527908 12.739670111084491 0.2623085725000773 -0.4794983982846452 -1.487309131032845
Ni 8.019334313341723 8.687079022565424 6.817991205619058 -0.18159341673719692 0.25147908598474106 0.5308610690273373
Ni 6.781400105794708 0.8813645426051574 0.30969154815086053 0.28170317497660513 0.02454966431490611 -0.24883187816988114
Ni 1.691384110697061 6.4779872474731395 9.166754502391056 0.8170593036608187 -0.3053061591075258 -0.4997432645766103
Ni 0.12803275458885205 4.856094643495517 1.3730622967331283 -0.04166266984610889 -0.2700810173566445 0.39825873747686247
Ni 6.397983131309714 1.8061836105652203 6.86413750041357 -0.099447442065061 0.44915321033388456 0.5715829722267318
Ni 3.3561934275636136 4.505659289197453 0.5969294258472374 1.1680994744703497 -1.1386132920857746 -0.5507997169327934
Ni 6.183552969749655 5.598672889302037 4.774391364792776 -0.3172579321527633 0.05099963097631862 0.2837736843523887
Ni 5.385767732888789 2.9872414427255833 8.900776459759086 -0.6999774363434461 -0.5985641288012659 0.4162158361759154
P 0.28420320769121565 5.605621137604071 12.43230126308031 -0.5061926197463797 0.27520008375076477 -0.26493572571027924
P 4.013208958565081 6.10644546099526 12.528541721022762 0.17728116251508824 1.4335833593746148 -0.31821695363192287
P 2.3962071994961627 8.41932782306157 1.416738805085735 0.00850315237500471 0.10616033530886233 -0.12335535903091013
P 6.229600906224047 7.930902062224922 5.724232247969347 1.1568830369292398 -1.3868494456531857 -0.7814736932467251
P 4.718546398212515 1.0387992159505275 12.582466444435916 0.18029938051612174 0.5429174859712392 -0.30040075138610844
P 3.8911273335284258 6.108611148777713 8.093757271615788 -0.9102926464953677 0.023190064963218127 0.1616714810022893
P 4.769728819471138 1.102795289921993 3.8036434731863555 -1.0353228221255397 -1.1676557020647118 0.04110011247441954
P 0.3031935824335943 5.518217588183934 3.602710960730431 -0.3523462912154642 0.40550333485441775 -0.14679610655235364
Ni 1.4428894850588463 1.1164210755532553 2.5646859781621303 0.013846676075105186 0.288343048890626 0.07435398943154292
Ni 1.9262439270049196 6.340132196420957 4.886308695170454 -0.16714150297792504 0.6585495082159626 -0.531686136031794
Ni 5.861984428851863 5.673614710273981 9.062286235615105 0.3630603351988586 0.04174083138221198 0.8021535901935798
Ni 8.725231222332958 2.337607297582641 10.126104559672411 -0.3585907294632792 -0.47322979166711404 0.6073331332431475
Ni 2.165877280133267 5.037967298726043 6.9824066125831985 1.5678383960371645 0.0013066346265654914 0.7222452466027109
Ni 0.4653837452012659 -0.037564756956544536 9.197091276373667 0.6302771436338306 0.11887264066920816 -0.2915543567390721
Ni 1.5093941473783192 1.0230348136340934 11.39547823723127 -0.3758901399736752 1.1266620332611694 -0.5752275109578545
Ni 4.124047054531171 6.961847016568452 1.4903812133882068 0.4384561356313545 0.29060176301781565 0.16081196121547142
Ni 5.6712414774123765 7.82577596778505 7.758891407733738 -0.8768539072209479 0.45777309079241163 1.5825687602688034
Ni 5.401117045046919 2.8950463090867697 4.690275148952419 0.6434728163884983 1.0374578661906713 1.0659827131032416
Ni 0.769217107900593 7.008634896368515 6.978642827691279 -0.1369125288900545 1.5358135063911356 -0.0216124360634531
Ni 5.120344647751072 4.645716122828463 7.004845845119133 0.012446453293468888 -0.864665335574556 -0.8518355307997395
Ni 8.036903455476867 7.102634769826038 9.068203075110747 0.3029839387322524 0.2542265668228912 0.05156604500274991
Ni 4.582631442465446 0.3619315469432475 10.29452197718454 0.5092139230712069 -0.732860560224712 0.5379894525420025
Ni 8.37295503341981 7.104764362812117 4.953743700866473 -1.1300134662319055 -0.9089227627310347 -1.1421729844125748
Ni 7.17960692309403 6.178301176877209 6.974165268201058 0.18857036227566235 -0.9221228063610765 -0.5017356124162907
Ni 2.3890965246104443 5.218721015268968 2.6366517831730203 -0.43378187008413677 0.25120680615996094 0.22802111207211698
Ni 2.371455192882552 5.195900080261377 11.31998687298453 -0.12823634127229527 0.05916571172687874 0.4031836855823056
Ni 1.3001255416997721 3.399922273370963 3.7888779943595776 -0.9639127458136689 -0.2705037067163599 -0.2599094761402814
Ni 3.6368304693730575 2.7209159876785116 2.78196943337557 -0.12207263566374461 -0.0012572694458688025 -0.28400251253374315
Ni 1.2125324945986697 3.2354202388955238 8.312334725279243 -1.2802353106363564 0.16441201986190393 -0.26074097090264126
Ni 3.584565204223209 2.658661487632101 7.046487509326144 0.6347220667790617 0.1303698426755303 -0.18203590359125424
Ni 4.139143703114683 6.7412987870229655 5.891065103920651 0.349020826386657 0.6411153718999152 0.5041149112817447
Ni 0.821200833638723 7.391979681260759 11.169835227177563 -0.17332320630860473 -0.35748412666266177 1.0832780098485795
P -0.04885701400221459 5.345485940135176 8.074726290227488 1.012895603470275 0.0339861271374576 0.8090387473491872
P 8.46125192905021 1.492023526623233 7.952045491571021 0.8121790927503819 0.5832514097035956 0.15432712482207614
P 1.8076003313229076 3.1878202261770405 10.508371012522977 -0.43707751011627305 -0.09413682848542497 -1.374993060535232
P 3.9246774467582495 6.23453686962822 3.7709560255898755 0.1848872569971203 -0.3535284844490234 0.18517367788928754
P 6.760871190356878 4.0642560243373005 10.279465935246952 0.6829487629959334 -0.12505382977925558 1.1143276800655324
P 6.260831928786828 7.7341132323927555 10.196776366233287 -0.29201612686683903 0.22030703125731088 -0.34988831659327485
P 2.2113296524674846 8.399033523800174 5.9725527162150565 1.137571995305454 -0.5191486656864156 -0.9605620841738811
P 6.918298644742973 4.055836913083017 1.5791590721802922 0.06487716028935923 -0.07947794092166957 0.7153842578168197
Ni 5.115453802842367 3.020168920717952 0.7250072989315572 0.3741888410118523 -0.8111077140630741 -1.2295724941741661
Ni 1.5299681813116162 1.1444757560351062 6.9873064811909975 -0.9059317984235108 0.1260989832143183 0.9346258239240937
Ni 6.914075553567192 0.6446747201211266 9.212028205483222 -0.8766379345554 -0.19948160987152744 -0.3580479695859317
Ni 2.8374660851708193 1.5525184053464007 9.16943544339175 -0.48484834974264884 0.2220780071148046 0.3364275631026787
Ni 6.350238739405735 2.0809101294683883 2.535260597787969 0.8141341595942236 -0.05369954640598494 0.44125426720178196
Ni 4.016944769989811 6.813677877452339 10.254081367326883 0.11682192878776654 0.45505157809619046 0.5993079489458258
Ni 8.12134723159432 7.28088892172005 0.3780812612109761 0.526875344906712 -0.14350946538128187 -0.21189823836832541
Ni 7.586656965505035 3.6112031639473723 8.276134351625643 0.6795255962469974 0.20611788424112243 -0.8653777882605483
Ni 2.9824679059050947 8.399728348630378 12.349030567845018 1.1727344021391997 -1.0422177494731597 0.3590648408862203
Ni 0.11004401044585761 4.761057044642235 10.257898392043456 -0.4057452756618948 0.06406674857292192 0.20809737656499647
Ni 8.519572096291832 2.132615925274437 5.725315994230482 1.0067702072988274 1.4782323655425573 0.7747741697393624
Ni 3.5020705471099633 2.663877185708174 11.609089949283543 1.0873889466931597 0.15092812644285622 -0.09193776395157714
Ni 1.0452962792978844 3.445320503510619 12.625468882466233 -0.01881353316207728 -0.28426605060777493 -0.18888532241291986
Ni 3.105127047683737 8.353409701183178 8.033889539979622 0.2862406578356425 -0.6621819627622274 -0.023521737271024006
Ni 5.492093979308104 7.809587451611218 3.5998053296223076 0.011274287362238648 0.42004960809970887 -0.032446036343847344
Ni 2.951615878704243 8.327881656447522 3.5523921074750615 0.7620770338876681 0.1000483088738535 0.6626247067266008
Ni 3.311805851722435 4.166025302714371 9.138346092904738 0.3870734102840043 0.72979709080804 0.3112171252753221
Ni 7.345850531494525 6.215866836203662 11.303108043830042 -0.006648615664769195 -1.0867556839845347 0.6752567936683146
Ni 0.6886896171897415 9.180170035833438 0.2568740326164863 -0.9000149187184435 -0.720077806637747 0.4898936254760402
Ni 4.660145017679051 0.5017663975765552 1.6224259045940514 -0.3647402940044428 -0.6540017409442801 0.19189454155288888
Ni 6.04624836434218 5.705865410834332 0.3593606950714947 -0.3037845802566769 0.6950028659469901 0.386227003123309
Ni 7.9711658075803475 8.820061276107088 11.34847469102287 -0.33752722392476064 0.3479857002539232 0.22885440660668976
Ni 0.10094270754010182 4.904190959664145 5.904998597691002 -0.9900742347003854 -1.7314099222756438 -1.1061880816775336
Ni 7.713737719839517 8.783749910954638 2.6906423795895567 0.44443446470197645 0.3278081968647838 -0.27671729172623954
P 8.581700264550932 1.6367907311810759 3.5811569530755745 -0.2139301811966896 0.04009172581456321 -0.7869637698270189
P 1.8886241254839045 3.2005887603944156 1.4988734166051478 -0.9408527786704118 -0.302785192457885 0.7518638408000923
P 4.74264869849139 0.9894756767051763 8.102540037943541 0.34327235393865396 0.4841166137829469 0.8910854774392977
P 8.559601225470825 1.702907374439526 12.2990158132491 -1.0202121917363463 0.05927061273585921 0.4829876423848263
P 6.3070874103403725 7.941234197687038 1.3377336124119656 -0.5676041900846418 -1.2106458324729923 0.36068309321593367
P 1.7597386313307117 3.1197003217198223 5.92888974341109 -0.4452142802907946 0.5311120086958788 0.5530010954594864
P 7.050992139913645 3.892598196480675 6.023862371630898 -0.9475263340358457 0.3281642946526219 -0.49582593180007506
P 2.4770505196752883 8.507615694992875 10.171194179303068 -0.6582512602492534 -0.31007941212645307 -0.38964914143098056
