# total energy = -340895.12585614773 ev
CRYSTAL
PRIMVEC
9.04426988920474 0.00000000000000 0.00000000000000
0.00000000000000 9.04426988920474 0.00000000000000
0.00000000000000 0.00000000000000 13.23720319166851
PRIMCOORD
 96 1
Ni 6.334769364196164 1.9896489131197574 11.522336414256008 0.9444546370890573 0.6117096650442884 -1.1117275234385242
Ni 4.523943753545628 0.2130612902209646 5.869997905621436 0.9220179053520958 -0.018783451255090233 0.4161245620136898
Ni 2.838706873326388 1.542120354917149 4.692085773382027 -0.23688293333812108 0.8121526103878206 0.4945036134442258
Ni 3.5607109313942558 4.2917321264518975 4.86007856276674 -0.7153521190273034 0.16928734567633427 -0.33112286306031363
Ni 5.065189035407252 4.7229900432857965 2.6437205562990673 0.03994645848595056 -0.8010115061693366 -0.16393867976991122
Ni 7.365183022415784 6.254374849951328 2.680056814644219 -0.9386897095808221 -0.08899205105969189 -0.7589207476468736
Ni 4.910730995777 4.597247560267914 11.60060823837898 0.7842294016149914 -1.4146736669543056 -0.8356424659796448
Ni 5.687769435572827 7.912388478075063 12.215158231389868 0.24704110481804553 -0.16642365097529402 0.9505710343994402
Ni 1.6184720805617556 6.54302272059189 0.38537633614270134 1.3859703854823422 0.5247161324718641 -1.1983307625510653
Ni 2.796388734936064 1.680380107337085 0.3213347661217473 0.10276262248122302 -0.6256648416727999 0.04760114681773093
Ni 0.5455530675669699 0.14530071645859113 4.807275402398236 0.014989788540612895 -0.3733257216806086 -0.14945179900764585
Ni 8.55917134422322 2.4041025766667956 1.4458070213987908 0.6730207052489441 0.2520177320970305 0.4422418279260319
Ni 6.897748026385199 0.6622024417287654 4.803993236888117 -0.22482291684979347 0.11143212523076293 0.4185624820312211
Ni 0.70997246595403 7.277001391873862 2.3612526352122805 0.07072230621622658 0.5634518584791651 1.0609860312195984
Ni 7.500349634564403 4.141443495199063 3.867963769438693 0.8359905933476828 -1.1799815706199162 0.14721673902954002
Ni 7.607976445174545 3.879232025181481 12.847327366396524 -0.004924433884810874 -0.7464696663677145 -0.49684640264478946
Ni 7.945083513399068 8.77435261128511 7.087635184099746 -0.27697851580742616 -0.18396165985905738 -0.4757337890358904
Ni 6.835948530847459 0.9588101742195775 0.5472036468053187 -0.16901300896902505 -1.2367566706274313 -1.1957313772550053
Ni 2.165342898238465 6.45599875658426 9.249562061635064 -1.2725209727112343 -0.47220880660176745 -0.03412933758354122
Ni 0.08582831154017853 4.9433446326728125 1.4077767713202542 -0.14046065125262905 -0.9994320217662013 0.38727678454406206
Ni 6.301251300320435 1.918407199911683 7.137168840935849 0.8935514224812869 0.8379639150239697 -1.1243110165304895
Ni 3.5570660906651894 4.505059318204958 0.6493957556931385 -1.2701992665565929 0.03450009065939865 -0.4949026486548573
Ni 5.777976982549764 5.662725852498921 4.779741931848618 0.5483967639182555 -0.7773061921325968 0.8295250402279972
Ni 5.125071145747567 2.7861054001744057 9.312107709431235 1.1419901789778075 -0.6438479403397298 0.15373319999181911
P 0.18120194542640275 5.523941532430633 12.308202965802806 0.07095164861821329 -0.29310190373185 0.03455614070831468
P 3.960757073151213 6.220485971013833 12.559577591747022 -0.5105894632624949 1.0177151363461054 0.8290864100286818
P 2.1024671345946238 8.668751717109982 1.1828141264705598 1.1753155326028146 -0.22180392751781156 0.7317976661778364
P 6.125258854298355 7.541057892930475 5.749790515720646 0.9103155293135032 1.445586297372762 0.8874951889848779
P 4.781063299666277 0.991939334493943 12.58043910446579 -0.42716205077477404 0.1897517841782732 0.7566193532072065
P 4.123626283694695 6.033866507977726 8.277116746266255 -0.08915171656600776 0.5978946135380672 -0.972830617128589
P 4.84981783867958 1.0448211800096994 3.799685863443807 -0.09422450310322483 0.10978199122184963 -0.27087008891684317
P 0.14241559439265541 5.6345981734234964 3.7030813044379154 0.9809871847974526 -0.27978873156271167 0.18489882696134607
Ni 1.5020271068974214 1.2576057155748093 2.626433339004931 -0.5897408740826812 -0.7770472820442552 -0.7675442276498265
Ni 1.9464444362891147 6.225134725690607 4.89501205486604 0.07660370469766808 1.059645458031304 -1.1350764825771096
Ni 6.198915387542809 5.443311867171019 9.008618192050232 -0.868564413518646 1.822332357588829 0.8672462089278548
Ni 8.547440926293694 2.20164659721234 10.177224675093274 0.11032912197457127 0.9858144309827667 -0.13662327978440986
Ni 2.4217208142355817 5.033714976506135 6.974444338709154 0.40914813069585665 0.8787722072895834 1.0806161467457003
Ni 0.6881350765239301 0.07524199374024819 9.283806380375667 -0.10221703439039816 -0.10696946147371901 -0.850111349019781
Ni 1.5305527338440086 1.0651798313276346 11.370307665493813 -0.7590279626486992 0.6733786028089951 0.6557904574135868
Ni 3.9636241066775506 6.863633040702724 1.507915830963662 0.10706407807005432 1.1028687874963135 0.19068226641234257
Ni 5.648580614533016 7.851502453787039 7.966427085698133 -0.1029693391753904 -0.05496195805817631 0.49437454406552916
Ni 5.361036144807954 2.9427250202866606 4.885176411459441 1.0279527549137137 -0.7000645967406137 -0.012040733214617974
Ni 0.8461999709500921 7.337227184466545 6.742329485302275 0.08963174152621983 0.3053681226937128 0.7171508627989391
Ni 4.868241016260492 4.267819077102888 7.274266404686592 1.846021216565337 1.2041597105280164 -0.7583831299758488
Ni 8.476814223431964 7.1390129675479 9.196573493735677 -0.4339237949786398 -0.6042318686100046 -0.4609656295877803
Ni 4.685184995525259 0.27144657390951676 10.388808131629053 -0.3387685525310295 -0.24714009228975498 -0.26114386276801477
Ni 8.122984300348774 7.299440225245606 4.798525975794518 0.04929601802165058 -0.014406662343633254 0.1912437953427674
Ni 7.369533316189186 6.239940195351851 6.961365420152572 0.19530228168285718 -0.9216499804897159 0.34213078413504305
Ni 2.3177207558149076 5.303550765964419 2.5607240056330096 -0.8407067678764295 -0.7500859229640631 0.3524617337474059
Ni 2.2806573381779027 5.1830991807790525 11.567237596100975 -0.03308649814132366 -0.23998985439821893 -0.7317552429756753
Ni 1.1118392192215607 3.2745683234880647 3.881161167929644 -0.3967371586260135 1.168728109193284 -0.11635887310841896
Ni 3.6458536872836573 2.6142642739901456 2.481432892303672 0.9512955712702907 0.48823037884100434 0.8422496868835172
Ni 0.9874533766735539 3.339831774358887 8.094219000252508 1.0503594047436877 -0.7900033279842911 -0.14056478093066113
Ni 3.778912984569069 2.412305729374644 6.885159307251732 -1.0478052708632664 -0.7618921715703717 -0.17236547038102573
Ni 3.9997559645252414 6.878890723853926 6.100206226954651 -0.022586627051264328 -0.5428642641358006 0.22981651340964293
Ni 0.906868932762935 7.421727797200204 11.159769726546818 -0.26654215096545064 -0.20552010275612348 1.0109369370820072
P 0.47801588726863603 5.525741342120668 8.044142687228454 -0.19846139613712918 0.703920223041278 0.08325412013465017
P 8.590346942220965 1.519871451211187 8.042778811342739 -0.46995446334995195 0.6403126734929618 -0.6555636861147612
P 1.6108477611210539 3.118708422038941 10.327599226909202 1.1318669745008765 0.4701218421657516 0.5116446439998865
P 3.8975738043342005 6.1894912584120725 3.757247436265154 -0.17144655811118215 0.8740580896433657 -0.00336120316274905
P 6.857084989368123 3.893947052144733 10.363207421535519 -0.3579371550396803 -0.7442528612220537 0.7741774166956279
P 6.637906155054999 7.608238728998721 10.19725321056354 -1.4744656994112735 -0.2522285625562559 -0.6866352107085852
P 2.4682897594315163 8.50469770722281 5.6327875106097025 -0.8119489790174469 -0.4669179905164733 0.9098966966085298
P 6.8910643110036105 4.076288575565831 1.6884448827170064 0.13457102524107148 0.23402463795371953 -0.7175378138247126
Ni 5.2047240298688715 3.031991963204484 0.20341195877222842 0.7622621533152809 -0.8455193587737245 0.7963868629131317
Ni 1.4606676611058098 1.050130166381813 6.930324581774834 0.2066318477630635 0.0817965617525172 0.14253450306252227
Ni 6.785372974130492 0.7820833334898049 9.188181315789027 -0.18850762735852697 -0.7317855819929784 -0.1699154661786364
Ni 2.679319706655587 1.671580032822491 9.11881809741824 0.7129275687462109 -0.6397208055452337 -0.2358118117611294
Ni 6.2517791445189665 2.1135192322892116 2.49052690558674 0.5801105500817687 0.5449987939803 0.9656340993801498
Ni 4.283963098694409 6.628192609290688 10.41341668532562 0.6574197654868936 1.3053272206079776 -0.0813029099455503
Ni 8.067461528051659 6.918350872987712 0.337516773646425 -0.21532911842674532 -0.5319249915154775 -0.5106748238874494
Ni 7.818047699799903 3.9023582230579623 8.384312145206977 -1.180832605766302 -0.815506357351402 -1.9912862311851447
Ni 3.129453014560357 8.483778311177325 12.352362517524242 0.4112793181062465 -0.8575004423950007 0.7282539146906362
Ni 0.11893033900514653 4.728814553036463 10.151928756891971 0.31880985002091544 0.5949519859699753 0.901661453182931
Ni 8.675824336092935 2.510273259839271 5.867628306934053 -0.2604913167856804 -0.47719520407276533 0.39074288871579155
Ni 3.5580609603430986 2.5590761396756005 11.34064246055253 0.16287141484766143 0.3368872763479166 0.36454180484039156
Ni 1.0807811967312055 3.3354724363156865 12.751688735405185 -0.1586450354711397 0.16438990837471687 -0.5408366921828105
Ni 3.112504052956709 8.27040589807527 8.089268166964441 0.3888091620281885 0.7706956287946147 -0.8925430358214306
Ni 5.625490593735731 7.864517158028048 3.6255375440337776 -0.6691437387920411 0.44525721771358795 -0.82711540234524
Ni 3.044111284735374 8.540675812483915 3.479174125873784 0.14774612917044877 -1.3713014706162578 -0.5141427278313919
Ni 3.4970844933570833 4.316766665256004 9.442546881755828 -1.2026144775280836 0.024110262784642345 0.13128849783505778
Ni 7.1232307167483455 5.784172307362197 11.46814314961937 0.2918338356527038 0.9359190888142203 -0.7463297983557404
Ni 0.13716177806631663 8.831738503160853 0.33082039628711846 0.6417054400754303 1.8998297777453605 -0.5952286366701298
Ni 4.558737059463041 0.42276172978455706 1.657390477934571 0.07700582523209319 -0.8304956316713825 -0.735489513207127
Ni 5.904931397720737 5.7205096922458285 0.3948285025098156 0.05626807846410955 0.02216470902249731 0.5201449681614138
Ni 7.9287766949511616 9.029428152431146 11.130965536090415 0.8072214916347904 -0.41843469820410517 0.9648697104102995
Ni 0.12227219669594044 4.937321148986564 5.911483066763256 -0.24620806739378884 -0.5159221883293179 -0.4028828665124352
Ni 8.074968271984972 8.887062301522388 2.664741248166302 -0.6578036311888735 0.40167573357821146 -0.2665490929439861
P 8.513344029150819 1.7260627140927007 3.7337784605632836 -0.30752810645950907 0.3420783336305528 -0.7129116279066109
P 1.8151487716145411 3.226868844567234 1.6165275625549338 -0.7815040322640282 0.8273308607901557 -0.1833376531218133
P 4.651287072317964 0.9010706513946862 8.175375946441413 0.6097301727204144 -0.12951392243313822 0.14103220748538292
P 8.6041575422043 1.7255652792537461 12.309235821413873 -0.9635756741892243 -0.5409937865859651 2.0847527730764224
P 6.440750117702858 7.878219226773792 1.3747235829122018 -1.007337392656207 0.42226384214220825 0.29435994450866726
P 1.9423202492606926 3.2283068834653026 5.961241925917359 -0.717472764914732 -1.007249203817775 -0.163592352174086
P 7.016598775816113 4.054528062429024 6.104918291520018 -1.323866674173062 0.009118931582132683 0.28574263515330145
P 2.5821661604728856 8.560726958628678 10.199463630102457 -0.21600608988911188 -0.6016682216478864 0.0520553259343426
