# total energy = -340892.4906466855 ev
CRYSTAL
PRIMVEC
9.04825169795581 0.00000000000000 0.00000000000000
0.00000000000000 9.04825169795581 0.00000000000000
0.00000000000000 0.00000000000000 13.24303097126117
PRIMCOORD
 96 1
Ni 6.283884239621953 1.7006822744110368 11.519067040688737 2.0821608439795303 1.5380184844622546 -2.3518397408017497
Ni 4.559377918069685 0.4188236723372004 5.91360896262705 0.1086843872822967 -1.0491517575888318 -0.9362803288083811
Ni 2.4628074801302553 1.5418130682941642 4.792586656623943 0.11920688408017532 -0.8800852696740521 -0.9239824852776346
Ni 3.6942021719435254 4.611866827095996 4.981551253244593 0.11916343243674961 -0.6263896356539664 -0.2386035155736536
Ni 5.0404282280824155 4.5095763398451 2.953143106199321 1.18982632462448 0.6423047642223261 -1.0837600916913206
Ni 7.327183871818094 6.161642357024905 3.0204973882025894 -0.3527805505394054 0.10310715030483533 -1.5541858382507363
Ni 5.157024001520279 4.793971943983351 11.734703169310224 0.586295595846558 -0.39959262579693766 -0.763202148631047
Ni 5.343816112869904 7.952725715745868 12.541706799418273 0.36960662095780866 0.12085753230972089 0.9720096638891905
Ni 1.8696945708603507 6.612453409329321 0.2852796183447451 0.2652861670711625 -0.3142397141517298 0.7687138224778955
Ni 2.6893485618906006 1.8293212710714521 0.0029922568893296334 0.47371110217890666 -0.12634220957337597 1.607243380197348
Ni 0.2686100239473699 -0.027584500613275834 4.845717991532148 2.211086498009366 0.8317945529884642 -0.28755397733042737
Ni 8.664895522958922 2.222160173723812 1.379685586683347 -0.05246284578540642 1.1616755732218769 0.23080895922989927
Ni 6.923224667632664 0.44925475298489753 4.815378298228214 -0.6823116436325668 0.29304276835914045 -0.24710821061055507
Ni 0.8616686437061285 7.34521703777042 2.677953193501058 -0.20159634222168504 1.8553301526710884 -0.5371322467480297
Ni 7.628716864974761 3.8903411274621176 3.834228393566812 0.443125773192882 -0.3593448340204844 0.486234174346582
Ni 7.61144375217848 3.958510656957762 12.58466699441328 0.14970685244124543 -0.3296267381307614 -0.18049786968017298
Ni 7.935181155393856 8.436282391523171 6.858725109090489 -0.3633326150236388 1.3988423563490038 1.630455042427121
Ni 6.942524588845063 0.6417137844729777 0.23182073671929201 -0.012930077798106765 -1.1636077572475831 1.4756615194915876
Ni 1.923169739339148 6.591922925864281 9.156072636450748 0.16761869972465973 -0.4349113557028897 0.4701694075742354
Ni 9.059652655005106 4.928021795254649 1.4825307317731184 -0.38217545876175474 -0.495269802186289 -0.19966287264439805
Ni 6.511022506004903 1.8554254776808141 6.841217646571094 -0.6891044981846842 -1.3663767796211306 0.27584363087203456
Ni 3.515128219428489 4.292789273587317 0.6487325134389679 -0.2900859997236617 1.0227367579304127 -0.40743680443170477
Ni 5.976107952683496 5.5122855142077585 5.0027938341308325 0.21407364875308935 0.4383442926438386 -1.2047418082837316
Ni 5.347254448575817 2.8089121619377786 9.208806753102403 0.3330468195559038 -0.2523473475223073 0.1614385390558768
P 0.2512627154858556 5.495084787426339 12.526953624764351 -0.4933170493352923 1.2569164334047578 0.5316246866662393
P 3.923828707587334 6.245112480411859 12.682135668249225 -0.1248082894273528 0.06736007461221304 0.5089717251534137
P 2.432595367177514 8.466639276505635 1.4884111906554145 -0.2823222966178428 -0.3206852126667574 -1.3945020771024372
P 6.3032927398566425 7.470680098028794 5.775034080601734 -0.9288053605875747 1.4610967343035353 0.22463754031186473
P 4.553668471147498 1.1592620280039692 12.366143568624011 -0.9611629509826736 -1.5162101303379114 1.9378332535723273
P 3.9820723047951203 6.251057181882345 8.202852875623586 0.7642084784083741 -0.1654044656821603 1.196844922034158
P 4.600375547236762 1.094440351695661 3.637449726641883 0.5564371177242288 0.413011727416321 0.2779869024672826
P 0.31824963846370286 5.603482844681158 3.694222982922798 -1.2658744139289941 -1.0823045901917168 0.9551694524034
Ni 1.4133097954116138 1.0429829433811233 2.431857934651114 0.1136155060353269 0.44250022379374115 0.8759537640041817
Ni 1.8577870714156646 6.520749376751891 5.019228173979908 0.5127311921958461 -0.41848174939195665 -1.3873742078084041
Ni 5.877979661287125 5.562901435099533 9.392818336656168 0.06888988099317812 0.006512604307537171 -0.11802443373629995
Ni 8.507121155316826 2.1212993102664264 9.987973436370346 -0.5716297663042671 1.403899716267253 0.5736714793246442
Ni 2.537971308311874 5.135516306854611 7.147860187551785 -0.9786464524794177 -0.3603493640255987 -0.6623889365667108
Ni 0.24568084891486242 -0.09803147510149393 8.922770700902358 1.396331674112008 -0.32908809201847194 0.9715448084376301
Ni 1.2529928689975152 1.3399375210978128 11.188944286137406 0.5488526205087516 0.004300684257882916 0.9142058655068448
Ni 4.239332201612236 6.876761894343557 1.56438574220348 -0.20092168475216363 -0.018575191899026074 -0.1542530770510311
Ni 5.566448349827738 7.862143666398789 7.8892838978458535 0.4794654881641807 -0.5061638233909734 0.07332837638050597
Ni 5.42929494816926 2.8374232035412787 4.9329494732163335 -1.1066362249585457 -0.47878157472327865 -1.1171191267677405
Ni 0.9061009892783755 7.234810268603197 7.079631844419066 -0.20210310665477454 0.6136894144784786 -0.1112878863434148
Ni 5.216579595247427 4.521492887541644 7.125134598186075 -1.9014104919689185 -0.9318518607233822 0.914403840450264
Ni 7.888410741541589 7.088744338864919 9.132394266164427 -0.023784246903791297 -0.24344053195098075 0.7684600545958765
Ni 4.585264966634463 0.3999282079828398 10.064571412471405 -0.7086777923309214 -0.4249879259415906 1.0888331353388536
Ni 8.257579417334298 7.07824836671003 5.028670024793381 0.2772196852839548 -1.610462658465594 -0.48298944215703915
Ni 7.134501348509128 5.865945486316431 7.174637584099358 1.0731874583817969 0.37928682436005 -0.14360665308077847
Ni 2.1612835352254454 5.471034533988667 2.6320658890300983 2.0481924574538857 -1.6628056908436848 -0.19837654973280675
Ni 2.4782347495475734 5.341255457594186 11.3603227004475 -0.6028275320633102 -0.7129350249453786 0.1279244664588313
Ni 1.0384045279411451 3.2447845504251904 3.6481239493583693 -0.6166027314705317 0.6388417453743901 0.6493146198812559
Ni 3.57036779701953 2.821624955797797 2.6143068851090603 -0.015379310669547707 -1.4177145106631583 0.5325605682169473
Ni 1.2380089639212228 3.334850849416382 8.099172576887353 -1.3081520916512823 0.3280660785118608 -0.017295810965970215
Ni 3.3820555793578175 2.296509659238241 6.8030638829628804 0.6698029696425948 1.7256743053434471 0.9137808621542844
Ni 4.075079285640053 6.749905403299103 6.007039401658922 0.8135875430621343 1.5274687339708664 0.07251256534742996
Ni 0.757897862451318 7.219835411778763 11.25025976485087 -0.5236676366026917 -0.05693733661699226 0.5983113893605114
P 0.13867260314537957 5.4708716654552285 8.073773229097704 0.28297535682080943 -0.26199695479692947 1.2640137065711716
P 8.491549113869786 1.5734909980478475 7.871340309586919 0.4050420789472831 -0.6214957978967748 -0.6808376301902016
P 1.9859193659720509 3.3608283804997368 10.367161241445048 -1.7090207559471662 0.2570398679019702 0.4462077545523154
P 4.003788109253515 6.336029315077672 3.7089625851989334 -0.46807704382158094 -0.41892886423170433 0.1032130797550803
P 6.890053776322467 3.8489634717170182 10.416478738195249 0.1847702718032818 0.1560705898757441 0.13584912062254667
P 6.218854453520918 7.860732139108993 10.55543726609933 1.0072150081457298 0.2650465402565306 -1.6662278291513564
P 2.4389472399815944 8.383576324452275 5.833607939002324 -0.3811588445717823 1.5488471996466422 0.30885608124231323
P 6.898821532372543 3.9524573764649844 1.7978867392927402 -0.1999050705621912 -0.10614516580021074 -0.9728457866372406
Ni 5.444758410594009 2.973897986310432 0.3233736634906982 0.02438177127847414 -0.41376377509099704 0.2694991767112455
Ni 1.4403188272067422 0.9255185377649234 7.0611308838457 -0.6649194162980484 -0.18598254694382807 -0.46863882986232197
Ni 6.787582324034417 0.5494451409796302 9.076905861647301 0.3472151406364859 0.04635107646071372 0.04951636156257279
Ni 2.6612265951169793 1.7282975390806288 9.190716583163374 0.6836018231989002 -1.245917511191093 -0.44955687353020646
Ni 6.461890498417785 1.8819278073719135 2.5276445384667214 -0.3854592717193491 -0.14230001845421297 0.5727787923070458
Ni 4.167253827314081 7.000695800037987 10.522435577098872 -0.5447928486170811 0.11884744385822757 -0.5225425218593129
Ni 8.388878600040867 7.451461611083114 0.4596919115027135 -0.46382366786186574 -1.0782666726769172 0.10826632590827161
Ni 7.481718965295144 3.4784104133900864 8.162633396116268 1.0642947838778574 1.9906398558503977 0.8583306516057797
Ni 2.9005528567522036 8.61186371882115 12.429472283375803 0.6378289878391596 -0.3835859659560361 -0.43158769064629543
Ni 0.07057726931496847 4.887250372384013 10.453638098924305 -0.2004786836774741 -1.0254217609617438 -1.2828467801172745
Ni 8.544146601918388 2.277001628233116 5.637267207467306 1.064713873693147 0.9845949567533687 1.0842375455483715
Ni 3.8914178694331802 2.8634007346246335 11.311853024896363 -0.326406945641883 0.10687535909801592 -0.18990707880921487
Ni 1.2230341070967883 3.543295427461398 12.682626083499912 -1.0324634982998735 0.1030521286971838 -0.2957203151913036
Ni 3.252176972192902 8.391158759508999 8.016417265397154 -0.9557579779170186 0.5939816516369061 0.24891209658851327
Ni 5.518049250641091 8.019230366899702 3.534419092389029 0.25611452787422345 -0.2847355340450257 0.2577327802039368
Ni 3.120561100671315 8.47696333187523 3.5531851667418253 -0.380494471514906 -0.29921264461527824 0.7737202745535514
Ni 3.5898577315209392 4.274774204138707 9.31506851809363 -0.1102573881963714 1.2609957456804541 -0.746260892791018
Ni 7.265284780859812 6.400878136141554 11.791263791672485 0.5392930018447744 -0.41317319269484976 -1.157101066477317
Ni 0.7538388166679697 0.20936569008412614 0.16730036719784414 -0.27535075039601614 0.09153924296157784 -0.13142656607481884
Ni 4.542376252829134 0.3352513037042543 1.3200901806480259 0.0023037084325121613 0.3902649206381085 0.3448972911365866
Ni 6.216890982867804 5.5712710680678725 0.5360338220762 -0.4764719527534955 0.8494683161191435 1.1653702484646447
Ni 8.207624018828133 -0.15596562209574788 11.154234287186219 -1.0832556412510763 0.6070991628554705 0.6845289629988598
Ni 0.2128537911752558 4.879143138719547 5.936957071720568 -0.2382661868388929 -1.022085754609975 -0.2971200237523076
Ni 8.083491051592834 8.725754064953573 2.5748818421148445 -0.8873285815000267 1.0349752089781337 0.04214578013011452
P 8.484708635465392 1.647822387058561 3.647117783751797 -0.3898082927166642 -1.0291601449582535 -1.4052174066374121
P 1.7422499434451473 3.309922915548517 1.6566371940182978 0.2454943291562159 -0.025869925788226413 -2.118738643103564
P 4.769270216411927 1.1209155366311871 8.000538488212138 0.10240755313464944 -0.8367732371499782 0.39557090623205426
P 8.416430526947455 1.8801181570003804 12.469267399870997 0.7542991897144622 -1.1324490722565916 -1.1422940833714716
P 6.426620412676609 7.621930676081513 1.5349734947149558 0.10546896566879255 0.6996295660857241 -1.065667495855668
P 2.0298576769928696 3.533803811262708 5.593419378965064 -1.052497019911981 -0.3778943148878976 1.2831630258061129
P 6.946008165810263 3.8966839520143406 6.035166797383658 1.1350985940642968 -0.1279792309561667 -0.15639557731533066
P 2.1385181335515617 8.548535004069356 10.3142425404555 1.071864111584683 0.707605128092033 -1.2991226344591627
