# total energy = -340868.3140281881 ev
CRYSTAL
PRIMVEC
9.26172744174312 0.00000000000000 0.00000000000000
0.00000000000000 9.26172744174312 0.00000000000000
0.00000000000000 0.00000000000000 13.55547430074757
PRIMCOORD
 96 1
Ni 6.0731090444492 1.580208115702851 0.6711121648506372 0.8674727231163643 0.15455132501774027 -0.1595518635561252
Ni 6.000432270833907 1.1304215942484048 5.254602973858045 -0.7543413558063072 0.03546322590361634 0.3538807255821195
Ni 6.912749450418555 7.049582208592676 2.200879987857395 1.1307256618075816 1.7155187049666842 0.565971025356593
Ni 7.455671900951041 1.7588575723442894 8.782374501978698 -2.2677435843817784 0.050870561597622065 0.10101375811091634
Ni 4.170972551775031 0.21685315531427107 3.2933970372226673 0.5905438295999507 1.035537509239507 -0.3052133422834034
Ni 8.116375736734662 2.2375962531362408 10.979242309597767 1.3703928427590593 1.0204343350494813 0.5714158505212481
Ni 3.423152909616305 5.150224234089092 5.054904389728972 -0.08369377877523004 -0.9508474279892785 -2.2451024499434946
Ni 1.368253487923323 4.710329237321932 3.6445387542395253 0.40373261610724015 0.4874143106976122 1.3211742149425634
Ni 1.802183932350959 5.852911479430268 1.6833457840222763 -0.9536676710468931 0.3726652052784743 -1.8202217390037299
Ni 0.5015864357086793 1.1999493806036994 1.9614096946345547 0.400159296933685 0.3592705291391232 0.3504045941080611
Ni 6.9143887761392 -0.010607456202573456 7.432724119380171 1.8299687910881643 -3.118070648956791 -1.3192425451374894
Ni 1.0259400493071393 3.4497433285088124 6.566909146071175 0.06749402908691603 0.053809332510971836 0.29749720458606826
Ni 3.1762167380691007 6.646752644221131 11.720794540936375 0.7509325872350745 1.283179995086977 -1.4721244528726065
Ni 3.7561768358154963 2.101708191140119 1.9462000861687676 -0.2112148391480556 -0.644370131391787 0.46400904439979446
Ni 2.027299474531829 4.477943239261362 11.60116821961997 -0.8222151368301452 1.9864294173134756 1.5041534562836933
Ni 5.869814131634665 6.260103317329632 11.499053972160043 -1.4385360753941998 -1.1832268170300912 -0.6021886129277306
Ni 3.9965279192984124 5.380109565796134 13.407312466536737 -1.083648505814121 -0.3350612788827713 1.0695994839202225
Ni 7.806848812531393 6.831913095108976 6.716994509746266 -0.04748930383021499 0.00295471175294975 0.7421880082732251
Ni 1.4510440676795477 8.41787274342494 11.988447343963468 0.6885648236311304 -1.0457954395220892 -1.8120302043318728
Ni 6.5502454464294475 8.82786162294936 12.809732858897933 0.1630436787594676 -2.5061599236452903 0.5100621300041152
Ni 2.6080282956387535 4.791841698719686 8.736692884736096 0.7640968925311744 -1.2654697222914078 0.32282976981358597
Ni 4.437636202333395 1.7855498702363846 9.21292348979273 1.8621741721761156 0.7780443558502019 -0.3313869153549777
Ni 3.5919664119338695 4.342277458718887 2.608127396120171 0.49391431659965906 1.1351183915586385 0.2157181263350478
Ni 0.2810647102365113 1.8696000448966081 8.78592637437343 2.1200439921785486 0.4801388600821215 -0.05987250798591625
P 3.447048165883344 8.387197902821672 4.932742207495545 -0.605956307500279 0.054956815851853746 1.8803788681096
P 0.9391669268397416 2.615215395973336 4.39167580710101 -0.5131482251286066 0.13104681413789687 -0.015361055837102578
P 8.858851362278628 6.346876439797029 3.1517287312590034 1.0969246540977367 -0.8377862517955249 1.3994951594416543
P 6.28028462097532 2.8575392273573677 9.991848642871167 -0.9781191192210379 1.4373186580473312 2.7309021078558193
P 6.742852326014462 0.44766188122667155 3.1747330093660078 -0.8752662510188539 -2.8007916337581054 -2.827119215909041
P 2.2933888980016057 9.192143878567643 2.027518977467305 -0.12307999388233642 0.34698528401386697 -1.0158294892876183
P 4.076104679703993 4.893331705763955 10.420688842010287 0.0747586810691293 0.2626656987291799 0.8135332927854313
P 4.5390243303780755 2.790465798719424 4.184628968583461 0.04622457818517846 0.8567563651401244 -0.13186416783286967
Ni 0.6008082457530255 7.929483342853819 0.609055813856048 -0.7919990182580811 0.11084668504093813 0.6290550983012715
Ni 2.8326344428216825 7.097289365581635 3.2861719638064204 1.2195259085714416 0.20287340916189575 -0.9667075349499867
Ni 5.040648739168419 7.998020124394938 6.386634256299943 0.6826412590578438 -0.9647846068956609 0.19444507588888446
Ni 0.46679012648570845 5.4005872447133525 8.126818334192448 -0.9214178098742518 2.192298675878902 -0.13358243607555703
Ni 1.7869946996850894 0.384606189863395 4.055363967733292 -0.502977969463824 -0.4800905233426893 0.36709079651449034
Ni 6.41226423407815 2.369131303331778 3.1410342148204182 -0.9725272269555573 2.5896436432922436 -0.6573045800652679
Ni 2.6405554816890797 2.858872916079249 10.446526282478567 -1.3118133425529537 -1.553625594871892 -2.9129588373826802
Ni 5.956707656556121 1.247841772137365 11.702969420699343 -0.5366578782147725 2.814751438372307 -1.6094236756781186
Ni 6.734313013503527 3.998019057383294 12.09432926206271 -0.390371878529618 -0.6436787617517172 0.07921620261985067
Ni 3.848933034076889 1.1673944093716677 13.197704760438631 1.4189758938740853 0.056103527861787246 3.0137118856330423
Ni 8.445630139949092 5.3825546617862505 1.264799068532451 0.9201533413395313 -0.6506976162717116 -0.0999125546269376
Ni 8.774412195074522 0.41560982178351613 12.312260482427167 -1.312844097810313 -0.6289252575916265 0.17716443443156585
Ni 1.2994018076562042 3.655538907676875 1.5329612665574848 0.35731571940559753 -1.687773930753248 -1.2305024621876035
Ni 6.899088402746507 3.388597405301452 5.298739734997803 0.2511620689649546 0.6003633867935337 0.2983456686292926
Ni 3.3436317195741365 0.8232212159266389 11.122822236062794 -0.5611167825880853 -1.2895627586848695 -1.3243965785346028
Ni 6.239384833504296 4.879754013637025 2.6969427294429495 -0.445561122107252 -1.0876095473443976 0.2782316714882369
Ni 1.1825465951285963 7.1098575294399184 4.867160843115205 -1.2167671148793817 0.2528548832863452 0.38778920540410633
Ni 2.8316434380075073 2.1189813124339283 5.320943799871679 -0.18376445624658674 0.31692754539653806 -0.4727225130133923
Ni 5.220696716622386 7.412873459396782 3.9162574555229095 -1.2970287280446113 -1.113974667601488 -0.3175546374575757
Ni 8.587278996285562 3.6526214635977596 3.156920855547105 -0.30501691000188114 -0.07499367989807083 0.36214913623849887
Ni 8.17078838424197 9.183984296873355 9.95043668188403 0.11151054387718215 -0.5956047890626259 0.43765960787198815
Ni 6.3917495082519915 6.439512235604363 8.72831565245178 -0.783432873855625 1.0545083939150548 -0.3852759520639493
Ni 3.828622066249906 5.891125366003059 7.082627125195454 -0.024653793992938183 0.5260325372904424 1.7570188810929996
Ni 7.77166351076454 0.07283978001463301 1.2577545987972922 0.42429707052215315 -0.5909680616215629 0.03890284771278461
P 8.93040746689845 8.491401595945877 5.878629443617211 0.21152182886551316 -1.588233928974381 -0.48048544478826277
P 1.675844711134418 5.657729839673842 6.3510238412529905 0.5627275787186309 -0.5620354377476127 0.0014434173147459012
P 4.301405456429569 8.578202503594982 12.334505298900877 -0.10149738261555423 -2.0340639884723033 0.8330389669185266
P 7.619122863199374 1.759394752523936 6.76521198790589 1.4873901207824254 3.4159177806831105 -3.41707734820885
P 8.322254671447844 7.255729733395679 8.965401050911533 0.6514398937543748 -0.5613828917652784 0.12033919791240566
P 1.0481311477628856 1.182629950673714 10.900973305077809 0.24247739670676305 -0.2942208478276417 -0.11667126214251519
P 5.244434523526424 9.105731963462421 8.471683378661954 -1.96695896729369 -1.199020075308606 2.231325193653744
P 3.0936206545848166 3.0886100601505273 0.1681383224021119 -1.3955927390634546 1.7114563619718524 0.4458264599534967
Ni 7.94341298061569 7.1961027334549055 11.386435073669857 -0.022152881947955397 0.8791450172479699 0.7583587044958165
Ni 8.549352223257065 1.2221497407866806 4.064907251476531 -0.1953426480024894 -0.08436817913443534 0.7384537380417734
Ni 7.805672573172512 5.08404919299297 10.104588869988138 0.7556384773511761 -0.9824321447740952 -0.3168110744233318
Ni 8.945374418110672 2.4268689109165527 13.494000381113569 -1.4142453211676353 0.5409472496187457 1.0228087488189288
Ni 5.493389751610922 4.312658455020442 8.702126266348559 -0.8596213453927453 0.02036185148580364 -0.4156357953027293
Ni 7.041848666351211 6.025151820824887 4.534360124542385 -0.42384069971102495 0.02002529408199132 -0.7640750381543034
Ni 1.5161447484163755 0.9322947252311592 13.403096528299235 0.8686613441078265 0.9276388510832991 0.7213530738057446
Ni 5.3295312733642355 3.7401262625167453 0.749446001461242 -0.4926776159790805 -0.4921279141231976 0.032665351443505034
Ni 4.048495470815604 6.739823741208523 9.247544752370954 -0.36206968915081517 0.830158817157254 0.5181983859580043
Ni 1.727275082471963 8.459244878984963 7.264269972079336 0.3152313886410378 -1.0733077860097453 -1.3888135113580922
Ni 9.060006816101811 4.547044986163833 12.606441650774292 0.1511564404035784 1.0494641466229282 -0.8334367165775775
Ni 0.7084943483176999 6.387072335998172 10.49772511063523 0.8673374830900805 0.06939150321994501 -0.5620570350141675
Ni 4.32879238386431 3.2683616623329645 11.968873609624413 0.7831641935752706 0.2791061036733903 -0.2813033684350252
Ni 4.156339022743278 0.7555411441547839 6.939318567338421 -1.5267711936832093 0.7200888623813405 -0.2903109712502742
Ni 6.284850652502317 5.815725644580593 0.2301641096968246 -0.12677389779415588 -0.3756553982550498 -0.7554307322157442
Ni 7.126417497736611 8.413047383535355 4.621928829379294 1.5019896158631552 -1.4763243498865672 2.032023561003507
Ni 8.723065179282095 4.952967967431963 5.374013496929869 2.4899576028538153 -0.25968681860651405 0.12110255844099142
Ni 0.5381091308883075 1.0034525755798642 6.160637923858997 0.3684629942716687 2.5228931772395713 1.1799121508345614
Ni 2.9957056742533696 7.66559821046604 0.6663599726062117 1.3546579485223058 0.3904420696459211 -0.7880914556735588
Ni 4.713154064128694 3.1439951890175393 6.442998349735725 0.37807249233697465 0.8896382034698098 0.10329715482845436
Ni 5.2859548467222135 8.616768335802714 1.265816932355609 -0.6469610320474148 -0.28339573218767966 0.3597973481768707
Ni 8.011153253614575 4.092034850548686 7.530499247630367 -1.8785904087506096 -1.557410258725305 0.041714606129966865
Ni 5.450859900146487 8.385771596827436 10.585645761107079 0.6123439561941776 0.22800157168809118 -1.4517278914941258
Ni 2.367241910975779 0.8130972218857474 8.9152858448414 -0.6880290057323183 -0.6392510649976668 -0.529006789427418
P 1.3699761691890862 6.239783087775414 12.891919574038415 -0.042666428520274906 -0.18882258749578446 0.48265365608417515
P 5.612467778674998 5.8439090805575695 6.0447514880002 0.7021289354688102 -0.6167330864008088 0.03690330078425257
P 4.797630278241741 6.306115578234534 1.8156199200511889 -1.4351735866798703 0.37326298676347325 0.19534624754691518
P 7.832188898247137 7.231732598129052 0.13672346979274413 0.8238650137287425 1.3226220031326834 -0.45312299361490993
P 0.6540326136560456 3.8696144709932834 9.607157245117207 -0.4433000939872172 0.4866260104683619 1.4352612612976703
P 2.0673564448244424 7.819009460391324 9.296343867000955 0.2879838657789943 -0.42407441298838583 0.9052417143350215
P 2.867449275499124 2.5957657687792346 7.4786632126399155 0.30615719425391147 -0.3609646290120945 1.1812838343711076
P 7.382115263248396 3.353958545441481 1.4041982513234692 0.5092206079394263 -0.33214153413281505 -1.6618484691367381
