# total energy = -340896.4002934198 ev
CRYSTAL
PRIMVEC
9.04535058143860 0.00000000000000 0.00000000000000

0.00000000000000 9.04535058143860 0.00000000000000

0.00000000000000 0.00000000000000 13.23878489399014

PRIMCOORD
 96 1
Ni 6.312578167868565 1.9142855914150982 11.51595577294784 0.6545455292628921 0.15832596156882411 -1.209071803117653
Ni 4.666677167549698 0.1671716430300623 6.138268838854409 -0.052302408948142184 0.37377412207193694 -0.9771690966029428
Ni 2.5116495757966875 1.6327219248166198 4.72861610880515 1.5527629897612807 -0.5927806893502694 0.497785112408975
Ni 3.443601070698635 4.371898244047454 4.525638446299693 -0.5535204582980661 0.22571200432296612 1.549554510126312
Ni 4.9324476523863865 4.744901357627558 2.4648498374706187 0.3053748075619321 -0.21804985979201802 0.5749750286274162
Ni 7.143393600182566 6.080374978288459 2.4766458788999133 0.6654475208873765 0.4218439809959703 1.4336658917860923
Ni 5.21965561762138 4.521969652185958 11.568540012841302 -0.3536480407460232 0.9141390168246514 0.3049518610919006
Ni 5.817643731179123 7.897685368289966 12.341976265025918 -1.268575872020557 0.3651920368298808 0.053278656818482435
Ni 1.8720257144442654 6.479094022996147 0.490133164708252 -0.3913923493743324 -0.18398479978750892 0.12996540814826005
Ni 2.6252501312069385 1.6482437460670372 0.3951777900342978 0.7554623567846279 -0.19699381045266717 0.4980301385402454
Ni 0.6483725242390211 9.143854244658694 4.842853456882085 -1.07623293007634 -0.25276078091064214 0.08010631853428783
Ni 8.558963798449788 2.1589261377663718 1.3574257814957722 0.7341569104386324 1.121569192119294 -0.28302755021498355
Ni 6.915532178784396 0.6826164117039569 4.67665328448273 -0.7925093822355964 0.14248925164688364 0.8030776446697458
Ni 0.8846461214896911 7.454445109016687 2.7626164402030553 0.17388833478345536 0.12549477397141615 -0.9995232959284271
Ni 7.584435839313741 3.811303608956626 3.7695059493901617 0.7695502023362618 0.06433825706675371 0.02163557599190467
Ni 7.494118015779117 3.8180062135874886 12.642218580157095 0.9765360910046343 -0.21316759199905225 -0.12506308575063624
Ni 7.794667872823181 8.860363918429481 6.925009896911544 0.346635613983932 -0.16454391745407793 -0.12137432404513937
Ni 6.90288677895451 0.7458162748022468 0.2938825292796808 -0.2660215025752902 -0.13465638586602618 0.035597951709267724
Ni 1.8608366160254037 6.5804924007450865 9.210593553360297 0.7857142136906339 -0.40174901001830804 0.4655761317765982
Ni 8.999553770062011 4.706440527815918 1.5395511977724485 0.32824194196809275 -0.23960238915181317 -0.024871309320382975
Ni 6.213522535867797 2.1722047121227894 6.778045566628237 -0.2781385975537984 -1.239357084364756 0.9794434944594165
Ni 3.3749739973729262 4.326418222341686 0.5433804287844941 0.36998714422567897 -0.35857838816810506 -0.41122583916049177
Ni 6.043424721990117 5.658355111004387 4.808128356776984 0.10522393953752202 0.6153524040031982 -0.10153029273601868
Ni 5.233739228161532 2.814994446107873 9.293613588209121 0.21161978789595812 0.3952004102665129 0.3209016995529376
P 0.158324385824332 5.371789365646304 12.504402717247142 0.4772502256804168 -0.04894197711634152 -0.11049367257689358
P 3.7652537301769793 6.085042379084039 12.654530206557995 1.4184061374135444 0.573295069821832 -0.8194699699848403
P 2.4727183877653376 8.629770801216843 1.5020591249864028 0.28206801451519165 -0.8654402660673676 -0.055501632611730224
P 6.415514255181939 7.685825171712301 5.763835655379382 -1.5093170027625038 0.0470820410894673 0.2827928084963582
P 4.689118681840073 1.0246301548854997 12.56007142161985 -0.4294863280325765 -0.12684691712393636 0.3948350565072942
P 3.979221493392959 6.271340415490562 8.121318992920978 -0.6175288428292268 -1.5934656096869653 0.01320055785067404
P 4.681222090959179 1.075673067074372 3.910670401010434 0.5952566616945878 0.45638546641626565 -0.031090807867533553
P 0.08775256216713179 5.613942440643344 3.6347483194433567 0.1330810709591063 -0.24367398811802551 -0.18123834739062336
Ni 1.3876291109463945 1.040459518048804 2.616129704419761 -0.05276983550286396 1.1098824998099854 0.04062265861736875
Ni 1.559662629805186 6.7188772161938815 4.96030823608884 0.7224766458872266 -0.45032331938258574 -0.4259016960051117
Ni 5.919494376447013 5.31104983785111 9.114664898985561 -0.3353227600742741 0.5428928033808909 0.32948455612594224
Ni 8.594665796395823 2.0496402144869186 10.175382383743242 0.11795295706841621 1.1629364422121713 0.5534739213308468
Ni 2.1770711106267084 5.210963035907132 7.0220900243895334 0.4469610877785722 0.2301921515815068 -0.8849032598879856
Ni 0.8465362512727576 -0.02746892003104148 9.197751869427188 -0.07016334838896303 0.2724263776603695 0.20791739934370643
Ni 1.6020581870317046 1.1296647634868082 11.329314917761952 -0.25209563652281747 0.908721445353506 0.5543036163209938
Ni 4.062348263376253 6.899169139948729 1.5609850600306006 0.4066706156896415 0.7412174168298395 0.018177699350291274
Ni 5.701429069509333 7.643058755120242 7.994690419359808 -1.0262481135177808 1.3557951474505425 0.416622841806347
Ni 5.415550770780056 3.132359609506556 4.664129996882963 -0.13542283171840547 -0.905110588073796 -0.18729843754177422
Ni 0.792144750373568 7.6075648002329235 7.107453709521563 -0.1305775878109622 -0.08050458241397104 0.16691498878941574
Ni 4.8252421596941115 4.566925043569743 6.733987474002053 0.1903202550872335 0.6305879900060302 0.6708977453686704
Ni 8.472173661562985 7.180108677371054 9.297029112512243 -1.6216970937288329 -0.0026438653807502855 -0.06903514832179078
Ni 4.492545127402971 0.19021557765568176 10.422391907358785 0.5862552295269259 0.3320520597428024 0.37469380567272886
Ni 8.044238135131026 7.419014471582021 4.489881271716346 0.7215081113263703 -0.5650477422113752 -0.14060617569155784
Ni 7.184640397910948 6.138491354473733 7.2236240489744965 1.4856600254651962 -1.3881679073542932 -1.0207192132797518
Ni 2.380347269694673 5.253403819885546 2.6333665241020427 -0.8970542934282228 0.6490536529103854 -0.0576292204776943
Ni 2.3248449997689384 5.036360637540696 11.302122785452509 0.2424599132052663 0.6812371796214656 -0.014928082064742032
Ni 1.083841018466637 3.3651778829124357 3.808494123128899 -0.7613360419565857 0.6534898343048681 -0.2818139895228566
Ni 3.697024652267948 2.661603394380264 2.6895119184397265 -0.30920240883813843 -0.1775660407453587 -0.39202741185517
Ni 1.0691061426991955 3.317952108583515 8.225733090486285 -0.42677587107994885 0.47497788470647223 -0.04552009591898613
Ni 3.6354529522378836 2.511758120001236 6.863925741266909 0.19114197965758048 0.08278026582202519 -0.004473976610953585
Ni 3.8599404579446763 6.886478513366948 5.923813531253001 0.37266006307215177 0.17632034126371568 0.35105482609755023
Ni 0.8340536677496947 7.223652994095709 11.55976240483349 0.18200222213984138 0.30852852269956543 -0.34003173551416926
P 0.23705692459349403 5.624109414469375 7.956099336502711 -0.33392562261643133 -0.40745377371256924 0.5034515666661329
P 8.469731416960647 1.3949015726511356 8.127726719129484 0.738565066808657 1.5887016126394187 -0.7497251971905347
P 2.011722105698021 3.148514605283505 10.196392923603655 -1.4926282292529134 0.38617378128787044 1.3512003289910084
P 4.117705807695923 6.399739164120908 3.8157222626167826 -0.8571088633835368 -1.314217838229388 -0.8401166997009144
P 6.885944837694585 3.825522899752463 10.415481259669205 0.9267639046775136 0.07129900465530302 -0.2811583582167287
P 6.394194364338562 7.577660871879847 10.135639827782892 0.15107365088178498 0.42168740081344797 0.05932640567445912
P 2.381875933908729 8.609192629104548 5.990761787548361 0.6898470327776635 0.3261891732041221 -0.0033550325151619643
P 6.818647430874594 3.9506924582974947 1.5963062487256787 0.6797829636734422 0.11609173548996136 0.5400630472415795
Ni 5.348461407018783 2.882029537766872 0.4796116131473631 -0.7955499688341331 -0.3732892120157184 -0.20035115696067432
Ni 1.4049961836741343 1.2440432190296558 7.171833990844316 0.35589647046056777 -0.929709617569399 -1.2102483399242576
Ni 6.7368684180977745 0.6496822909739048 9.153150151243223 -0.27593387659299573 -0.5645420062195503 0.8245124175047542
Ni 2.9688106293032956 1.6130211516910904 9.109448445421974 -0.5863290201876548 -0.23652683555028295 0.355751203131955
Ni 6.419222848837341 1.8925677051550447 2.5615989051247348 -0.3261341515964706 0.34394701140817535 0.30860179913966207
Ni 4.261454515919485 6.800692410372217 10.306804088470262 -0.368263733776669 -0.3740646567291622 0.6415156926621274
Ni 8.517364232056625 7.017943635775786 0.5297300905274983 -1.2641381479641778 0.17504558831635017 0.03218275538013167
Ni 7.652592554419741 3.6068153729378714 8.303259884049922 0.155194615028694 0.07649880368868761 -0.15120683402553958
Ni 3.1359053868551365 8.340609040299979 12.652769981374236 0.8923962258309212 0.03590751252988655 -0.6662286220277752
Ni 0.09562020792681299 4.904443247612907 10.099947779722275 -0.30345907859645804 -1.0070388875791818 0.3592203926274781
Ni 8.530398581952808 2.386615697507341 5.920701930722614 0.4024390941067972 0.1552090132063972 -0.12062176214983096
Ni 3.631509179472626 2.820647790094767 11.626089245557809 0.03923297735869373 -0.802743658369095 -0.09276694472109186
Ni 1.1839006843594784 3.3993873980459313 12.671926224406947 -1.0310797305784694 -0.42844503125225564 -0.1932662250894349
Ni 3.217973850844085 8.381068892545384 8.195985646694766 0.17793268005615806 0.18249150307143408 -0.4773055043983845
Ni 5.604037781978305 7.97699500041331 3.524773140465022 0.13125070261858685 0.18795715417169567 -0.03942555298547404
Ni 3.056062079059429 8.503922841393385 3.631610487396871 0.8139348990992241 -0.7977495475886133 0.6015021283836672
Ni 3.3456037446922124 4.23117068285049 8.9009648781408 0.7619870452770231 0.7433961696487132 0.11227030486134212
Ni 7.35685482377732 6.200940453490564 11.519529590882597 0.2798506951488987 -0.9871249222640741 -0.22437451645846518
Ni 0.7311827069590503 -0.03514661343276303 0.3341497155620133 -0.789761130066498 0.35179478958736826 -0.7194468579219674
Ni 4.636257654225016 0.42666284563362905 1.5425831992194996 -0.15753123358167062 -0.41446414359213135 -0.057249725651088504
Ni 6.097479735855207 5.751060907039076 0.4552633389970874 -0.935184524641041 0.05460020384338339 -1.2954734677423494
Ni 8.006356207743645 8.738396413918627 11.33592073714376 0.02657775048852842 0.3901592482981797 -0.11815118912215136
Ni -0.009380932878093098 5.003878784329595 5.792854948465389 -0.49109175954919937 -0.9071163056499152 -0.0358306365453641
Ni 8.084688942026053 8.92749850894265 2.3195145747905754 -0.14906330531997555 -0.306160279577705 0.4249200488181327
P 8.551890334453386 1.6257117782728707 3.6567773657564495 -0.27457607701352066 0.7432187635305845 0.07403748663238861
P 1.7639066413637072 3.3388197319079396 1.617475082217725 -0.05138555356082763 -0.9637219699591015 0.30227045760499555
P 4.847746991437141 1.0372755547153851 8.20182442036443 -0.343024499593906 -0.8369791825131974 -0.8199510233863169
P 8.625953663356892 1.5815795137735784 12.359133485624866 0.020769885557499715 0.05028383585621663 0.4984230031032901
P 6.438426127692025 7.905419142864037 1.3221253971065656 -0.4071622106140794 -1.0411972786284456 -0.04881470750985786
P 1.7952487804270498 3.2616990745763212 5.9412620121341515 -0.44778641189334495 0.570489739162553 0.5016145134573942
P 6.9053832956591235 4.067558385194576 6.192626871957196 0.2947620650430923 0.760559054581245 -1.0485521763316201
P 2.4371158886734716 8.37953118298095 10.510205073373456 0.44292059916061133 -0.7084854738144573 -0.9052399145628087
