# total energy = -340875.1533057076 ev
CRYSTAL
PRIMVEC
9.19260411916784 0.00000000000000 0.00000000000000

0.00000000000000 9.19260411916784 0.00000000000000

0.00000000000000 0.00000000000000 13.45430533106665

PRIMCOORD
 96 1
Ni 5.6554830203299105 3.8297307489497983 9.013173554309901 0.16781256090302066 1.1198321548235295 -0.3759898987763331
Ni 3.8087256488289416 0.6520277240841785 10.087015862934859 1.746797203364992 1.8788410913088351 0.9419874064954874
Ni 8.688932026317396 0.26964757214665835 5.505636221183273 0.41473873740975664 -1.3632474899635296 -0.5189684313548094
Ni 8.983325169149103 6.876674497596985 6.110904845803665 0.19520380843177995 0.7276545905437404 0.027968460188467964
Ni 5.675210348495932 6.126024840849085 9.714465362445582 0.9137063001626071 1.0097169486319773 0.915845972213429
Ni 7.8042082403516835 0.11266639304212218 7.939264139675801 0.01173142950431528 -0.2909635172326086 0.06458688274245006
Ni 5.63338400033405 4.634506458000372 3.1169858755009545 -0.19488781985325793 -0.5056125788731938 0.23352918637453976
Ni 5.968831312592342 6.3109800331605275 12.184447271943778 -1.2811855903647678 -0.4694099037003916 -0.5240610153863685
Ni 1.8363237659704776 8.010425925695747 4.790405667615094 -1.3573452655464817 -0.4810608576757587 0.21174242951675146
Ni 1.6918344164301573 3.5400717971737774 12.131558544138379 0.3632477686193163 -0.27834968512333996 -0.6161386473499195
Ni -0.03747181165105029 4.391316119402001 6.76576664969846 3.030497075511181 0.41022208048632575 -0.10710110195557686
Ni 8.838155566913402 4.359417783551072 13.10534119683533 -0.7404730824646474 0.6888119066449299 -0.6024133273440271
Ni 0.11438081368655975 6.549050091335563 3.3769637475088246 1.2747089815014885 0.09276154540445315 -0.3798442395254168
Ni 2.069678018297812 1.1043810583455291 0.8704357215815338 -2.5277065394678147 0.2943164928652415 0.40022203185082045
Ni 3.184299637490008 2.7721492375256194 2.4190842997173823 0.5708656344447329 0.4952967987694825 0.49830756057134823
Ni 7.127522275320376 5.431505224074032 6.953144093161694 -0.11653010857896061 2.004847257699031 -0.3888392439351755
Ni 3.9647884867947147 2.64869256591813 7.401240332514525 -0.6208046853670212 -2.133380304276139 -0.08106688267534426
Ni 3.639232416431408 7.52388897423115 11.14689184831535 0.14168809590182696 -0.6499987904324741 -1.2139651266542124
Ni 4.255817136565487 1.0595854990943534 1.3249759763324915 2.8112236277247065 -0.719902200291831 -0.14607208390213552
Ni 0.3002662975219542 6.600271280776884 0.7167684762159774 -1.55047779327153 1.89784205789137 -0.13540380555501197
Ni 5.354645862100076 4.114756628314042 6.329524273192828 -1.5098883018849418 -0.632733061373491 -0.9377373729698818
Ni 0.889979197667723 2.331915432366823 2.9077714012556206 -0.3886911483930854 -0.3802368469781451 0.3411807615169479
Ni 6.8601461956200485 4.194658742209223 11.18888274408868 0.8497349395169688 0.42938091280296375 -0.5660502153339607
Ni 1.8377210417772043 2.892930861371545 5.7091595542973925 -0.14354623215648826 0.7095221426090876 -0.7948585991940633
P 7.4968994889117475 1.4692263181690297 4.160676443033394 -1.0032753067716915 0.36792023439432114 0.1339138512730468
P 7.476776878774086 5.726394767521286 0.797026343885635 -0.41193700629490343 -0.74002262519079 -0.8487016131564481
P 2.0264268165172283 7.140879128920204 2.3732720384647332 0.2598773373507653 0.3779673342176781 0.8803238680474195
P 9.291424484532318 4.568420827904598 10.907794976274449 -0.9172760197917363 0.7584072983455648 -0.9985840719436091
P 5.0973908393945235 3.20918401649533 1.486781434011831 -0.9354416349571696 -0.8877494710875292 4.205029707201383
P 5.294020638775327 6.093262400222943 5.373891497816937 -0.36085047203173337 0.4990554944809663 -0.830002751195364
P 3.5778993625993034 3.7286764532698937 4.6448030937313876 0.2566097223430871 -0.18185644059059647 -0.09972177877237019
P 3.565857051370278 2.605441364137547 11.51151648564305 0.3585616759975566 0.2290762928095087 -1.6785297864471609
Ni 0.9947041001214826 1.3889656927181748 9.828787343466596 -0.5085351518366275 -0.04480352946793575 -1.1198835768867552
Ni 2.669734436454954 8.56418839015108 8.781826966694336 -1.1042906075445047 -2.060004619597465 -0.7072495445248271
Ni 6.28782386370563 7.871663568442208 6.29113871670501 1.2502081681466468 0.1987341901825416 -0.36105436051242334
Ni 2.360017222769213 7.99383327549087 13.173957550809995 -1.6727823424404222 -0.503649541609552 0.6521495182268897
Ni 4.347016960766373 4.801931354499789 11.142828717351053 -0.39644148176246563 0.004788422527578851 0.675143922239534
Ni 8.056765842417516 6.545759139106563 11.507332931566463 0.8861517875831061 -1.8592089189002046 -0.41901088242254936
Ni 2.0027374760308176 6.889029357361726 7.195927199403236 -0.18512071316416506 0.6786719899974505 -0.01761719886113095
Ni 3.9508892695593816 7.864484144724751 5.61208657540626 0.49099302918780596 0.3674463800816962 0.7101317511686286
Ni 6.355224036172205 3.4794557664530195 13.517943872916106 3.2408379966947147 0.9198108703984481 -2.8240148659521043
Ni 2.6805633239570854 5.850173180268481 5.204179481444403 0.5250712018184377 -1.2566768065901261 -0.21652828094116902
Ni 0.5013995535982526 1.4744752950482463 12.130132771259278 -0.3502883802451709 -0.19976597388116565 0.24034132420036672
Ni 5.468229677020563 9.106616373884743 4.1212962467936824 0.7946768222005605 0.18488751410743642 0.14004696075397816
Ni 7.552827291596778 3.602011562869329 5.354086951777386 -1.0050305988999013 -3.107454306893526 -1.6835038426229847
Ni 0.6245923974711816 8.983270013525152 2.699283142725625 -0.32945241733642616 -0.08104991339447977 -0.07245368708503652
Ni 3.873441580929963 3.7190701820986485 13.341477131130528 -1.4046491928387679 0.2586838312632964 0.021779043548304428
Ni 3.4619714336609535 0.7502727599842435 12.582909884564643 0.25171768435810843 0.7749135235307041 -1.5104827409358308
Ni 7.133138956359258 2.8086990309963094 2.495235831183982 -0.10287215147589379 -0.40307801324237674 -0.05231217914015507
Ni 5.744973020188354 1.6448142470130087 8.54567724349315 -0.31658353179355797 -1.6946842847198362 -0.5452080817776288
Ni 1.5499833442354323 5.959546782560804 11.804161195195551 0.09435357248192137 0.8375620515998607 -0.17891689834629831
Ni 1.2496609718291292 5.339505643325875 8.871728795211604 0.15301971886456228 -1.6480071923782715 0.8082525040024662
Ni 5.5824845520324375 2.022198218681082 10.855565358175248 0.35509068672982075 0.20715660991828191 0.5635924978220874
Ni 6.296464911457756 1.2060144880769061 6.252430499817086 0.25198867863130797 0.38521938779440107 -0.46961507773266215
Ni 3.794182949314195 1.2553879641159098 5.389632912892191 -0.9600686894772306 -0.41219488794198045 -0.3020277454665702
Ni 9.049686577364625 1.9389775747449247 7.016366227114078 -1.792689595021732 1.7936658428920722 0.9189184404911658
P 1.9958522156410925 8.983242435713178 10.864700968022122 -1.0411607689635554 -0.3898563723457802 2.0472174951351256
P 7.345166367426028 7.153822315340408 8.312083064201634 -0.10644624198039732 -0.9359059761880979 0.08209352416764572
P 8.836491705590918 8.949404460420014 0.7303827227275702 0.3280881899990479 0.9456046915331004 -0.850800918887638
P 7.761618906058497 7.803711839736136 4.242452009622068 -0.30541723076409333 0.6662211658286076 0.6047430039184682
P 7.1409158993361705 3.2214561428241457 7.369797030561181 -0.27510983802980365 -1.467488753872808 1.3406534067130975
P 3.2525639147317964 6.179884307636 9.352908297069886 0.7871900269052121 -0.6001733822699147 -1.0833178619475796
P 1.619810364155796 2.7777659185645 8.25762056259287 0.09640299881178237 3.0102959179729574 0.08402236575924239
P 7.533651519670253 2.219471500341298 11.805130095656267 1.194507017929601 -0.6247289601220919 0.49800031374357456
Ni 8.033306317030895 4.523450609177581 8.848600203568683 0.9099041528076975 1.7662308866095713 2.547678868824683
Ni 7.799611938355873 2.3401520055433167 9.4136815213189 0.6810893411896914 -0.7468460758705268 0.8983632420476335
Ni 2.9169970986216125 4.660438793860738 7.241551012274057 -0.5300434582220485 0.23881434603287904 -0.4533122268075806
Ni 2.182186298551278 5.46135360923483 0.9730582755024093 1.5947380486414857 -0.3111932140159221 -1.0753070758279608
Ni 6.486007213161018 0.986513489964947 13.315806784483922 -0.13957567754451447 0.07493094498093546 -0.1659423404635013
Ni 5.5623619418947765 8.42582131486918 8.64914000141886 -0.1196254596748327 0.010819202102691043 1.1559718379688801
Ni 4.269909398484645 6.462520109962422 3.2563053045563866 -1.419103420590885 1.151752400570894 0.3552354398378011
Ni 4.940473089257531 6.158548273771445 7.584783540852855 -2.013134694518804 0.40367039541073707 -0.2617784110282201
Ni 3.3431478344652428 3.691225784608024 9.389921397781753 -1.4031571816742738 -0.48829979862635897 0.9223722033677212
Ni 4.7509215949502765 8.078892440225351 13.332436205104766 -0.11288479851688946 0.6545347306296148 0.7215122250914284
Ni 5.516665507452421 2.57474725940952 4.3285729201175815 -0.8298736818166675 -0.24083163357322393 -0.33484710598943623
Ni 0.09255297550845241 7.174827415461265 9.52832524347962 -0.7129761625959592 1.4474984267938102 -0.35747641335317787
Ni 1.884152884538889 1.0692009628695902 7.212812174415049 2.5033075417981596 -2.6392173404553128 -1.2729765721914141
Ni 6.669703018725607 6.793665283552635 2.487297098376817 0.4652601431980761 0.3558195944760452 0.2279234101519881
Ni 8.948430044396904 4.353672406056308 2.1438356739586286 -0.24346958541670327 0.8953501662529225 -0.11460332386989294
Ni 3.0837785128416177 9.245185686454457 3.112760954706405 0.11501675725822774 -0.45884292681782274 -0.14375551995381697
Ni 7.123992315387594 0.19977183142513916 2.2857658025476817 0.5470618471569159 -0.05712219893428872 -0.2752461064973518
Ni 7.424489347269738 5.650050191370862 4.446365109145432 -1.6996858516994857 0.8563352184423058 0.36668764753880073
Ni 2.043056237138073 4.716164359257953 3.1863027058997826 -0.7022742027974228 0.11619715071957408 1.0066043711449244
Ni 7.596648434824841 0.05699230622726042 10.283812048447912 -0.7299528996596139 0.17320802088697912 0.8564869135288218
Ni 6.985579277085735 7.8561924159243075 13.630018262261167 2.140575279362681 -0.29538607178033643 0.40819656541586474
Ni 0.04024062397332696 8.377137284129548 11.883258956241466 1.3261467284564903 0.2659227722138969 1.0302626339938128
Ni 8.656160393087262 2.241965802308798 0.7074490142892708 -0.0022998517777702327 -1.4213893884115845 0.3649048446067651
Ni 5.111722109017464 5.657321541128235 0.8806680090846087 0.47618707452322506 -0.12783602051008305 1.2508000360943747
P 0.631014350619729 8.613240125050377 7.7596893784806555 -0.23520811673885947 -1.178405484382048 -0.4302129217859558
P 5.1214019210206425 8.275191305862457 2.1567117543696943 -0.90519466314717 0.4346113079639676 -1.2874297715022667
P 1.5027885153424432 0.9168133279796679 4.607453543713425 0.40180428873627577 1.1087902951870712 -0.09118700182848166
P 5.726716508660992 8.324408507633601 11.037885030922292 0.30115228484015233 0.001032040808940158 0.40599133023442985
P 1.4542147958507103 3.411991245758503 0.8784194981482578 -0.14568744686920715 -1.1031145849585322 0.8273987379136136
P 3.649261547386268 6.070850831691368 12.839860632078071 -0.30531567218922256 0.2171882831226711 -0.05446753492026103
P 0.045716658171136404 4.537138396521107 4.450670924855109 2.33540524939481 -0.13335437922515098 -0.306018354683202
P 4.162585746882454 0.2157991364845328 7.327066130166524 0.3017690924885448 0.807252601983042 -0.7055068508021075
