# total energy = -340856.9184443087 ev
CRYSTAL
PRIMVEC
9.27478398207797 0.00000000000000 0.00000000000000

0.00000000000000 9.27478398207797 0.00000000000000

0.00000000000000 0.00000000000000 13.57458386730573

PRIMCOORD
 96 1
Ni 0.8837014341669431 8.337826908947632 13.023618519438063 -0.2843318708487038 2.3454706040506124 -1.832033644036993
Ni 2.419401644772465 6.098346801973282 6.546641639086761 0.21776318178953466 1.0107518176543948 0.44669189327758557
Ni 8.454281098781804 8.78885966234329 3.45862729702115 3.9109893508156643 2.715212979255337 0.9912728829941766
Ni 6.966206904805662 7.83903829194444 6.2751362451626855 -1.3970155875529102 0.8541058148911549 -2.5762368829680344
Ni 7.598329818802808 3.1346915482760647 12.032959346931944 0.13036212936604646 -0.1345309160317554 -0.1479099084418227
Ni 5.531740963238051 0.847625306244198 3.731842961143174 -0.11594723949229707 -1.6772154385111113 -0.8632304029002423
Ni 0.28091466244803076 5.360055433768443 8.003791847737554 0.1287420772641202 -0.4925632018884033 0.06248269191525368
Ni 1.240678601459675 6.315877589514755 4.393278830458168 1.1646565102270716 0.878751638464293 -1.463127648690635
Ni 5.503870236856107 0.05271509069452828 13.192174736734202 -0.29892570950247876 1.7775491398358678 -0.5680615893370345
Ni 8.222457868859442 2.7522829228338184 7.4147503061344615 1.4449530346641375 1.5622465037716837 -1.4436589984430621
Ni 8.67899056925826 0.2182987396694008 6.377176492943556 -0.25331073987684116 1.7727712588312503 -1.3384975367123593
Ni 3.5984678550989426 8.736559154500434 4.39770382997791 0.22614163566121698 -0.07106940514300018 -0.2800216735091242
Ni 0.10868470314859875 6.420293109517393 11.641197101670667 0.09138909053695873 3.0916463933269913 1.2475447623818707
Ni 8.988490116468073 1.7452825081272516 10.933295491223925 -0.5101140662879731 -0.8333516130629389 0.24916432180863538
Ni 4.377725944910786 7.402835918410586 2.492225394990685 -0.08714317077641122 -0.6130240129803378 -0.4271173135797677
Ni 7.199569748897544 6.832956080869092 10.53822122054135 -0.17557343579536214 0.25029869252339476 1.140532106375042
Ni 3.653263279879152 7.117358062158923 10.703613808962656 0.370725050832968 1.468717998294219 -1.7540106903942954
Ni 2.274483142370508 1.4934721183536106 0.17637578781614724 2.5995956122986326 0.2693847626205683 -0.9841884653435696
Ni 9.332937050369122 4.628794351952129 10.627297175032144 -1.1467927425727733 -1.232637249142419 1.2021110555291037
Ni 0.21133152181312237 1.5709536651738316 2.016205445606474 -1.5676010832153775 -0.6051638935059707 -1.7378122262575622
Ni 0.11983299370137653 4.860571207953723 1.681226211369548 -0.27251328094722105 -1.651227499087782 1.9634049313938444
Ni 5.806905259510772 0.6531080406233641 5.994672337224525 -0.41792099179248027 0.4439834932074869 1.8923537810832893
Ni -0.24166470338788085 8.470586169324054 10.163427192889312 1.4810814049555783 0.38620026365043164 1.7282438658428365
Ni 5.297840181665254 6.916392039116005 12.525554263077279 1.3345938307825789 -0.5730757547221743 0.19921241537054077
P 5.711987118481549 2.3757266861925728 1.5065347243557174 -0.5786326799846616 0.6568543799017267 -0.16207180176450153
P 0.3351962641861233 4.391100183660457 13.140468742555601 -0.3309410860668107 -0.612084531885204 -1.0881078271370552
P 0.3814449753686743 7.180203999584565 6.159345202395502 -0.39426170050232745 0.1592361320879193 0.8305560525956728
P 5.295345264727902 6.793844316092832 4.704692693117309 0.4295236090284152 1.722090444646931 -0.43699369215321515
P 9.650691155475748 1.2989242459450696 13.483905652462308 -4.205107868737487 -1.2159302208003833 -1.6654906938750158
P 6.850123706337636 0.7802375070184763 11.509984875291083 0.4168593832971853 1.3506850799174868 -0.424384745139953
P 4.002542376324292 5.582381284717392 0.4941002136134829 -0.3313822873692873 1.723142282950213 0.05959122930007156
P 3.0645370809372867 2.9400231036735254 11.884602682044202 0.44443934979798294 -0.4614870493088891 1.94329350535595
Ni 3.091851320270008 1.7318062467518887 5.33813726385636 0.26853167059165367 -0.26321462925411443 0.2246514242689357
Ni 1.7934650118058542 3.4692608370533966 1.4186394498876937 -1.8333834731966685 -2.525323383947619 -1.5065587232910764
Ni 5.78240127977663 4.7415015289881985 3.63748594455525 0.8000882230241189 0.653983486111835 -0.18444605569464362
Ni 1.6909229982022678 9.184002566428601 6.178200838580025 1.4854394248139577 -0.8383529229322724 -0.3700938450068723
Ni 1.5372305499908865 7.677592124180544 8.124103420301262 0.2778393211458247 -0.4208916443850299 -0.04932841392148279
Ni 4.451330631954749 8.220000051058705 6.613456256651784 -1.477899664793487 -1.074358852982079 0.13371767610184068
Ni 2.529725202281027 2.547551337424487 8.015846284702151 -1.5573871187968533 -2.4150621390965052 -1.0807429021315518
Ni 2.6261829574797697 5.345076657360177 2.240023609325757 0.7822067147580076 2.941647463566624 -0.3385908893025846
Ni 4.090671375352988 0.9058524011612852 1.4925390750677459 0.16130407036054153 -0.7152672726229811 0.934350715885836
Ni 3.764885307169235 0.7485112528638282 9.800876807798607 1.890198939523816 -0.020174932285978157 -0.9309314057916419
Ni 7.654692682104996 3.5246127488828285 0.5702563937781364 0.23278125246492168 -0.389168088029504 2.1461980248660972
Ni 6.327239200103067 4.388874235463564 7.832657240446676 -0.34135173987717343 0.07802912429028497 -0.8280443419174126
Ni 5.680638348041957 2.2244920557819285 8.845375559584015 -2.9747437318999608 -0.8655027438741868 -1.4824433183001113
Ni 8.051356650791517 6.720202529912253 4.370663196777723 0.6828939984985981 -0.8008119885640208 1.6011056427307264
Ni 5.27509841092032 4.31449974133484 12.927008657779199 0.588077113227013 0.26383992154293917 -1.8849520893025797
Ni 7.860379570282162 6.228036108794822 2.2523766943401036 -2.291472552567602 0.7371126506328466 2.5559225968907144
Ni 3.733731307196872 0.38726675738196764 12.06705901835153 -1.3300622614608126 -0.18593086777028622 -0.2492900487532223
Ni 2.735541937436344 5.591646794086963 11.98425374542707 -0.5866840895342283 -2.6426453923002553 0.8187732010281319
Ni 7.793295056498266 5.739616700475496 6.456615019220211 -1.1537306073431872 -0.6451543178559792 1.1517079204862035
Ni 7.323119148609318 1.0639846885470547 1.0177025881415505 0.614174067424381 -0.5468967823339613 -0.5539354343482976
Ni 4.441490085967647 2.658004741911201 3.5233513782379218 -1.485451766109132 2.2229320844940426 -0.8133998525313604
Ni 4.814169462832635 4.8929958533551465 5.711288727234773 0.4681243521197486 0.07124398304765149 1.6134957888649633
Ni 1.0309850065281003 6.268112451123069 0.2904825297810138 3.171839872258447 1.2040162429716168 -0.14895249077372413
Ni 5.390615847554968 2.4777585866677043 11.507718118043913 -0.4952340638523471 -2.1955462362819222 0.08696782154081151
P 6.427258472416841 8.073217317041848 0.8176325092478812 0.780655568220804 -2.095027158419237 2.4102775732236683
P 7.395889105079446 1.1492199549197901 4.790592961513866 1.7687405404053023 -0.8561331297338288 -0.8256208200775845
P 3.2398676005793092 0.43397828029378954 7.836010074918248 -0.5855669452106496 -0.634844451289539 -1.5564877469110354
P 5.040789538844759 2.642682798489247 6.2066122848781315 -0.7479871314535054 1.6483872014255094 0.6088166597672096
P 6.414004805861167 9.12711104042965 8.329460126162555 -1.1823953222677313 0.6360929789846594 -1.035172155480288
P 0.7385992910387422 7.1881061156835395 2.395846475457249 0.32046255513299 -1.3057637939247642 1.1326743008935203
P 0.09902687040932465 3.1959793219638812 9.281173552528767 1.121752254664378 -2.3214392741330214 -2.3208150102854614
P 1.902888915251505 8.42030756442671 10.980386352807633 -0.24898588724924217 -0.31155342556881827 0.4613379253255345
Ni 6.014845920237293 7.0750464968496285 8.222586788359179 -3.135560835321755 -0.8184261021013581 0.5282267167282838
Ni 7.254430097166828 3.3800188639262516 9.75776390113843 0.7397302907613519 1.8154299740420412 1.124887972079882
Ni 5.679061634735824 8.584768037040565 10.377308352866294 -0.30397792721440553 0.9312407095019446 0.3424290321017522
Ni 3.819012947490376 3.380946342341624 0.8812195019274063 2.239046730667718 -0.5652488024785878 -0.17050861967794506
Ni 6.07464045367636 4.991475511499401 1.3699060240303598 -1.1116583607634856 0.4605287991606778 0.15087876126215952
Ni 1.0827290273217336 0.5838949638761893 8.48916448946238 -0.9283443617907561 1.6983609622404747 0.47331592362301717
Ni 8.341954187896038 8.100225488497497 8.071732424098837 0.562554029255244 -1.4169452365973016 0.7387363022791987
Ni 8.067875041369303 6.107296968681626 13.711416107753191 -2.5642108050414354 -0.7703994377104345 -3.6717026931320573
Ni 3.7909010767204343 4.243668214752841 7.9030138980800055 2.0455231381518386 2.4940520846381626 0.5093013405786906
Ni 7.194895257684066 2.515673904288133 3.105796885723549 -0.18894445778562943 0.1803934828918248 -1.468973823058767
Ni 7.60595369137717 8.371243956253503 12.457585862363532 1.057129633587986 -0.839701980760999 0.2560458794198171
Ni 0.10111462432232819 2.1698450275481793 4.184066596824171 -0.7091192507437143 -0.9685772411688739 2.92096885217135
Ni 1.9853510211622762 1.4091365060437868 10.818346598857898 -1.9284924357873756 0.14980069770663235 0.33644170417006575
Ni 2.268194838714282 3.7854846027746594 9.979843970307305 -0.6368977342741418 -0.18135173304003604 0.3439410978709045
Ni 6.549277532743251 8.127558277398524 3.263845700051935 -3.7245360348830046 -1.7026205088477775 -1.0507810656621388
Ni 0.1898297897095411 4.594830092381186 5.484661231395327 -0.8262540827862093 -1.1767707769921023 1.0429710826994167
Ni 1.6537960372349054 6.027107184888519 9.742125687576834 1.2252124174332577 1.31200617529005 0.5265259319870932
Ni 2.452438425928034 4.057152305421426 5.756261228117771 -0.30810017691289515 -2.1835024177435107 0.771574174744826
Ni 3.068386116361083 7.5413640945306275 13.125808091243806 0.5469795718557547 0.6770419105931953 1.0984984263427597
Ni 7.123275374448999 3.3196400190855 5.3270603891415655 -0.481951487810828 0.5559943737598554 0.8989795354753937
Ni 7.78155317975965 1.2748747306344599 8.908388443124425 1.3742916635928333 -2.3796163966943857 1.6088804015801388
Ni 1.8100390510885613 8.828611387226157 1.6548366680169535 0.8013231238724845 0.6164116985056481 0.3552593510972011
Ni 1.2856891289577035 3.9759051962347924 3.5439302693182073 1.441145230882273 0.09787212715814111 0.8734855049693472
Ni 8.572831389834722 8.190255818277707 1.1799519522131585 0.046636726021932584 1.4871759478890902 -0.5108630286388557
P 1.9927244745644879 1.8021091106371263 2.9643768319043766 2.9678426339047537 -0.4112687765832852 0.6059552790590145
P 7.599387144196332 5.941556575854556 8.771448110051502 1.8607526092382403 -2.320110528019269 -1.1994206531811342
P 4.384774780867617 3.6821078585972375 10.190196074913795 0.708150973293174 1.1560852236182928 -2.705144539275741
P 1.0169986320242825 2.023127217020399 6.3076749704092 -0.0358558333563447 0.5786504205964743 0.2776683427855992
P 3.643459833028664 6.790190051136264 8.220917327211508 0.35406584500973215 -1.1236646411957423 0.8551190866470176
P 6.910159384164701 5.113012283049818 11.742232890327687 0.2800990637142789 0.6995038391411372 0.46259673743330004
P 3.4597078093750593 4.69885607144937 4.06606259055791 0.3226827027127604 -0.22601539449599786 -0.8194280610033113
P 8.387484103306676 4.217439125166106 3.592201810924686 -0.8363361496125598 1.5197099159610536 0.010443821041143305
