# total energy = -381167.6973881606 ev
CRYSTAL
PRIMVEC
9.27884477976587 0.00000000000000 0.00000000000000
0.00000000000000 9.27884477976587 0.00000000000000
0.00000000000000 0.00000000000000 13.58052725518856
PRIMCOORD
 96 1
Ni 7.8563605485496275 7.5444614685032505 10.695778835426637 -0.047727645093266186 -0.19723009483318937 0.20191515901368454
Ni 2.778364417751135 3.1698110319570167 10.6817631407634 3.930798672232107 -0.01027489956344682 -1.493038063096822
Ni 5.704596501939441 4.6427255338753195 4.404287065976475 0.05814909753690631 -0.29199478671060036 0.545988411587079
Ni 9.148189120611766 3.968246324957275 8.222846143084158 0.04110036958473567 0.12823222750723723 -0.3149871338407156
Ni 4.741647295414394 1.651652884108264 13.312881574660903 -0.07792010951624645 -0.2492129156583837 0.027251122406469194
Ni 4.312584245482088 3.971020699471878 12.962409410017015 -0.21609222184501495 0.37039852073148466 0.2362123896336577
Ni 2.0992550654123985 0.7666199908742689 6.107895912148512 0.05901633063320804 -0.6770871620088339 -0.20788628899545492
Ni 9.076853363861705 6.465582378414823 8.903461451890186 0.9165095739393571 -0.5771962046484511 0.2047559708965893
Ni 5.019994073638681 5.467828226056077 1.677114033499805 1.669214936804138 -0.2619822995089101 -0.3820548740234904
Ni 4.963875621918549 1.7076043166268473 8.33451889277697 -0.8739773570041012 -0.05481386251608624 1.0214481210259763
Ni 1.280629006713892 9.021003998632958 1.145107770808931 -0.151817471026345 -0.6070112311273546 0.366328207316853
Ni 4.296448334843643 6.175869015640741 8.749634911495564 -1.7701610749019125 -0.29990427136566417 -1.0271873375025986
Ni 9.059687501480383 1.1232783611666062 5.812642151305301 -0.12240482219218274 0.02175667495080124 1.0628315690687695
Ni 8.250498027669337 8.111825696161839 7.399907277447902 2.2157689910867004 1.4956477328055273 -1.7538209429809926
Ni 3.90433364383157 3.843130385308755 8.171389382856123 -0.20790325827631936 -0.21079446378118535 -0.4480273242595574
Ni 2.1378365009699887 5.193322889467393 9.319188018578883 -1.3281699295341063 -0.16193681884853403 0.857667306990168
Ni 0.32065088620749266 7.7747716685934245 3.472350541525534 1.2320430672018459 0.41877202693886584 -0.028368780950680177
Ni 6.5604678425831535 3.226885204663784 0.31331317595281677 -0.6652140647203317 1.410669688001235 0.40289752180045446
Ni 7.0203273775120065 9.177185509769407 9.091239284421707 -0.18311319581583302 -2.146676507164413 1.642097511762056
Ni 1.6802688406401565 5.839316045676971 3.4315004284802497 0.4522459903265953 -0.27007587515032194 -0.8051352985297231
Ni 5.112281461338487 4.422566389701452 10.030577543154585 -1.5055948167159101 0.26844399597385377 -0.8671284524030679
Ni 3.9593850284307 6.443276036163635 13.305833364355578 1.0120692509142377 0.9333770391186571 0.8382058558314467
Ni 0.694908440920725 6.147624212890066 5.882486797739319 -1.5743373734979467 1.3439930126092918 -0.26920247140643316
Ni 1.6173582747237394 7.1709137453965965 13.034820584848154 0.031196737317778528 -2.197837346308944 0.820472957328058
P 1.8789010655033918 2.872748824314821 3.9049172831525354 2.5678203767695646 1.5980123485173834 -0.6176555982150781
Ni 8.486106447986396 0.745041110034266 11.026831306352758 -0.3673751605241286 -0.15940942444099 0.7744903199503566
P 4.434276291498874 3.0236692306025086 1.6011305035244443 0.47316731386029487 -0.2503945946713107 -1.4197294842106583
Ni 3.1901502591677517 5.5689583525933966 11.476197396002132 -0.47762663518322906 -1.4512653500354102 -1.2373763064893013
P 0.5347713583609467 8.267654611206131 5.740013851512149 1.5431478352690198 1.3487025022698191 0.6275672009018353
P 2.873017910806204 6.38188720075021 5.124706762049205 0.8838133692579166 0.15519435791837788 -0.11295010453718611
P 1.207771519460838 6.799862031468634 10.790163241990324 -0.9779188302847739 -0.5989580218055749 -0.6282308026277632
Ni 6.449799063868536 4.10014509995755 8.08041309588847 0.5343425998180347 0.08558765336383324 0.11116010251629888
Ni 3.9229748424932342 7.74297306838759 6.621321288667171 0.1986683699416127 -0.5034309978408427 -0.5602636905591707
Ni 3.6209298953381897 0.7357288616635115 11.345837981309456 -1.3728328196591197 1.6213862473566334 -1.9917423448859572
Ni 8.658488821673002 4.345561258943289 10.516760232131857 -0.11094464407138313 0.7741787022472086 -0.9007980767413711
Ni 5.46165779444333 2.942442225582993 6.225122978177248 -0.06826715980751469 0.547715935801147 0.5371936961135845
Ni 3.0773566250556628 7.827466226681823 11.020991201605296 0.5950741133701365 -0.14908773080000776 -0.901087582957332
Ni 0.1578600541120071 6.71992478583885 1.4662754886567695 -1.2400718510435935 -0.09148087891981665 -0.4490794196731557
Ni 0.6594075817472425 8.926350505577888 9.488469402423416 -0.19218276221726902 -0.20798759046000953 0.3567960994567016
Ni 2.4339429876255485 2.461417646280196 12.826889101996507 0.03073702407254061 -1.9665324212792326 0.8437756366097403
Ni 1.1866157539314235 8.931277572023555 11.860919631576799 -0.05443231080695141 2.668467495569682 -0.5111131969764489
Ni 3.1863830482883913 8.697617709057889 4.130843229202075 -0.5202598964727233 -0.3081695966982499 0.21799380974310198
Ni 7.095495297053141 6.308816300072956 5.864995247914978 -0.40661302297882873 -0.06273851667980163 -0.36182594857112527
Ni 8.58649426696128 5.5394609058311115 4.220528828895543 0.5680538760275508 -1.7533028656939935 -0.8312091127986394
Ni 0.9463400748155512 3.7729173687468784 5.498211802471018 -1.383476415415895 0.3683089851923076 1.3767522093181837
Ni 1.8820837091773341 2.852140510612703 7.581777269666889 0.2546518272857679 -0.5092177797259488 0.3660633836912405
Ni 5.189639188188806 6.7462859831498445 10.673398262419205 1.28738837674137 -1.1215833331866814 1.2220504747655083
Ni 9.195548343095158 1.9309368256301271 1.7483839104536998 -0.6316069181888477 -1.2450471927709978 -2.611553555991457
Ni 6.817250586118687 0.9519816122900617 7.215224867451737 0.8387013074106265 0.6367691791160776 -2.681505559700563
Ni 8.628239788503754 5.905205120687661 12.366713158469166 0.880947103453715 -1.1332720823785194 0.5215603604517018
Ni 5.233184805570184 2.3189409885152137 10.77684067701351 0.582116524768204 -0.5726291541030589 0.6588338722256009
Ni 2.372795402169916 5.673159776670293 7.068433546980098 1.3932255243828586 -1.442415098733632 1.5514111037190763
Ni 8.555558599296777 8.091681324686242 13.091234103824352 -0.0776210902185889 0.854647803437554 0.565441120995052
Ni 6.753003866589887 1.787569398790222 4.71416799733748 -0.6582270918795373 -0.6780883495798387 0.04613510379516571
Ni 8.027879989694902 8.699037372271048 4.689111405567466 -3.5783497940005087 -0.3554534693858782 0.2558283640923723
Ni 8.980965784484088 2.3058578177272864 3.9361257488462336 -0.8910237709634269 3.053664000545947 0.9059670225368204
P -0.03287123463355432 0.8641861132274445 13.40233705901002 0.5219560532282237 0.7007063440896706 -1.311772204902373
Ni 7.5027716200279615 2.8299362356513478 11.701076688388635 -0.551818645115611 -1.722218485584363 -0.6519973089197417
P 7.698397499263332 3.7250106944361905 5.066514488576519 -0.4621120844873977 0.6322553504061239 0.44108123195902743
Ni 4.696431486017535 6.7443652623320425 3.9494074869071127 -1.1053599293492835 -1.074269378592066 0.8611609219657235
P 6.055494565547278 8.303730758740501 6.211339254627272 0.7279474391938109 0.09788369712236691 -0.44342016450484917
P 7.750284797877581 0.8736514625329515 2.992442207219749 0.3471578050359892 -1.5708954376959332 0.5083178936194989
P 7.0258297323185595 5.689870975669625 9.650499369267404 0.45568561213576353 -1.0667028790987179 0.9882873180032916
Ni 8.870538255727261 3.4182613731042113 13.359774999148867 0.8286084419509987 -0.2887271717029221 0.9959666889254202
Ni 1.3594620698445523 1.0226307345448697 3.3272971486344467 2.163159849531416 -3.4404340206569204 -0.2873014949999891
Ni 7.131599281121102 3.835892886575008 2.7023215031707797 -0.488751541451797 0.09030794165763803 -0.2397502275835871
Ni 6.507995976763487 6.94241291998986 12.936470400132155 -0.6407675016421932 -0.42355350748790926 0.4899357915678853
Ni 9.355673363157047 4.1677693188954335 2.1209657058447338 -0.9476608027311807 0.7229916378504322 1.8401503596068567
Ni 0.9426192581588427 2.2874485901788835 9.958301839453592 -1.2744696117971728 -0.5430522117768906 -0.029205932139994863
Ni 4.522230458802961 8.409964249769565 8.980775568171213 -0.3360092446183374 1.5638678414251905 -0.3177284440312786
Ni 4.58830511070426 0.6447071083576585 6.114007887040716 0.3494455726289014 0.46183003447060456 -0.06577858905770607
Ni 5.653516462799342 8.811933073672972 11.122967558763792 0.7841250148266432 1.932714444288523 1.3141687301590077
Ni 9.228905789182107 1.416805329042702 8.049463509957171 -1.11773747707803 -0.08640063618343184 0.21080706218667564
Ni 1.9935968627442218 7.881784582563046 7.961732962806267 -0.23767534733242937 0.009324619835035554 -0.2605869618232803
Ni 4.116104712549916 1.736127484713435 4.109834069416241 -0.5674411821442163 0.758291598703307 -0.5775595015251408
Ni 6.277546594005357 4.694714899779403 11.78106589554779 1.2012368804542668 1.465223097767083 1.8666635754060368
Ni 3.6577947446576475 4.276916367107058 3.0469266544180686 -1.1122545995865876 -0.04107414433249055 1.7950149007207992
Ni 3.3456358569644182 8.920402766233872 13.260691785714963 0.006308972937163328 -0.8573952842757041 0.9021525338867366
Ni 7.251240702496659 8.488769476366635 1.7128440801331895 0.06658617256066597 -0.380376457879803 -0.3393362521090414
Ni 6.527843425214109 6.909751387242693 8.003941498690807 -1.988453646832356 -0.6576059133557707 0.8257054093715908
Ni 4.670784759735385 5.434238808855866 6.605241978980362 2.178892686885641 0.5531928997553183 -1.0006844061160638
Ni 6.009471496676271 1.548694825198447 2.1341388814246063 -1.3963751257554338 0.07287431956222289 -0.9834220194911902
Ni 5.555726720292982 8.872282678498985 3.592103309035456 1.716736379423869 1.8937989981702479 2.61407040887604
Ni 4.686215478189515 7.935870967331011 1.9091779352062335 -1.7251338594589452 -0.702876612268112 -2.6914788688631903
Ni 3.2874296652249373 0.968878388180002 1.6395087323868178 0.9965205045463611 -0.47884173853725276 1.076310834502127
Ni 2.14683698016452 2.960174097480673 1.4810242120379118 -0.2245984595438132 0.31015217434591746 1.1327624897319524
Ni 6.935852776906835 6.634642925759531 3.3363820653142056 -0.36868642313638444 0.7257463177774339 -1.6779080937027617
Ni 1.3601950985624573 4.94031663565575 0.6392066093200107 2.4917995411585605 1.0160004676478436 -2.312565368682159
P 2.7964767222745635 1.2740688636308672 9.153560643710442 0.22890505733896704 -0.0809100453825058 -0.02332067700381145
Ni 1.2715914121412384 4.070768278174162 11.902733816568796 -1.335015748811346 2.2541565897259632 0.1223307744211377
P 7.489261622391633 5.528725282709387 0.9826528328854476 -0.022857107103831605 -0.24804152105810182 0.1357421627310372
Ni 3.4292660827173185 3.881999465046789 5.575050841912087 -1.336099725904144 -0.8089431023115875 -0.9327707729932259
P 2.661952034272172 6.762848720636689 1.4601514512666758 -0.3853014059852461 -0.0013948234649975978 0.3483520824544065
P 7.10446793971408 1.8194422297523005 9.68337709909213 -0.13551899097663758 1.9816103986582776 -0.04155699750618004
P 5.517479323138487 8.796502355218841 13.506010516833133 -0.5114682663230223 -0.6309924245333004 0.3684858770898041
Ni 7.082133760929301 0.9197042237064559 13.384274860247054 0.6897896971771669 0.5323433099998186 -0.4034564796277181
