# total energy = -381171.71773706307 ev
CRYSTAL
PRIMVEC
9.24423137533435 0.00000000000000 0.00000000000000
0.00000000000000 9.24423137533435 0.00000000000000
0.00000000000000 0.00000000000000 13.52986703902761
PRIMCOORD
 96 1
Ni 8.118487545266476 7.867728519470153 12.266380725467323 0.29516187158467233 0.14382931061454585 0.9643603748740487
Ni 4.5025324095133925 6.627060199329899 12.674820458143138 -0.5514851730355922 0.035854290694447934 -0.40475231562100616
Ni 8.788407763523267 2.5216784668887486 10.48671639006918 -0.19000195251586632 1.1520231377337773 0.8306514405229565
Ni 2.5963811022739907 4.450228547242671 8.214375186159991 2.45448100721376 0.39173713430826085 0.348814881023438
Ni 2.636214496145419 4.273312443294797 4.256685768377844 0.7493058502649289 0.5291098906641855 0.7327332906182283
Ni 8.64869044744697 5.729352870749167 4.967639281764943 0.051970479530020174 -0.06355072816845184 -0.13851561171111626
Ni 3.4184336396169024 2.282890720986484 9.838283463693275 2.107539689063951 -1.5633304808644817 -0.15364038316769668
Ni 3.2228904090385044 2.134030859879126 0.4473533255051877 0.30831666379907546 0.2685897775230987 -0.4184606663460342
Ni 0.45124699584601985 4.318119233755417 3.3763243159308667 0.3209248394813892 -0.5795464500481825 0.3597770364618965
Ni 8.51919725149641 3.1943442219243323 12.875996199022268 0.9280779955032469 -0.3260665315833288 -0.6506634205996665
Ni 7.322069262090533 3.7992867364163834 9.063509624335055 -0.3878889642067642 1.1292030545154683 -0.19610138054538487
Ni 9.035404387067173 2.2811343169865834 2.338394011806498 -0.15884249619392646 1.8088386939777685 0.8656377267901545
Ni 0.7379928907539887 2.1597760448250365 5.193886303107918 -2.832144437037774 0.5506572778176582 -2.2446599630894375
Ni 3.2209213877123 6.885344029631059 5.82597450363001 -0.353579649401933 -0.4608414453050902 -0.2800823515437305
Ni 1.6951517214618796 8.943757075198679 12.302193803025295 -1.2109903602966048 0.108581028935213 -0.058214917777835225
Ni 3.6470065096250086 0.08867991353181919 6.11715023431036 -0.5679695438438604 0.02708631469383077 0.9017588979927438
Ni 1.5443505717230526 6.44085364264571 4.084639525625484 -0.1478353464501454 0.2374048672798621 0.4291649401374157
Ni 7.38882185831833 5.725562735802013 2.914712687639118 0.38440409098195727 0.17544230953413656 -0.08192923067563955
Ni 0.19767125268775107 3.3755126723982807 8.372809297913124 1.4019811590883018 0.10379980549648575 -0.44984329442237364
Ni 7.882657953469307 0.8955256899282238 0.9994179109454971 -0.8784767875363516 -1.655910506385748 -0.36019252673276037
Ni 6.933885489649362 8.488959370003386 8.127621770489116 0.433946163576143 0.5582901117725675 0.16531062041677336
Ni 4.80194382610696 8.632050830605808 8.394402898457162 -2.091202642466824 0.45929569808452514 0.76362432377013
Ni 6.937204168786017 2.263967778945451 7.376402233192719 -0.34200171475634644 -0.8525017036288286 -0.19591986066219808
Ni 1.2373126640772856 1.0371842946359897 9.699277953448517 0.19792043603199463 -0.06964167155753813 -0.17641521497036713
P 5.349951118307499 4.9636809018030625 2.712874135355814 -0.7574598468306311 1.2541936351569563 0.15453384151624355
Ni 0.13596878017124595 8.255422347637667 8.604508567041051 -0.18038679802360547 0.8056906568125608 -0.0018252261341968564
P 2.882406871542001 0.5924526332064429 8.348455369819765 0.4259767722174212 -0.5148829484315262 -0.25737899640894385
Ni 6.537816387671796 5.870336646551708 11.85785964355362 -1.3938911829913156 1.7877397072156245 0.4436078550356231
P 8.26737513906857 1.0241129511840983 8.505929930335057 1.0432986412421645 0.6634921969332186 1.508591694560705
P 6.662031127391076 3.850000590855616 11.660283606451129 0.4712983789723561 -2.3286573891480153 -0.5728425556654457
P 2.7147997087935996 6.641536665981711 11.492296505784852 -0.8558698487701131 -0.5647615784295241 0.7308232180797091
Ni 8.244070431259363 5.065090122218371 10.67986813793824 2.0175711330236026 -0.0031030644053559463 0.3672756588317868
Ni 7.221039055169939 7.379346520950447 10.157128103911004 -0.32892945495342063 -0.6210229720254143 -0.7045090056652125
Ni 1.1092615682529596 0.9463966963042898 7.072859569506754 1.6629167625002526 0.2670574000389723 2.12879242779514
Ni 1.3068292855470323 5.013082075358159 12.630861363718259 2.429518166620835 0.8902149019088861 -3.24980600452128
Ni 0.0942477142115038 8.26883572765796 0.7438102856862908 2.8131586399638904 0.5396591269349414 -0.9445366552799024
Ni 1.0387095928464296 5.720996085402272 6.770941117309118 0.4561101012676919 -0.005607833105080665 -0.49268584350919664
Ni 8.88176525823377 6.052706847130852 8.580858124970813 -0.27803318232418567 -0.8512439199623274 0.5008251847868794
Ni 4.4069747876872265 8.134147273560325 3.836434681014279 -1.2276747629308211 -2.1415240164291958 0.651684148554697
Ni 2.284795032691639 6.975077785562819 0.4351601840532468 0.17560043237855563 -0.7363775722390351 -0.49485585457732195
Ni 8.347152857590366 0.2189089503160218 6.539945334204307 -1.0104790236089822 -0.060565677398198924 -2.0011063025993603
Ni 7.910325938583529 7.035516571622554 6.628119588268786 -0.5067919438932756 0.07882179539490941 -0.3832599500751851
Ni 2.8971883978359 8.472781964741145 10.348873804156987 1.0014657643667784 0.7103646931150411 -0.200060622303449
Ni 3.6656613689502677 4.268181894768771 11.337866070728337 -0.3170553292236539 1.13144634202369 -0.06695821118810405
Ni 3.2290655557328916 9.009760888668625 0.4455248164989755 0.8950223505998586 1.215699849957132 -0.8346767596322657
Ni 8.007260950914882 1.1309855124622554 4.0421021940173665 0.2344028472287447 -0.411964002878097 0.40862491120253497
Ni 4.226841691150061 0.7768205122296842 11.986258322485297 0.011123363606671165 -0.004714374756533816 -0.5432293607847032
Ni 4.677155944029818 7.522687575805485 1.39222379917588 1.067255666278394 0.13317234512133194 0.25268210515390677
Ni 5.379181378558475 7.886827101911176 6.014187982989876 1.8038402123219126 -0.4394339261635916 0.7494624304474512
Ni 6.242010221393814 5.448587069249281 0.6521500318935879 -0.19375859134482115 -0.6996534773451241 0.5066919279803016
Ni 6.376449081238831 4.4984187264609945 6.415484697925041 -0.7588004200189254 0.9121381843445387 0.7300344036298266
Ni 4.648036614557783 3.161823015231437 1.971571809696749 -0.0005368463400764947 -1.1953595957378833 0.3863211054990121
Ni 5.345153362118298 0.8804844007269704 0.766887585398668 -0.16255131250408134 0.7152240780898714 1.2729794004048915
Ni 8.565834399809559 5.63643909915443 13.071637418455397 -1.2826529189389138 1.051367534293228 1.120963183104179
Ni 8.322064013086525 0.2855164121080386 10.589935631027542 -0.4824361407567304 -1.300425412430986 -0.7750325656070716
Ni 2.0121733992123443 3.1073467585397863 6.712640522013472 -0.6966967087096453 0.11759017441235878 -0.5815303132474308
P 2.282021763218112 0.10191857757527985 4.403620056047417 0.2088504526809371 0.2402248532271605 0.37003728073732395
Ni 6.098881783865078 1.9333848134694382 9.868144180537898 -0.23248891803548344 -0.48545024499270584 0.11072867140583512
P 8.372140015546846 3.602782105753829 6.479453856024575 1.3769393856283254 0.5802185364145427 -1.3344994712965599
Ni 6.063457888456559 8.39458500981926 12.98679201218231 -1.1686936564109227 -0.3102568182445818 -0.6481547952451999
P 5.458099383543479 8.65955241955162 10.681343517298155 -0.2527342985480809 0.29730591451086863 0.04945542641765031
P 4.040061992108009 3.8621752438444004 6.510491363549133 0.8343350600221309 0.4050423360575992 -0.5187938534501582
P 8.894577763201465 0.7887150650016421 12.584805677571394 0.7873468641980506 0.2913471258242724 0.40408665701254926
Ni 2.3291303673417594 7.526736549236835 8.309165536765148 0.4841389823804501 0.10648660830002951 -1.793519547122195
Ni 1.7963575687824629 2.1971782057913387 11.925752977958195 -0.24041485775077953 0.47372241503281637 -0.06898346914824893
Ni 7.405785023264738 7.399785516970342 1.145620055474058 -1.0611482678290758 0.029693156189058545 0.26055739413692547
Ni 0.5329354970350771 7.0713749459152595 10.925678726570633 -0.2226963574250939 1.0916011850022942 0.360961800798617
Ni 4.213409822666611 0.9902513309123321 3.3108261619282606 0.9392738642190662 1.8275208437683041 -1.0375946488788517
Ni 1.7242618067023359 5.70048313552975 9.692823630960461 0.22292569982708058 -0.25902038866710875 1.427313210095187
Ni 5.5659610776005275 5.981877544776969 4.620341821171983 -0.3151622259659992 -0.4222538148398792 -0.23767688999432615
Ni 2.2805241977024076 2.5328454986354845 2.6129421431467366 -0.2346159916808153 -0.39517752744837753 0.5783251760465716
Ni 7.530739301510293 3.6813673184020095 4.394216823685844 0.6204732701695314 -0.8720174050642531 -0.07777304241542089
Ni 1.1203454019154897 8.278736299678451 5.832523117280166 -0.27791414024781813 -1.6220346795739098 -0.260148588734281
Ni 6.683986177389833 1.4121303274568575 12.202695365277247 1.0508517709990741 -0.05150742385067258 -0.002104447937512505
Ni 6.428244510772739 8.756737026135587 2.903807267646051 0.2937423655293264 0.6607532007355008 -0.4522377627964792
Ni 5.0200614701998685 2.971641438968525 12.769028422158852 -0.07669112220515178 0.7368223730859375 0.016460716659184554
Ni 6.187968443586349 0.8504498923286716 5.569637508499267 -1.2123908401885573 0.09078950927974686 -0.3226513352541927
Ni 4.44131710800107 6.290283598696344 7.8458076731282365 0.9522185973051923 -0.8479297679874299 -1.8092469851597806
Ni 2.961029061116495 2.0754316759034976 5.003602115874485 1.7854912775010798 -0.46940681837659803 -0.590568512190299
Ni 6.814958450392941 2.925087488739583 0.8391682321103633 -0.49859269591193484 0.5876168857611428 1.3500297057216748
Ni 2.270253856418779 8.826170449521129 2.4236461642690377 -0.9019095646379951 -0.8441060233659656 -0.0942692402982312
Ni 9.147333543018727 7.810284864441828 2.979155150395468 -0.9258275089061733 0.5923528577842315 1.5075984774095004
Ni 0.6412298211299957 5.932568813537657 1.7460560070716278 0.349846664722062 1.7273308671102638 -0.21575926398562842
Ni 3.3909320506710916 6.088426557949881 2.660188486320903 -0.07149723670903815 -0.3780632363655941 0.4533279105368644
Ni 5.195100995137323 3.2554208599629777 4.5053916503405995 -0.8332199725810813 0.166983380133506 0.030559875064728015
Ni 1.0953120228011182 1.470757244127221 0.7114730392018067 -0.4843904362696238 -1.9280412071825697 -0.8577817210808454
Ni 5.105653810384494 4.0338221357925725 8.780829342475275 -1.3972768116340968 0.489297386652938 -0.18414343685256027
Ni 1.2961429538423745 3.8529125238028197 0.840466122223974 0.6610578764601132 -1.5760980649427954 1.7308424798079483
P 8.450512610868723 4.402981279645347 1.4521874317324832 -0.7409947592960723 -0.8592799028929266 -0.38365692840328763
Ni 4.524635367217404 1.9900611972767543 7.642954104217622 -0.3046559271180366 -0.5051940032785365 -0.5353885245840456
P 7.637158895441107 8.268197875679048 4.641772723240242 -0.12292392792044635 -0.7708162135328789 0.8862767431967445
Ni 3.868239459759846 4.92305250401589 0.6047123331257485 -1.007039144689498 -0.36259573685761426 -0.2785733710983719
P 6.713623183830259 5.9303224652641 8.37248482538472 -1.0404213196943695 -0.12817592034800507 -0.1724392610417546
P 1.919962189217567 3.566581694892722 10.1422458154929 -2.487156385959594 0.43725157380029217 0.6989916753914092
P 6.396305690669285 2.0343410665374044 2.9364680622357806 -0.48208544228553096 -0.6729805960396281 -0.25171896990968906
Ni 4.5776417910880856 6.476721261169994 10.057535375000857 0.029283836565781825 0.42511699532028724 1.5300892023128487
