# total energy = -340888.702682593 ev
CRYSTAL
PRIMVEC
9.10046386606556 0.00000000000000 0.00000000000000
0.00000000000000 9.10046386606556 0.00000000000000
0.00000000000000 0.00000000000000 13.31944875697332
PRIMCOORD
 96 1
Ni 6.7378285830971425 1.8136678038795622 11.166013183010696 -0.049804582226952936 0.2576371351663369 0.5978699309477187
Ni 4.60184965790935 1.0325932092034802 5.865019494674802 -0.9275041252776478 -1.8182139645450814 -1.3726512997759328
Ni 2.5479842162905824 1.8970189505058173 4.564920886439245 0.7043164300384321 0.11471465263677663 0.025842672094716784
Ni 3.7401449552401878 4.608884316315518 4.7675363394178385 -1.5532568986785638 0.5146240383431847 -0.01635992941526215
Ni 4.053728731902214 2.770708963810068 2.6159792405435276 -1.706269932674907 0.7916915143199914 -0.9360437873175427
Ni 4.957586782226449 4.874435845800629 2.474833779376454 1.164621286113762 -0.35125845746792406 0.061700048112958254
Ni 5.331078911136608 4.338973664739133 11.367856006624887 -0.24857605340533323 0.8466712129899805 0.09108287215044959
Ni 5.805185766228651 7.979523145726921 12.29891261267812 0.3556740700371165 0.7497128558953605 -0.27032964303234086
Ni 1.986904230037155 6.4547677615376875 0.06284689196268763 0.4696284474691009 0.8825046777488221 1.252074017710792
Ni 3.1227330989554773 1.9055278840242744 0.49966004699201666 -0.16812417860616852 -1.1271479717586526 0.4875323243327153
Ni 8.417191744339924 -0.10806982600896453 6.685457234848995 -1.035305852844675 -0.12150802140952623 0.2566125505565645
Ni 8.784750370946302 2.766286138473202 1.4371952731220297 0.20652617542313462 -0.6950103221461579 -0.10508767106997384
Ni 6.875473095895712 0.45397025916018163 4.562044229877552 -0.4883494209173718 0.7574120243118311 0.6975366881124374
Ni 1.0206898027412963 7.73001573366752 2.163531488953012 0.671294723696773 -0.6590313329483876 0.7893705794962985
Ni 7.761530639308608 4.029257585130951 3.7251164495584974 -0.9439707554741034 -0.23582106773251 -0.5028733255651597
Ni 7.912070509107879 3.909750296398995 12.389098207510107 0.037519079991380544 -0.20444229631091243 1.1738965407681008
Ni 8.444174619080272 7.3759439941994875 8.829169734051744 -2.03940442684861 -0.7865259109586519 -0.10631614416043626
Ni 6.962473528448065 0.8429450068884695 0.36109274717871687 -0.08019142204892642 -0.7458202057091735 -0.19523569011097988
Ni 1.5546868091541584 6.831435952263827 9.030998906970451 2.156229183849854 -0.6737138746612268 0.8147532812354613
Ni 0.25989377123011076 5.17626182341897 1.347249020484196 -0.8597362737040549 -0.4058756305921719 -0.06726751489840672
Ni 6.5601329297480575 1.9954495654102364 6.5932467868535225 0.5245302417133031 0.07922905813565709 1.9478998937797098
Ni 3.5201776482085014 4.5620169284865835 0.30840379274897234 0.5339970435531578 -0.8486630466090287 0.002905860792885318
Ni 5.819810211324009 5.951220906518149 4.6508447341410815 0.7576007432838694 -0.8545069069843154 1.5828600662569772
Ni 5.557998972401557 3.389258378051791 8.894754045482188 -0.5150840086987386 -1.1409062018850094 0.47758189798822276
P 0.3120203170059081 5.57586318255849 12.192383495166132 0.18501478371392008 0.9807200471789949 1.0188855025051227
P 4.267234709738067 6.286245375553956 12.54413643649459 -1.1712439336366023 -0.08442654317619654 -1.1555445206234745
P 2.628040995073328 8.743861987739427 1.0709088913347742 1.78738669475158 -0.44563388432671647 1.076886504499939
P 6.457807316398827 7.864174768885804 6.075253855826285 -0.03580235441058995 0.23075290918098323 -0.9429114609716536
P 5.07271674793982 1.2538891839289577 12.414711462470212 -0.5741864712878498 -1.5509668170928064 0.20174443776377515
P 3.9423845590697835 6.431033752322569 8.20315520947292 0.02593446047757469 -0.38899839522085905 -0.10713941139268
P 4.853832396083209 1.1448747297924897 3.518265640794354 1.0245169897592872 -1.547347218062348 1.0908097994492505
P 0.33807039422150537 6.025153073260336 3.561420949497964 0.12502657608574597 -0.44388784816988713 -0.27792905264615364
Ni 0.6201429054279068 -0.34144029591336056 4.63626033108581 1.3111384279731162 1.6554613346634717 -1.0341951362789996
Ni 2.178714702516856 6.669939124222607 4.964984549132496 0.4298167147888017 -0.17948922591000055 -2.7821151403945246
Ni 5.979304937360885 5.928260436713799 9.52182058365966 -0.2895573809137013 -1.3117788897705924 -1.3789247914894704
Ni 8.7965263709173 2.346609156508316 10.230907780676862 1.146396278465303 -0.6402861911304005 -0.7262798216834008
Ni 2.3895906463560945 5.331060710209296 7.035039715595472 -0.11967842439995519 -0.5784002522588813 -0.3219962181686971
Ni 0.6094990031357278 9.151699266487721 9.015641874550775 1.2755792999215838 1.8617072598420261 0.1518552662428159
Ni 1.5148358788040797 1.0828641704397979 11.41588643370907 1.0745714832135171 1.347028714111822 -2.4267375185519047
Ni 4.219311668125024 6.875627803777866 1.4950014182656013 -0.09482922656675927 1.4522192293082472 -1.9117622675168882
Ni 5.664110378631729 7.854910496883891 8.04096401605474 -0.4202761222882181 0.22278660314605506 0.5198660034684143
Ni 5.449020920119714 3.0926469661083984 4.593864001051119 0.10819510635070399 -0.5833226292611632 -0.25383601625269187
Ni 1.0126449928693007 7.2904451381503925 6.710644588109994 -1.3945159610595081 0.8404252320802689 1.0989460554031396
Ni 5.084865866920718 4.832428105564053 6.983506520050053 -0.5450018793040936 0.3938734639249733 -0.12852199083351415
Ni 1.2208271994663324 7.813294076584527 11.606300895063926 0.9536435026771769 -1.8106196971375912 -1.7879577367637012
Ni 5.07745808950465 0.3991599866521993 10.110699756243388 -1.320745869155893 -0.7781050338848083 0.3929902899890716
Ni 8.050370255289689 7.3217871349820145 4.728137702111468 -0.5680088817222282 -1.246613251706537 0.07287817621696481
Ni 7.154939234311007 5.996268201615862 7.135681743168325 0.23388476994174556 0.12936479844978366 -0.6357155410405826
Ni 2.395569650978155 5.471599170450507 2.372273374064895 0.20776698980877123 0.19318189290574472 1.4297537012158796
Ni 2.322866046829541 5.36003658649033 11.325992963760443 0.18972427337444744 -0.6476757987262524 -0.21566798982340277
Ni 1.0063929743375573 3.553958569299959 3.574713086714069 -0.11642829289377367 0.12609306967704734 -0.16406954892082068
Ni 1.5375870379443393 1.1854445967714005 2.3324488350594184 -0.7663509786726737 0.46711545123926 0.5972500379755328
Ni 1.3576435700721978 3.315135101572825 8.20964201996699 -0.6775070231550718 0.34263446324433894 0.19487085057239342
Ni 3.640549480987787 2.9713286851088774 6.919653116807 -0.9869099780397906 0.42755183001402497 -0.290456495689203
Ni 4.247959927714439 7.339624043747977 6.018699024435428 0.3226089120520315 -0.08556014256000748 -0.2824655070639265
Ni 0.9646309466196966 0.23000147825890643 0.018416608300857375 -0.8519504591110488 -0.32688157128545636 2.1488840563386926
P 0.09380484922802172 5.540953803973675 7.872007537954613 0.8649543275698844 -0.14089876723131217 0.3344269877328821
P 8.76137127981377 1.8104553402089574 7.693153395582106 -0.9834641855830354 -0.5122087440334727 1.545137869115855
P 1.944213955026372 3.288416140278504 10.502385532094827 -0.3659029468539763 -0.3539177494676421 -0.7961703760269514
P 4.065923353201393 6.6824158598951255 3.579987715449147 -0.7568929185835676 -1.734509130026258 1.6095496597330214
P 7.200168538681842 3.902733838920139 10.38506781491853 -1.3652809754537905 0.4652444594687923 -1.5112126771233199
P 6.739985392983638 7.8671142186467256 10.14033541613949 -0.6696420185846983 1.0151972550202581 0.06368776796694839
P 2.583630732431541 8.986107229801256 5.5786242632317515 -0.029896273338800128 -1.2230339217247002 0.6253429395570069
P 7.078331531253924 4.164535977378935 1.5024201162380573 -0.40227557194573943 0.49294526781817033 -0.010295725499053237
Ni 5.705453785021408 3.037643763770906 0.11983399537720997 -0.597282690985681 0.5564767127129125 0.6342194161110303
Ni 1.4763318170751043 1.2915560030015716 6.695446813804301 0.513071092033768 0.6704514018598712 0.6181433364847742
Ni 7.104295154064788 0.507432753000695 8.875294524046343 0.9621451123902849 1.3323541428187826 -0.2541592039200655
Ni 3.17588890717078 1.8398316368908605 9.17515571156133 -1.0596570279955297 -0.421913400781325 0.7102600492163768
Ni 6.4756351247011334 2.0725031911864678 2.349564077057453 0.6653194799499444 0.2871166326826926 0.6838648470522997
Ni 3.9773121385819104 6.9640843105151955 10.416381600312818 -0.19897227433527667 0.21135830670445535 -0.3590743539679171
Ni 8.686993190352435 7.357915975696747 0.3321887645605654 -0.930681751674681 -0.586749395554525 -0.8350174308011361
Ni 7.758099764510257 3.76753735084506 8.161705327658463 0.984665147869672 -0.024315693927229088 -0.5398709858354316
Ni 3.5102126405050678 8.600638890719665 12.240147278665193 -0.35315953114537885 0.4641463413086071 0.5998311684391476
Ni 0.11574060682469446 4.7187633144993155 10.099818331849784 0.46704757411580206 1.1029983710956421 -0.15868334490824285
Ni 8.566685060818742 2.195250244979997 5.433109669463382 1.2085033322086929 1.32330694501485 0.3975054042506057
Ni 3.594992559925331 2.7299024847760984 11.804175006477688 0.10288886364644216 0.6223491470360056 -1.5857448440039401
Ni 1.194690667846002 3.2286078931305897 12.659069832192987 0.04431579119823981 0.34368835843015005 0.3785800281010125
Ni 3.1759435099527167 8.688913388183872 7.729249474627677 -0.0823030690752905 0.20048382588379668 0.9027220332369613
Ni 5.924065122968335 7.858459677709771 3.2615870633739443 -2.766257861647294 2.4689388345103027 -0.01741922391771194
Ni 3.201251899380342 8.734752423619668 3.5399629662432366 0.43596602221964914 -0.18331245631083268 -0.8778604941085913
Ni 3.4998836142553897 4.502918517503844 9.370884843691348 -0.10860519730492908 0.24382414054264462 -0.3447070295026515
Ni 7.4179517344360635 6.261164497717734 11.357414134625873 1.5518335359684758 -0.9130095312058986 0.6807160170106729
Ni 8.001682774729533 8.719208831695042 2.4619802845085728 0.6554132765798262 0.930307656164714 0.14069873540536415
Ni 4.847161756223285 0.22341547271098408 1.3494067404170582 -0.5177821243561922 -0.0019409257764547215 -0.11510391765539532
Ni 6.158311057476449 5.776801420085262 0.05010897298323906 0.6676650973639857 -0.7213787848373576 1.2772201779591164
Ni 8.291550743103754 8.722876318548453 11.58237941629749 -1.4788088068713177 0.8784976134719581 -0.826397807452925
Ni -0.19071477665550607 4.964130015595188 5.643091037725226 0.9333834668765604 0.34167389910328255 0.41423557252109305
Ni 7.1424169963202075 6.2228788471165055 2.6631169121430487 2.4388970367325737 -2.382390359895097 -1.9533133514857972
P 8.48615505792588 1.5962304257442725 3.465893382499842 0.6873980570165388 -0.3779567926947168 -2.150418490705348
P 2.04024204752558 3.4358709528983553 1.651358304433853 -0.47530981412459433 -0.39927200923272527 -0.8480866052802684
P 4.850383320357546 1.4344332824024022 7.955160294473165 1.4124519767126384 -0.6006672911871977 1.0364885602988665
P 8.59243027250186 1.5451131213879372 12.59164722710401 0.4326467280384291 2.287707429098215 -1.193491175070577
P 6.637796286589248 7.719177081453101 1.0576922879670145 -0.6057889286844793 0.4977344616766976 0.2560307099111655
P 1.6998756063236395 3.6756317683820674 5.6261887465767435 1.289662003266895 -0.6357042281866729 0.9090045238115635
P 6.876901868689721 3.992173195732328 5.888741673287168 0.4893878894842153 1.3371945016302196 0.029625793286232847
P 2.6170112331221302 8.71204676679769 9.992010599194115 -0.49422362030996175 0.7925091251252803 0.6709882481999476
