# total energy = -340858.1889895365 ev
CRYSTAL
PRIMVEC
9.38507571299332 0.00000000000000 0.00000000000000
0.00000000000000 9.38507571299332 0.00000000000000
0.00000000000000 0.00000000000000 13.73600696395548
PRIMCOORD
 96 1
Ni 7.720069499580735 9.279550004409788 12.277132890282017 1.1690921774009222 -0.3443239351316199 1.321683550478814
Ni 6.531252563341062 9.000240763625166 10.342128286108485 -0.7996596201271325 -0.8691971620066385 -1.8566496428134605
Ni 8.389441260626452 8.768326155613716 6.776713589757423 1.1481813953901838 -2.291964918822988 2.406227828634327
Ni 5.205544911531199 4.317726126242248 11.814545319787015 1.6433840917839633 -0.43046206168228446 -1.3631423318442328
Ni 3.2822707135959215 3.0706278693052718 11.29676693405455 -2.1718414364658147 0.3294318485111359 0.5082513020476215
Ni 2.0569364474314167 6.139172251783684 8.929283959556882 0.5858410248076427 0.8333762956532873 -0.7636194386741236
Ni 5.811464175115647 2.260667672825475 5.978995286146801 -1.2959349807598004 -0.3979615179514179 -1.141867537357014
Ni 6.563180591201325 2.121834246565373 10.222597145239389 -0.2411468508207976 0.5569863053594794 1.752072592831318
Ni 2.4786266731272812 9.21916642673403 6.593228788379516 0.5330004839678433 -1.8858550607328233 0.5149518539962487
Ni 3.670174666423783 8.041902518800057 8.325215432919537 1.7254323645359702 -1.9060500476234596 0.9813841631255551
Ni 1.0040060236516946 7.661581707215902 3.7027746657110874 0.7629530087347183 0.9811998150288908 1.3092934043445774
Ni 6.919710235640928 8.598315507557084 5.060565199131859 -0.6880979112970407 -0.7083646319658767 0.34868838274790276
Ni 7.574647750111371 7.037455396585918 0.5470767153545023 -0.4245099578639076 0.7780929496999504 0.24776641301984428
Ni 6.291867434995464 1.7594576999044462 12.835735417222407 0.9551008039489938 0.6020927107798146 1.3089877001787005
Ni 4.08442252701289 4.96131708407452 13.662285612187972 -2.0834461384498573 -0.015290350500167216 -0.39353099298389005
Ni 3.1275483540120605 4.205799712291192 2.5016839273445344 -0.8455221869872018 1.0915394785264232 -0.043962521623879126
Ni 0.2303914102096519 1.792802874210006 0.16225012888036772 -1.20495443851517 -0.5424240912745885 1.858022354791271
Ni 3.469962844453475 1.9381870833761825 2.7285202708424086 0.6475009637112848 -0.6643319192256947 -0.7750806452361878
Ni 3.465420467767888 3.939441876105971 9.13754911506831 0.19292838213404193 0.6044912929189782 -1.481996974791312
Ni 5.636244809991865 0.30287328909489486 3.563600561199566 0.5804586774498067 2.3729199585108165 -0.1378206425266207
Ni 0.5876258738415839 7.922261572544139 12.596990351046141 0.5910696201964337 2.410734458255429 1.9252194214630585
Ni 0.0033523490745696375 9.01349249065006 0.774331633232908 0.15952178164913816 -1.887566129886659 0.347589236146453
Ni 6.027414769196967 6.891376691810789 11.841838997218884 0.5352409432625879 -0.3024028694178018 1.444103285069332
Ni 0.9256021619387543 4.413453899368257 1.055845428322167 -0.5413449992777967 0.4639838475888138 -0.04383628045865998
P 8.300977536167064 7.50263606352354 11.07310368468353 -1.0342774115801607 0.4907678005508774 0.18945302199093178
P 4.495995640999948 7.553540714644665 10.523662868735844 -0.3252625476247947 0.3342652653440372 -0.633372751840019
P 7.001717027952209 2.1580887943678992 4.094497405880613 -0.8875980331113296 0.29361226770936527 -0.3359621934304859
P 1.9562533542847673 4.432937316722139 4.455054186344565 -0.03388893943796099 -0.888323084202812 0.29566657913523275
P 3.3382057653440596 5.9915543945779 7.232241706238173 1.5660985305279223 -1.5154791657091575 2.905644563109454
P 9.001873766813787 2.6660560218625284 2.1396855992382138 0.9917130558553888 0.7984236908375023 -0.21880267879764254
P 2.6142034780859404 9.302562210263217 13.127844962886105 -0.954391179476479 -1.173613205199727 -0.39777794118570203
P 9.000484775595881 2.8885667839257185 7.6513538516126935 4.924044105571623 -1.8306617033901313 1.9447078692049733
Ni 2.0216861027391335 2.089587126128023 9.263412366577418 -0.864661221809498 -0.6680389357636367 -0.16255645471040392
Ni 4.887156215129253 9.296743463269284 6.768678087860317 0.6488741899097277 1.3233879347644304 -0.6027709677937618
Ni 8.55537878578733 0.6131476489630417 2.723273074964492 -0.7457883240299736 0.8218618672557846 1.5260075760443075
Ni 9.287255151638853 3.5332182553230136 5.486916991975929 -0.2020167175885553 -1.6129445443471833 -0.11225513535269054
Ni 6.664745881472861 2.2195047303812916 1.7246653469110405 0.11856487962080225 0.20511026891221448 0.1523491751600989
Ni 8.050067534743157 7.709501904233686 3.089008540253045 0.1189258625046468 -0.6279538948172927 -0.9023921607013684
Ni 8.381858119382745 3.844164586618202 9.654764396252977 0.6646872456825843 -0.6231420752509462 -0.6793456190257074
Ni 5.997523302784581 6.6753228618957055 8.761457218638135 -0.6080013629547658 0.29574628333323255 -0.17582771789801332
Ni 7.456855663787397 5.999409703019711 6.696468376173177 0.26114154877516965 0.6936795191498764 -0.5421435839196921
Ni 0.6530332825912989 6.929254857726138 6.579917935377102 -0.8870203062309884 1.1523908054858412 0.9828522630306493
Ni 8.9677590162929 0.4359367707552062 10.218146742296609 -0.2626363881531412 1.5316660598816654 0.3376123274393992
Ni 3.4534544961271365 7.01438688027771 12.535164287220434 -0.24208993146035726 1.5136328565290385 1.616036553008946
Ni 7.6240226338776385 3.7699755624455453 12.940856712713302 -0.7836066804293279 0.47811565900450553 0.5035397555045651
Ni 1.3215969886109233 1.186395586684131 11.895025160266178 0.11020365214030053 -0.3649894339007714 -0.57770168352996
Ni 8.03316501323336 1.237403473639019 5.791801502814049 -0.4521691143420729 2.511268191406133 -1.9876710030300608
Ni 2.5673156394057894 0.7996591372853745 4.542676069504993 0.7146705195792465 0.17504301721318888 0.1819230321624738
Ni 8.944784350742658 5.7668475247782895 12.573240478235094 -1.813032420344142 -1.3250157001758407 1.9767576985516666
Ni 7.145693475748885 5.526880521733299 10.570310449475603 0.9280746530691372 -0.6803002696294929 -0.3516945165640782
Ni 5.368901540847994 2.702648432393735 8.238774192294331 -1.171269387557899 -2.014211729633067 -0.6445287684568384
Ni 2.687641696194864 6.617773577110541 5.499059403041657 -3.5740205704975354 0.7186428739634333 0.37004268005396274
Ni 0.10717850410552274 5.5611078931637445 4.702852096634296 -0.26748703137722324 1.5573089572607501 -0.6759764454431584
Ni 3.2188557564378386 5.624241298047927 10.784880498907231 1.67643716558419 -0.25269547489034544 0.89452149970404
Ni 7.402619310758456 3.594362024138303 7.030459761087082 -4.205838319145608 2.525203827650619 -1.47020358170081
Ni 5.194892850501981 4.650943242402929 7.01787718996649 0.4015482068614117 0.8549725337668242 0.3608311887580237
P 6.910231309086293 6.42475072320048 4.432993627176919 2.831247379144801 -2.5643619859073192 3.0048066127236117
P 5.6331383499031675 4.328209255907126 9.413519145884479 0.5726404669569686 1.7442232719902284 1.1749352664452604
P 1.9169205016209339 5.185151141825041 12.759761351633225 0.13679040148989344 0.19889745523328325 -0.41820072781642814
P 5.2348920435473785 7.09394416780606 0.4201182254999231 -0.40236041835006187 -0.5382959280388278 -0.38955889571001945
P 8.433091248156751 2.2900992705238243 11.386367191192914 0.3734905293932471 -0.24668140748578157 0.07029216065734345
P 7.46047830304491 0.54071832650226 0.620882828434655 0.057760860959552136 -0.7104171436195312 0.2604841176968288
P 4.7624848682463226 1.7068731202157184 11.52563608496998 0.40922474957006294 0.07915603880587657 1.3958444500629443
P 6.570256938352013 8.717749982145474 7.92839565808484 0.23472757755801513 -0.7502407033743724 0.590504234611267
Ni 4.052456958849441 0.8636081052562874 0.5493244410078042 1.5820488832095914 0.6189290656108631 0.13981067637345598
Ni 0.7541377656412184 1.231847508767392 6.8285267162156655 0.4336206619159242 2.064917226407734 2.5314971168584983
Ni 4.256291420077263 0.9313617829551691 9.792083071279498 -0.8221940537842227 -1.6463082074092936 -2.2303967683022035
Ni 5.596367622931824 7.312419347276683 3.3334400238545117 -2.1426295907885486 0.3338412904327412 -2.5346832278959632
Ni 1.2307306847475883 2.3984875108995376 3.7138453011208363 -0.976991433374498 1.327563663408675 -0.5834606975009241
Ni 5.193119071176411 8.851994106341007 12.549943904585026 -1.0604083043392576 1.6208563429950924 0.4155782025919166
Ni 3.9684605304692666 8.333675140242653 4.626671559377588 1.1757377077418978 2.6579974492762934 1.8351392795455106
Ni 3.917086625558309 8.876320222805969 2.324503081379248 -0.18160987179742918 -0.48096855507226843 0.19641762623422304
Ni 7.7458033774151955 4.274141834242525 3.4381915473590166 -0.37641001703288723 -0.2925894828718058 -0.4333681795854859
Ni 2.4139071904334624 7.591531501469576 1.201760832778435 0.14478164722548614 -0.0559978555218584 -0.8278682213508645
Ni 2.5886666868432084 2.457022228643353 13.630733925867156 -0.11795578528189363 1.331206659477901 0.28409661490944615
Ni 1.3866449489576258 4.351934727521102 10.367306567455785 -1.1512353517251592 -1.5505299866657039 -0.08456846807069951
Ni 4.194274839212884 5.189205494569201 4.543967455934614 0.7709090303570014 -0.5474346571153024 -0.6376634087955728
Ni 5.483906259660357 5.094932408191676 1.6498315680311528 2.3336689834299937 1.4532715818321615 0.9710568130576178
Ni 0.39855132131918114 8.004258979779623 9.270444603871862 -0.5656869184572708 -0.7319550176913072 -1.7750279160759108
Ni 7.303221972995949 1.4689051383154166 8.199915285958228 0.9273496019776546 -1.6499134082620488 -0.8350030326234328
Ni 3.082640766325006 3.822391210769933 6.431102542499664 0.3442308611971814 -0.05665451526925082 -0.9262951925712112
Ni 1.5938392673206547 0.4014034458537884 2.415806729774708 0.15077514580475967 -0.13138157176949633 -0.6728479271165057
Ni 0.5250311723081303 3.4269041166983647 12.5738448771164 1.329739073793439 1.9095598605489306 -2.0470020366902104
Ni 2.246299121780777 8.406719185168116 10.787146994712128 1.4376940391088786 0.2508792476172131 0.5942703865219184
Ni 1.1268660509058688 4.691458614617143 7.141913167217987 -0.9232137254324101 -0.20819919225018335 1.0172824196840609
Ni 5.232292377551701 3.494683134101897 3.3561594153430843 1.1450487632984732 -1.47620196537609 0.7951162237308241
Ni 0.8180276076346122 6.53323281433416 11.033035980584817 2.312588765720927 -1.9704775219699093 -3.185610443679978
Ni 5.078874543503577 6.876623352658427 6.221683022665245 0.9648100608169576 0.5230863101779248 0.33353584337718045
P 0.5045332282606287 7.005264586603349 1.7525221288907091 -2.1038249592165252 -0.744601245700408 -0.6262399974499796
P 7.886626439744192 5.023896769486699 1.2451658698304426 0.13562749153004383 -0.44171166645417476 -0.7236824932698699
P 4.715052695169965 3.1580873906544165 1.0693824616512804 -0.9314330280184088 -1.0306295304149282 -0.11498744668218906
P 2.1581357197468822 -0.10279942773879766 8.863007492788395 -1.7843548499037913 2.5725522350275956 -0.7101512915526544
P 3.5567747955726494 1.7996445944657766 6.505729849712025 0.641926554947301 -1.1503123256902577 -0.27738423588627714
P 3.1346153160869514 6.884675747691968 3.566279061831935 0.26347122534961076 -0.8962353970713532 -5.166470337325476
P 9.363283650667656 5.9149252506981105 8.714507438457726 -1.7184669889617308 -0.9445592809877217 -0.5774214332853798
P 0.551017508681523 9.49563198955226 5.1390938823528955 -0.19430983586260084 -1.3466636174629194 -1.8724729829989624
