# total energy = -340893.30305425165 ev
CRYSTAL
PRIMVEC
9.08191988546421 0.00000000000000 0.00000000000000
0.00000000000000 9.08191988546421 0.00000000000000
0.00000000000000 0.00000000000000 13.29230776691221
PRIMCOORD
 96 1
Ni 6.3187274668731055 2.1868990178062218 11.337713251643844 0.11839107304709934 -0.7321704761362229 1.5961891792657155
Ni 4.417663707759539 0.12328342714864526 5.8248490408631906 1.4428028210903538 0.4682511075056 0.35601037033061267
Ni 2.758742091665816 1.6472604311999606 4.832671110333795 0.0911252953526108 0.3177919502793624 0.9886537002037749
Ni 3.4410031452281813 4.342483576489631 4.851240003350761 -0.053290998113656604 0.10513677914035441 -0.3054686528273191
Ni 5.012502202297486 4.6758354390484556 2.47629075625308 0.005386461122893949 -0.2835073180648795 0.21670928660372352
Ni 7.104131882459189 6.172989901460179 2.7546443294975407 1.7301367119901752 0.22134421427257367 -0.6234341525700682
Ni 5.291180908267178 4.638318028771096 11.482253820040416 -1.2079844835907454 -0.8871180081511172 0.21286625870854953
Ni 5.846267840281764 7.877893276990908 12.439885036226057 -0.9963780654312259 0.8140266874820818 0.40511355561516676
Ni 1.6173809153896204 6.419282481782554 0.60188515603255 -0.5543547812739034 0.3122625358207009 -1.0473093050634543
Ni 2.7806749277393634 1.25769148570314 0.41239544246876847 -0.8777391380393786 1.8237919728534915 -0.8351362157671874
Ni 0.5831509720770578 0.3404511991876829 4.800051579350208 -0.1508867316819595 -0.90207128702684 0.20570959305911024
Ni 8.68105284558891 2.266483880130237 1.4488213939645955 -0.008355056832914643 0.33916810196229324 0.03709047709439419
Ni 6.933718741223559 0.6489549294495198 4.800197798257366 -1.23532225217375 0.19083601838138747 -0.5857446084390945
Ni 0.880159716575628 7.632436233280859 2.884816392738023 -0.7639523965335101 -0.7444780898589823 -0.22447736058491666
Ni 7.82923235124264 3.9317900857724912 3.8173915006655648 -0.252364573913488 -0.05495527318995697 -0.3338207216074509
Ni 7.645096429341532 3.8236516679142176 12.818689182303428 0.044858551075587255 -0.17486483976411174 -0.5641077468956092
Ni 8.15915124815517 8.735798657535637 6.755842078379134 -0.25753557659146614 0.9932927416376828 0.8409458804704292
Ni 6.866648764245029 0.7303044087710882 0.47598795239447744 -0.7698407369934871 -0.08081645722743501 -0.45150705527804175
Ni 1.7119418632976025 6.451641361670773 9.235282444383893 1.3014610527843522 -0.8893893206837974 -0.9314366275628346
Ni 9.090002607723806 4.750852095763777 1.4754459497547456 0.41284049194577926 0.2026947174921864 0.5154994989696026
Ni 6.125854738221374 2.14479523808077 6.8799655830999535 0.6316107748435896 -1.1398325092048562 1.1205361228690895
Ni 3.4364712672982844 4.494723796407178 0.48894785180522377 -0.023123216281024695 -0.6848135841188142 -0.3337495020498833
Ni 6.086448288646583 5.591456419281547 4.675755518155103 -0.958144475871324 0.7701549257997962 1.1428792664509801
Ni 5.435583431484323 3.0215637658407197 9.292226989089793 -1.2650112945977505 -0.920176738378299 -1.344177617816272
P -0.0025892553062395037 5.529572218451256 12.492323132377221 1.124795926586708 1.3898239549004774 0.8913868107298004
P 4.210259907589101 6.182026411560874 12.65262809698765 0.22345508996798938 0.46997991727124866 -0.31583996875931414
P 2.2529972293769376 8.479833832733624 1.5233785055431386 0.430065340464498 0.1256133018271514 -0.7896868251851368
P 6.423214953012304 7.784749108555999 5.5942936109955745 0.09066532499705675 -0.816512172908097 0.5920109010637804
P 4.717203583278273 0.9806111976005057 12.666824953861425 0.6547838705259432 0.6239602002768673 0.30042646241772136
P 3.9344964978428503 6.236399864799934 8.143385943749344 0.05857615777199589 -1.6776286147891302 0.5597183595786619
P 4.5686233769995 1.0294446798230585 3.680374394547802 1.2751784649387394 1.087845317504288 0.9963528686202454
P 0.22256334053232735 5.57468211359714 3.6518353700850628 0.6171017825941372 -0.13396938710133055 -0.5453255811920995
Ni 1.5032393486101812 1.1610144505052462 2.665506195841946 -0.20661462137188286 -0.01361424834932494 -0.8211283315238698
Ni 1.9747817013119044 6.437173863589962 4.666317587203704 -0.12164326143580986 -0.20251602582247705 1.300593048357102
Ni 5.840773278863753 5.607113648842953 9.10106983506924 0.6933247069136188 0.42975937918830504 1.028479831061777
Ni 8.582504934932983 2.4601376538760977 10.326833832069873 0.1298823615161505 -0.2691862734565171 -0.5250948559675216
Ni 2.518071219637241 5.06907348010375 6.854350936780354 -0.8534491551437623 -0.13125584482490943 0.9589782846265292
Ni 0.7976395778048339 9.047898827998354 9.088867367761406 -0.5073984671290229 0.18761185501713495 -0.06772774236427691
Ni 1.1873156899541049 1.1453390571044417 11.38506093180361 1.152232682641422 -0.16154806805054758 0.11484500756705383
Ni 3.7501153641098637 6.912548786404742 1.4152854972833608 1.6337787074837151 0.05369954640598494 0.6028226469673037
Ni 5.860626355326185 7.977794393682015 7.912538076067413 -0.48313085283090984 -0.41319864661614647 0.016855895215074197
Ni 5.331332075257303 2.972884676253053 4.909061861499604 -0.7923882832766999 -0.6798492981350034 -1.745000516475885
Ni 0.9658803238484172 7.250750394082936 7.1127669717091795 0.08562570569062028 0.11357025461968827 -0.8704963404340362
Ni 5.143127453330957 4.655201317491893 7.086554735073373 -0.11508180616820826 -0.4719187861651744 -1.1878324341229025
Ni 8.18308210656254 7.372947623635558 8.946560043418865 0.354279503682435 0.25493079197876745 0.8567936461359631
Ni 4.581674095607238 0.3530977723688072 10.5763704741088 0.4666804205843705 0.13026674143876274 -0.26980025289143217
Ni 8.551553752598139 7.151303373376789 4.926979580874139 -0.8584602352051087 0.1647218377928389 0.07095884770706488
Ni 7.17421705677785 6.1834250271945495 7.15208532666289 -0.5097793086563736 -0.6558526781100898 -2.1727256388429805
Ni 2.396409823346871 5.0368326651716195 2.5875333742645372 -1.0842995091345584 0.41662978378488247 0.007524847622135428
Ni 2.4682296443280776 5.422278419125008 11.611056329790262 -0.3367849464420974 -0.2841716911217558 -0.7230456310168193
Ni 1.214634104409273 3.2675657247327203 3.827307140593142 -1.1234358130143878 0.836438736628695 0.44061714783841543
Ni 3.4700289605867973 2.8178653889075527 2.883899118848405 0.871099521235674 -0.39580333395783446 -1.335583191279042
Ni 1.0755899138146507 3.292541003905497 8.212599253776883 0.12643039841180806 0.8180388939652686 0.515336491029177
Ni 3.786524780183923 2.733567010259657 7.249491640012629 -1.0137096147311382 -0.8017136744426837 -0.41631919452299915
Ni 4.204066038354253 6.747176110602165 5.9060377702060824 0.21077723739000476 0.28234517943597826 0.006463239126840482
Ni 0.777530391206884 7.343712924123861 11.069820233508912 -0.4887919077714291 0.18971681717527974 1.8150044564688486
P 8.941059124657064 5.521807177108447 8.093233766786469 2.0305608604150516 0.40415196303284584 1.3773037109462796
P 8.59679987653951 1.670192278440419 8.131874610530618 -0.13679322970337085 -2.036814554634247 0.4604519231761554
P 1.8855609221870469 3.162124637025107 10.356860474979339 -0.7771568110389262 0.5592509330239401 1.0879252788126037
P 3.923452883488633 6.2130048396548165 3.6568731109422044 0.24140447535755846 -0.5016224838771942 0.32816635153515095
P 6.999390102568412 4.008214440041188 10.213609539180052 0.6364189948655103 0.9011855419877769 1.106080609565392
P 6.529709543405024 7.72734229413741 10.217611032999516 -0.9272516429472096 0.42745412809389605 0.30805441127662425
P 2.3592011983392838 8.49053233413927 5.842634164210117 -0.6959174073414597 -0.711872130898503 0.567774654224235
P 7.020587303146325 4.12961246066028 1.6432616619564064 -0.9897980982208631 -0.9298469144782116 0.362943092894704
Ni 5.42978008479654 2.994545054735625 0.41122932397939227 -0.5889839413119986 -0.14008758418392647 -0.6329456916049293
Ni 1.6760319528069991 1.0963965918454985 7.068716028400221 -0.5381614593434926 0.1041106518686852 0.05961488344915539
Ni 6.741536238468967 0.8248862450943785 9.351537373877333 0.5170858696201159 -0.39978417298245345 -0.9558582509403084
Ni 2.8347668414677485 1.5177159286106927 9.297251107067387 0.3883239948616538 -0.46379332884456254 -0.42497584175673264
Ni 6.245245654586946 2.162922749800356 2.5022368926417 0.4326534129066484 -0.2081865938446931 1.2631143346853535
Ni 4.377385393893624 6.972780077849782 10.474670229125284 -0.691405378403719 -0.21932564118064807 -0.16157660729563786
Ni 8.302409449490218 7.167078667894286 0.6857339796553358 0.09774357200007681 -0.11542324866802703 -0.6295317808273738
Ni 7.693384996382133 3.690565216642265 8.014410877525215 -0.48276884150580085 0.418046461626751 0.42980874436900174
Ni 3.0852098590926538 8.24710055852214 12.411705655783406 0.11503398364940833 -0.44871123770045945 0.2130773462780911
Ni 0.07583221310430939 4.838301900547293 10.417434154797037 0.43823630631106464 0.023111903427115037 -0.7620868040796811
Ni 8.503247021718138 2.197288733942097 5.9833330805739315 0.1698676436598365 0.9713056958436302 0.11756600604264268
Ni 3.7417145883881116 2.7858425400482036 11.514886973903552 -0.38757914627582923 -0.44583160215981926 0.28778923326968503
Ni 1.1340865585971434 3.535918288004432 12.65407757137164 -0.1676248703722468 -0.3701185275972206 -0.7658928080893326
Ni 3.2480214335400603 8.189466696111072 8.072497927729273 -0.4372155783560341 1.4266786618349816 -0.12445322008077923
Ni 5.386332180955607 7.852436656074074 3.5244151285134357 0.5749223210126099 0.40735581468212423 0.1410633178336345
Ni 3.007804657496444 8.51793248587173 3.796908138976008 0.2872467305026537 -0.5278227964216458 -0.9831353414887068
Ni 3.408126595917108 4.273751608206149 9.24946567837812 -0.21392401054910257 0.8000542844623899 -0.016427806538720092
Ni 7.105076402107905 6.036079961994867 11.616067733080275 1.778147949762131 0.32491082071233074 -1.345711023741663
Ni 0.647449147163394 8.993752422751774 0.17484148528095558 -0.5153179790864157 0.21180182199977715 -0.020941378138357482
Ni 4.4288163051501455 0.3124525489470454 1.6859966351009523 1.3263297910015739 -0.8659681135463795 -0.4403212138645513
Ni 6.209835249679799 5.770361155435921 0.5094838886290356 -1.2646477406107446 0.1968691119493448 -0.5367105858295789
Ni 8.041921828678007 8.869057665281874 11.408122650495764 -0.1264957044321047 0.4921942485847588 0.10673446264477747
Ni 9.05670829010657 4.873358110586172 6.0637643778139125 0.5377868496128931 -0.828716942504405 -1.1922606450975852
Ni 8.164754792609571 9.066571254899891 2.5349490592062183 -0.7372823434414915 -0.06671627038062704 -0.14598080973990987
P 8.430936777073175 1.8389797560498935 3.735962100450644 0.3655910720405123 -0.8490823935346344 -1.1451827177731762
P 1.7953320499755792 3.106652271502445 1.3830782854541182 0.363968963056057 -0.10119553510441928 0.8483863959088744
P 4.820682976330862 0.7534623958120567 8.037419921083117 -0.47997790902422505 2.3009308697670243 0.6517155160132647
P 8.432253655429559 1.7379888089948838 12.565923009619468 0.2931708092965725 -0.7480575796801245 -0.700738997099819
P 6.365953449308901 7.829949822898876 1.4233802123112502 -0.12061430595066323 0.4971515925900341 0.6225427511040504
P 1.5440444138186487 3.0720138297697286 6.05165545427898 1.7640050826028457 0.7771516688326034 -0.2818996072581274
P 6.922484406555658 4.012927956365068 5.854915644219334 0.40067763133100026 0.16255799737230067 1.1877457879463673
P 2.5609832902159204 8.488352673411464 10.256397187458852 -0.5883553065890641 0.04193263567804391 0.3913766656450486
