# total energy = -381176.545942836 ev
CRYSTAL
PRIMVEC
9.19348654038867 0.00000000000000 0.00000000000000
0.00000000000000 9.19348654038867 0.00000000000000
0.00000000000000 0.00000000000000 13.45559684372983
PRIMCOORD
 96 1
Ni 2.9027055103443775 4.812183495974786 4.977036502004338 -0.15291790317937534 -0.6597365865455282 1.2236134483772538
Ni 1.8055180384881078 1.6388401253567046 1.481070700798072 1.1221952557390675 -0.35317187244055304 -1.400992312812471
Ni 2.904783238329358 2.011534881034253 8.49271497730527 -1.4298665726446602 0.7281289590769977 -0.7657562825114683
Ni 0.5764509198541948 0.7374279519082244 7.813638085223026 1.7512197579127196 -1.7448660477805498 -0.610439025861981
Ni 0.32501733386290654 4.322189044012429 1.86168932262719 0.6325021763096075 -0.47093276810282114 1.7695941466548493
Ni 8.451894057841065 7.122938787306214 12.681887140240313 -0.37990337489812637 -0.5180703450205724 0.8693131187592125
Ni 4.21173849528873 2.2546198617903164 4.275448438488361 0.4286782303089843 -0.9360705267904201 -1.2022141567658713
Ni 3.5556912872877957 6.278461876738196 7.814835996534721 0.6655917597747246 0.05711320007322422 0.48680264525554223
Ni 5.539360710257996 6.66753023215579 3.1662368054305152 0.10280093191832618 0.3009067444882495 0.24098024333594625
Ni 3.3337329388745878 5.818088838791801 2.9999790346394377 -0.3607838804598561 0.623773538187358 -1.0304256419342381
Ni 7.281287401524376 7.089354980540135 1.4733205915443615 -0.4860950776655564 0.40571622219617226 -0.6176915936593362
Ni 1.9929456510093386 5.195423180850443 9.354277063480756 -1.0075945029723357 -0.9989142015895184 -0.013579538456647581
Ni 8.509178673214576 0.5031006865437205 2.027623482687863 -0.8732957575560443 -1.4062494474463523 -0.6683063304924103
Ni 4.370491622919897 1.781017396541324 1.2324953698091308 -0.7393034876365784 0.8425458779676973 -0.5626666435737084
Ni 7.674446858505317 1.5511986170344947 7.886015647644957 -0.6155020422071851 0.6195744125043459 0.4905924513152776
Ni 8.277447648482633 7.517578395639286 4.010333105650842 -1.5409222883726108 -0.6972294412846637 -0.7534280999634185
Ni 6.191886812868454 2.1106314737338336 5.81416321998832 1.6004667235951469 0.13781010100365942 -0.6090889395919897
Ni 0.37126149110737816 5.024093363469482 6.7837064843708434 1.0461880469748177 1.2566428680283972 -0.6583049963053244
Ni 7.747369594686138 1.326859155576552 11.390243635311851 -0.2756070893811963 -0.13651580767226812 1.0213391062519377
Ni 7.243456203921744 6.588852373326305 7.662114715500658 0.4157216701483163 -0.05133901659360836 0.004296570492824858
Ni 1.3944956369283301 8.825177196664802 5.441295626761578 -0.18901053513687446 0.6822908176969604 0.8286518935944246
Ni 3.4913368806733547 7.624287195292689 4.554087390201571 0.03573422017681588 0.23842688078647326 0.13694903855494478
Ni 6.7283911138397325 8.204230720728717 11.393297711580038 0.3505177226471576 0.4044363270424841 0.5767706870752584
Ni 2.9682826506844933 4.480381368957386 11.87078350559388 -0.5572750402444919 0.34068222461397457 -0.8623868239530244
P 8.049550307687577 0.6521730727227444 13.417531555736653 0.11333654134232739 -0.3021084781058345 -1.3209631273730218
Ni 8.912414191574008 2.5359313600753577 0.5345883783515007 -0.4557406337434151 0.18239662936478265 -0.08056526044857738
P 0.2134038090768172 4.279614007293647 11.041878522729224 1.0313252709303722 -0.7643987400423093 -0.8069438124933717
Ni 4.869210693721841 5.854439885042301 10.926442346190237 0.8087458986991167 -0.48226593372745324 0.2697861118240451
P 1.7059341909955894 -0.26932870777343265 9.504818568827922 -0.5745561959224428 0.21326555102949724 -0.5839831456632975
P 8.543212960826956 2.005770564898931 5.880203712056059 0.40752113661539496 1.6874905951848744 1.2113765399914298
P 6.727719989313611 3.795953867639483 1.816142031671486 0.5543995184689097 0.7920530114244682 -0.6520587582852964
Ni 2.54887578929152 -0.19571002465250947 11.525055084985112 -1.6972749282651476 2.0695508685250035 -1.7908700253144898
Ni 0.7493500654078827 4.8963038989065195 13.128343078082004 -1.1747745724976801 0.09594431400780896 -2.140138448935579
Ni 5.727082514352321 7.6108371243102715 9.347051902315288 -1.1430957533371604 -1.8054489515699295 0.5834403857859499
Ni 4.605835687908909 4.114241569267851 2.019927615005442 0.3569616785002884 -0.2563986347735455 0.6769388093564277
Ni 2.0674772473555207 6.707264481496877 6.207403579651862 -0.07248171210949451 -0.4010206164927158 -0.9823290435373276
Ni 0.5630606065350614 3.0675079521973028 7.867971591378933 0.04043702496912391 -0.5836455598182206 -0.2802600147721754
Ni 7.606056511247485 5.129561042423893 0.20763857359282914 -0.013283861593099702 -1.8425846800799621 0.8046748139535367
Ni 1.0210010479114306 8.420599429253128 3.2425969862732136 1.3279632128399388 1.546245500357737 -1.3993347226043902
Ni 7.789126411092251 4.976452715601477 5.360763441672932 0.3688373468919519 -0.5813441653785536 0.745311384393555
Ni 8.000475475900737 8.575730323140569 9.03054865644747 0.8888630158666821 -0.3586606634692662 0.003327264601020076
Ni 0.4168133788064116 2.102899751453441 3.139822998909951 0.41649454375859885 0.28208344113415934 0.3759994118580299
Ni 5.489164273098732 4.333947513449553 4.359545857703447 0.05590375314615534 0.30805749660041787 0.43687567851811215
Ni 2.8691125100916395 8.739457127054367 7.505410816045828 -0.8119430654801758 -0.5101333495616828 0.6460259218276551
Ni 6.431340366394131 2.591165827923867 13.375361032430874 0.29815437855409294 -0.14576920794973605 0.40758901373885287
Ni 7.172693937105836 3.793030338881856 7.389880865942916 0.6525912337499987 -0.00261198370155034 0.30357709223156104
Ni 0.9271815165542343 8.829093621981624 -0.06371453994296063 -0.7392368960647011 -0.08998989619658695 1.3468883318792157
Ni 0.011769501621115406 8.666846969419957 11.154515282580482 1.006261900203841 1.125288035731778 -0.6529023372325142
Ni 5.257598731126653 2.177789893779333 8.13871241870322 0.9535658553617062 -0.28092001695367746 1.3081073544562762
Ni 6.295092894104699 1.9096526618769332 2.5365280173595406 -0.29847011002229884 -2.021678727434073 0.6664147698966523
Ni 5.404547421887401 3.3825687400082893 11.286622008478608 -0.18923036445716443 0.1310020769428905 -0.22015430772953054
Ni 2.4909016624185676 3.3791855369177015 3.08173579215109 -0.25266307899051327 0.5120290239224988 -0.5073573294784424
Ni 1.3476915963463127 1.8372355674623682 12.346560230437774 -0.09532184993246164 0.21642749369724662 0.14666189496733453
Ni 0.9087844304004975 7.043865608550384 8.280937496018467 -0.47681005281920463 1.165497518071128 0.5981805202096021
Ni 7.335133652887345 4.757077736939506 11.227726694242403 -0.16710653597493155 1.8915228005415616 1.2192119768754486
Ni 4.408377981442485 7.993589554392991 12.04851842513031 2.7027374724961457 -1.1273163790157166 -0.09945155583011905
P 4.815759762285217 7.847872790844577 6.223657664065337 -0.18384338911363823 -1.3410712109768064 0.31858127894987714
Ni 7.670668335488383 3.1404490753514427 3.9355063983828993 -0.4613027012122249 -0.732410617171487 0.6067124689400132
P 9.151702262339818 7.130339544066874 5.9138426797420935 -0.3069814899274197 -0.8524058014809126 0.7897976397313882
Ni 4.355717689858554 0.7881842724050343 6.309275685973856 -0.2139882881281347 -0.04505112670236757 -0.6858679935252575
P 6.549173284905173 8.664079729935537 2.6154724873021418 -0.32206023863741307 0.5226073136589774 -0.4154043960182136
P 6.427313619237398 0.6605446616746172 9.70495709600417 -1.180141236126232 1.0270716378603408 0.7372535470860851
P 6.1754672456951125 6.4475117094276735 12.73110722911637 -0.019479963101482582 1.4373471972924214 -0.1985362152391226
Ni 7.468540337799082 2.9649729954871797 9.903871050757413 -0.41581320142085804 0.003946129131941591 -1.9409725705322571
Ni 2.4045012747953503 6.970363682710032 12.59683359841267 -0.5456310282476604 -1.2851777422432964 1.1998906508390172
Ni 5.2234633151610215 1.1273788820451023 11.800127883223217 -0.06590431600229295 -0.8912510564828844 -0.5290780089849856
Ni 4.981784937863816 4.750954874824474 13.25757132330713 0.1869456821880458 -0.30448751986097233 -0.17654222746653467
Ni 6.497625405207005 6.677128232228 5.318324468556706 -1.9513423438023556 1.4695764896397723 0.4619771015714302
Ni 5.791887401813064 0.02000962371376166 4.424953837889033 -0.38539910790537496 0.07489314976446457 1.1682043754793299
Ni 8.639680216342004 4.976084976135109 8.85873434231957 -0.1455509212913429 0.5621832761793867 2.2774793236123037
Ni 1.0229684540565007 6.137470565332614 3.728250273835093 0.31850054631061275 -1.2271798255722737 1.1738124656947269
Ni 8.440347038597102 0.5671415952630829 4.442002239549865 -0.5552346127756954 0.677883175547568 -1.6450789629878828
Ni 3.9359338955125525 4.040335130014494 9.477436688162143 1.4430779291286113 0.3763719647061002 -1.1309650315118973
Ni 2.6516313896814645 4.928407554320467 0.7777533424414993 0.8045765978127757 -0.22677258437699652 1.14429851539601
Ni 6.003650173521212 9.140771206702023 0.41199415309965587 0.06632494847947931 -0.25369743379229853 0.33697160853160674
Ni 4.05173505347191 0.3441066895620817 9.540677763542154 1.2214406090956513 -0.5616400020814069 0.688542197923311
Ni 2.3257406745859335 1.7819827126405408 6.043218020753769 -1.6025608871200143 0.4791415291658586 -0.40650375109447406
Ni 5.366633482904835 5.068746128173245 6.91968918424449 0.16842474056572282 0.7218130441612989 -0.001724696000590578
Ni 4.476943004946842 6.852558344658968 0.9935474580497099 -0.022969978532612054 0.22920330530567623 -0.5707355366247718
Ni 7.65484634494789 5.290759637506408 3.1067494306534575 0.22776271620440774 0.6184372135761091 -1.125110115393017
Ni 0.6809964920966867 6.4744486253391464 10.942481303015889 0.552692563080132 -0.9001589004954755 -0.6648821353022097
Ni 5.937098523595221 9.036517067986628 7.655171794375626 -0.09033159580672184 0.36497117906832627 -0.5578584235517877
Ni 3.3107768026865507 9.204243038597179 0.18515314392174334 -0.24563316872692534 -0.1706855115754415 1.086831788638109
Ni 3.192254372676068 7.209192079142884 10.050860192859462 -0.9424193518265834 0.15640637594860807 -0.4638689192775043
Ni 4.179800322634648 3.183612495216414 6.346493678016319 -0.15293178713644628 1.2022151852071359 0.460359106352033
Ni 0.500258060468694 1.8586196174316811 9.959455790447638 0.7009269447409089 0.034251207873386175 0.6238586417019966
Ni 0.3848136097917136 6.611321254721404 1.5372750814891272 0.41326909484276564 0.6859232722432251 -0.9834405314339514
Ni 7.836785445933574 8.847020920967076 6.386012799769582 0.38700861848433993 -1.2337484799287268 0.6009645107126425
P 2.5416221283174067 4.1468968338813506 7.333744517053139 -0.4915332179619922 0.4467867669842369 0.500678631906686
Ni 4.043883815864948 8.814512752140123 2.5171251637652863 0.17747450947281693 0.7485036660786076 0.35310553797899186
P 6.304415089577134 5.244433658230671 9.341292182923295 -0.22927169664976643 0.04475416428723905 -1.3814223611003436
Ni 3.342282881467649 2.2895459176086397 10.877962332990245 -0.7158413999588962 -0.669171506706183 0.5149657379533195
P 2.3391263911617375 7.63087892522734 1.7415175811100458 0.8581162216021286 -0.6343693114253334 -1.2725651956856083
P 2.361227533090468 1.1464921408095914 3.866788762999999 -0.20651023458353465 -0.14899517108620144 -0.3016492790812289
P 3.0298514308411955 2.8769637476986016 13.327230371723934 -0.009963538970615098 -0.20391599149379722 0.25635929689517784
Ni 0.6061412850201005 3.776693513088447 4.622454753742756 0.5704486015119723 0.4703930935492673 1.0248633173551123
