# total energy = -340871.7653641964 ev
CRYSTAL
PRIMVEC
9.23393855123221 0.00000000000000 0.00000000000000

0.00000000000000 9.23393855123221 0.00000000000000

0.00000000000000 0.00000000000000 13.51480245054097

PRIMCOORD
 96 1
Ni 3.5176596576531147 2.0842661422031448 5.557083947457395 -3.2241937032698154 -1.2102223717823286 -1.8186698211355776
Ni 2.7924538255519606 4.777011899264735 1.685565913562962 0.7825476430371943 1.751561200412538 0.6455687796855785
Ni 2.9864773424180164 8.066260852882118 11.489339124729234 -0.10309198079618374 -0.2751401770471068 1.0139255873966861
Ni 7.991687565131773 1.9613716540073354 4.548542098022268 1.4188373114136918 -0.5705252203861787 -0.03229459836764761
Ni 2.612456661347218 4.040355983358425 11.561751670858285 0.5063823671596828 -1.2748802169720301 -0.4529489299308909
Ni 5.3489620532093145 3.0760280785005887 10.58806424588359 0.7714013966123876 -0.12593803215642183 0.9390836025851311
Ni 8.105098798434119 3.724896940587861 13.495813951596471 0.9532616938577261 -1.9114668477636563 1.171775894880672
Ni 8.676457980311335 9.182570152376277 3.1795737718533976 -1.140682001689345 0.49539424357929523 -0.33187208252151235
Ni 4.3044466259611855 8.77279566123003 4.464790275350692 -1.1154643647731368 0.14261446437083827 0.6144697442879289
Ni 7.002335686796542 4.905409814837859 11.84337294580305 -2.2728708783060148 -0.4031520610134218 0.8061274872396632
Ni 2.924148257188344 6.01831179100613 13.030350500433684 0.2181856140389339 0.21320461588457476 -1.201745444659569
Ni 4.753059062659435 3.1863828781420436 6.880561275347157 1.1092510368735735 1.140647548906984 2.325229594413389
Ni 5.730157504535439 0.1259601557952538 12.776340548548736 0.19061541773014912 0.5540650179476264 0.9249502485075425
Ni 8.971020620137493 2.1253664027005184 2.217481403519132 2.996927724196168 0.7886103042915064 1.6464817568726804
Ni 0.13005263736174133 5.272883633474904 6.068132583072526 0.5064859826170826 0.29182509390195543 -0.2936582904559523
Ni 6.929997012175912 2.891035353538921 2.52486259684393 -1.6757283124426239 0.9804333691765114 -0.2266813102147709
Ni 6.387724736739208 1.8791249633198253 8.411085667037483 0.8673315695528094 -0.5491076739423512 -0.6472286838865048
Ni 7.76443110341511 7.678250754904216 0.790798191215296 0.18523024215883585 1.1403559858084942 1.8233448580137437
Ni 1.0866683567404924 8.904545496497727 10.262924341934541 -0.414401408674996 -0.6154619329978691 -0.5675378556230806
Ni 0.13265660803355878 0.8002121915696147 12.226571238401222 -0.6393443960424214 -0.17350164086799796 -0.0850297239778342
Ni 2.508168559334786 5.977359273525597 7.856844360448972 -0.4691183406019017 -1.9853765505689291 -1.3854078281106528
Ni 6.913616005183698 8.343288243396993 6.87247973232597 -0.04947111014693416 0.0806202820562289 -1.1755135075462337
Ni 8.806933532058784 6.053880922310529 13.122845939520664 0.7594923038796275 -0.9686898554873382 -0.6369496705579998
Ni 5.833633019955248 2.3405725746061106 5.051657857026908 0.6370406876099093 -1.4087135927161287 -0.4700241402456228
P 8.604488663232807 4.108714830462909 3.7339101880089998 0.5737352426830442 -1.1942085128525757 0.6301735281764309
P 0.05288276609041995 1.3358554225194468 9.00708838412373 -0.6020428313784857 -0.43219884186773305 0.5623881931013411
P 8.037857257894494 4.9538972261772685 10.136317810440609 1.3667225929963234 0.2984099462083248 -1.283137828995132
P 2.8282722731972787 0.021688674872215534 6.191671600179302 0.055520915885439864 0.5430211014286389 -0.6308646407061844
P 6.3389695411817755 7.569484192693799 10.319241209772652 0.7203112628047917 1.129456308176855 0.6660329610772013
P 2.1435572616490304 1.1153397359461419 2.3913500027065506 0.11894823110215 -0.33659828435258804 -0.24061694645925658
P 6.42068989737179 9.224113641924173 1.838918548074338 -0.5505986566655807 -0.056891056760089126 -0.27140513548470674
P 0.8763672529940115 7.89266280809429 12.594498443421198 0.5425475042263301 0.036168479500757064 0.5942230782237508
Ni 5.338352257812442 6.46195636876311 1.1484766478358015 0.3024398933033243 -0.9651414760144476 0.29466436312296346
Ni 6.44990607895204 4.192004956206857 8.718682934524411 -1.1095677967830437 0.8763944510860262 -0.321340329752253
Ni 3.394802105211516 0.544346218035605 0.37542239294307417 -0.4361899653049971 -0.2891298064579795 -0.4618745145552949
Ni 7.021514577170176 0.5578508531687008 10.569305499714098 -0.18856393451775913 0.26669616004481167 0.19354801799591184
Ni 2.0068765031942726 1.6914913319321299 8.064971795060183 1.1201286030180255 -0.11859701841031833 -2.093523063069885
Ni 4.366858816637831 0.927262875507924 10.991021320196497 0.7034615382373046 -1.3116032834246767 0.049468281933456745
Ni 7.910022612573072 0.9668580040212329 0.7592818355416079 -1.0368343736740595 0.17333323361093375 -2.011740128164123
Ni 1.3304535684662087 5.551453091728053 3.9033049439677105 -1.1195760729486652 -0.21882324762293281 -0.4230608841222068
Ni 0.38147431627041156 3.137258325042509 11.656395847446442 -0.38699396319632057 0.7341363416133421 0.653445611330494
Ni 3.8605342639861813 4.122011701978573 8.899497302291051 -0.6377659958117081 -0.08279080734498645 0.5394508675788775
Ni 4.946002208714844 6.455741928117248 5.011491147717196 -0.13505644951792223 -0.9309532601685129 0.7209578952498552
Ni 9.215766161472674 6.21111642798325 9.008346046554585 1.2551161469712255 0.6273843954670678 -0.9430775542358726
Ni 3.5942274761308104 8.223274744029577 2.1461640025024136 1.9045305256551393 0.22305425498514486 -0.2882445756395487
Ni 1.3024470328363427 6.748623991126841 1.2323069589850728 -0.402596702730584 0.1940594104146916 -0.47983367013687683
Ni 7.798199616701764 2.8642661656750956 10.076231648885349 1.3279341593742162 -1.72372823736067 1.0543656976896034
Ni 6.330206533495411 7.097269809055248 12.63205564169596 -0.6358888333936533 -0.4505372351656048 -1.5457719031554282
Ni 0.4469143153984362 4.593459668717263 1.8470000910955247 0.3298205993091223 -1.3258055430669877 -0.24846138220433983
Ni 8.298134283875052 7.887713417030126 11.380652897784225 -0.09476957697341742 -0.7301794138481231 -0.24838090667539162
Ni 0.7686847551696635 2.909586336090982 5.5991149889608645 0.33283753175857517 0.646393589579719 0.3895496397386388
Ni 5.382231933814131 6.321757479719833 8.852370973494287 -0.8837948573151553 0.514844638994423 0.6507930041989953
Ni 4.879277768734159 1.283055761876 2.8496229859184714 0.006838363078072093 -0.6480635210829743 -0.6621379968981693
Ni 2.14976246835634 3.1249587188905203 3.4043647719765304 0.05747778250149455 -0.3524211103174576 0.29961862180444526
Ni 5.224405456074048 4.716418794482939 2.819471406362849 -0.5162176080825496 1.3876765695401714 -0.6451378627957469
Ni 1.0945172045101548 5.663682380895674 11.04312104829766 -0.4902888040319298 1.6702120106100846 0.4326768099454161
P 3.07106021955932 1.8896239514540678 12.258912184787652 -0.8305079729665569 1.6160301252510425 1.0323385426862348
P 7.363225707245623 2.500652133353015 6.589453051933507 0.7359530831071067 -0.043070091716596794 -0.4002875949814332
P 8.765343872818125 7.100224669392062 3.2312949084739073 1.4716225735355235 -0.8000260023276158 -1.8130028526577873
P 4.402861943054201 3.144543902560466 3.8323522835238166 -2.113288161511954 0.42628530459677544 -0.42638223518595597
P 7.06784124688829 1.957253317412901 12.330878731684615 0.7825964939972586 -0.07271928204159733 -0.4668891941610669
P 5.240066215859161 5.281637407222715 6.918984617058147 -1.0786088865076844 0.1798368390574064 -0.4698233370887263
P 3.3179295667615865 6.306078252057613 3.4010811834272454 1.0859892381321556 -0.23308644241016632 0.053447835406495045
P 1.740680522601532 3.7230224510616954 7.4192073831142755 0.1986308318354579 1.6017178223934285 -1.879410847769376
Ni 8.279149306211021 8.42421448087149 8.792081665290873 -0.1127269327827865 1.0088090921057271 0.7053371579934627
Ni 7.252141426458517 5.945363676441032 7.215161349343289 0.05286059544445735 -0.6776633462272781 0.3826701390099861
Ni 6.72778299181375 4.667691300741164 4.709962424647001 0.31167246764518586 -0.6826448586022695 0.4202915489071858
Ni 5.042016701784197 0.5987091844759979 6.599575295374806 0.16382632256176302 -0.0022836538278541317 -0.20373112917650074
Ni 1.5629826090963737 8.533775161797426 7.7459410648574964 -0.7546457744206035 -2.1061016710658436 0.03688350328991067
Ni 1.2781802423202566 2.2137259607098128 0.3538759207245678 0.18646360034530465 0.36586849407161504 -0.40883085656575396
Ni 5.544352192981147 8.99787291344829 8.72439966588229 1.7252179345323193 -1.7011148708365285 0.9388866560829766
Ni 0.006843271861290417 0.6226518637488894 6.642404149169216 -1.2746416185986629 1.3603989647711412 0.23492966626649214
Ni 0.7846336138376176 9.10360150987492 1.130287635675 0.6757812987132167 0.22810775824865231 -0.49908069129194693
Ni 4.030198650950626 7.581746863091578 7.152155416417715 1.230807652132848 0.40742806268095644 0.4264408563380333
Ni 8.602097073147698 3.7190795592997588 7.84685693251054 0.522662592376945 -0.3280305972882351 -0.4549888431790551
Ni 1.2512356096239332 3.98694688277051 9.42022310550925 -0.4744335821672281 0.7124786541342504 0.1273346553936323
Ni 7.5369899629273975 6.8433180309831805 4.8830470624513085 -0.9095717091689431 -0.21140792899546815 1.250948645857097
Ni 3.423168764444931 8.954067108955021 9.162738422546978 -1.5507338751463937 0.31139221740060563 0.5258985828157394
Ni 1.8073218571352427 7.899856046226721 3.263554596201075 -2.4169824960476696 0.8929770380350557 0.8705930139129006
Ni 7.636457949015402 5.489881189459689 2.147259147614745 -1.2040000450217005 0.7846628896079841 0.3153185490382053
Ni 2.5716241850678685 7.070158965464978 5.460940179248306 -0.7596221445892724 0.2963502354658186 -0.46130424387412167
Ni 6.011543314047115 7.488890377007195 3.214955454205181 0.27958921395739594 0.28216134555994626 -1.5941682921809448
Ni 1.965065229428353 1.97332960443288 10.25250476567185 0.7311278938043214 -1.0489668952715352 2.173709857133121
Ni 3.0693519409270995 4.695965620589054 5.369133591977347 0.23144196482820784 -0.991213490511151 0.8599815569456415
Ni 1.3114039532323103 0.8990125639002706 4.511119715250372 0.8074636895525834 -0.21313005389289746 -0.45971478789981474
Ni 0.2998379889212246 7.992361642646109 5.1303402474331365 0.8273797117502202 -0.029656903634484408 0.8617083098287611
Ni 4.460767971717204 3.9980830126648783 13.095843133011458 0.8248726290576504 0.34724676520536973 -0.36591194571504077
Ni 3.4610094446332567 2.729783084595844 1.273760879329009 0.7892209412923117 -1.0877509580182685 0.9757562754158163
P 8.950308895964136 7.1992586603680975 7.022751001542361 0.3964975318113817 1.2919112043123882 -0.016607526649693977
P 1.4507256181130952 4.464673927724931 13.419171338216502 -1.1975221506068408 -0.1521637986221702 -0.40534598334094707
P 4.458625697973014 5.045350153601665 11.007847403026943 0.48534637242498996 0.5325181450147861 -0.19574091188217257
P 6.296798143812307 4.514149370489462 0.6534664400925841 -1.1771608133416696 0.06559475518167412 0.512237540388879
P 4.05706941213853 7.711446764000612 0.1039021233809365 0.5289872490433921 1.1681825211024592 -1.7554679916661124
P 2.3763263846815614 7.0745912559701996 9.533963067024064 -0.7852778974841637 0.615743725904346 1.6073701355831993
P 4.367791444431639 1.80415461621172 9.01529181513381 -1.4275983454357737 0.5520641854675137 -0.929402113631309
P 6.435519602687176 8.977456675308616 4.713220158168339 0.7310615593427603 1.0725385119438882 1.375864664506908
