# total energy = -381171.1383301005 ev
CRYSTAL
PRIMVEC
9.23059708412347 0.00000000000000 0.00000000000000
0.00000000000000 9.23059708412347 0.00000000000000
0.00000000000000 0.00000000000000 13.50991187566297
PRIMCOORD
 96 1
Ni 7.35214265819361 1.1723042545997095 9.812884074893661 -0.2698298205777869 0.2270150394051058 0.5470335650221417
Ni 0.936462506398716 7.472361950896927 5.022268950663594 -0.40191253217936584 0.037604183506019115 -0.0007150237891536072
Ni 0.5635943948437456 5.447307472263855 2.57278701593832 -2.25856526031662 -0.871493414239983 -0.6501826243085062
Ni 2.845672995210946 4.853937018267595 6.088714875059051 -0.5826703403891449 0.21139404503839723 0.42685917482237457
Ni 4.547351976203101 6.400218902157451 2.5387418057665108 0.5849010294918765 1.1440558032575845 1.4178407518283775
Ni 3.2900339250894524 7.1345405692664 7.455795798822706 2.5696134641142456 1.29863001109346 0.7555531167262214
Ni 9.113054378841568 2.1800823518634305 13.461127000762428 -0.03129803878233319 -0.18232206737310536 -0.2881561296908005
Ni 1.2260078667732273 5.0351151722280285 8.792331754720532 -0.345683791593624 0.7789874364897617 0.8769089288285994
Ni 7.132740602890697 1.7329983959293747 3.6472441752951728 0.7184186737677692 0.4949707828886314 -1.0654870044137457
Ni 4.570806922668022 2.487562761817375 12.29534323974116 -0.0593919688050719 -0.6858983325425607 -0.9362726154988973
Ni 1.8788879783292458 8.992502784653507 11.237031317244519 0.23253982587807692 -0.5052875914336071 0.2812200646925995
Ni 4.3744352063773 4.198426186624011 4.184330142253063 -0.7719433851587867 0.5721864101386857 0.18478801241509465
Ni 6.056222251268745 8.470291001376676 11.339638631256348 -0.28664637791449343 0.4676420131666914 0.06945089570297071
Ni 8.454054381608161 7.317057159762612 3.2534567622158224 -0.1267615564989817 0.18531534567347438 -0.7327222348746348
Ni 0.16763409927803452 5.332672690623616 5.741888123191934 -0.1862813091311695 0.47457524995141487 -0.7963840346996542
Ni 5.181115521789481 5.3660966816308875 6.541080578481194 0.12638411855490495 -0.5594689625720171 0.2706296907712629
Ni 7.043877647511795 6.691998066957192 1.5624483511227025 -0.648574913501754 -0.8742174980393654 -0.04473565234447779
Ni 1.0180148291132278 8.370305176855613 2.1473598862128425 1.8879129717031162 -1.3041403993887282 -0.6716253675633143
Ni 3.969987377055393 3.175223762110041 7.984371155532403 1.03377604646371 0.33508210481837775 -2.3966209016721822
Ni 8.144450934390568 4.671143509867427 0.9054846235430395 -0.5807895784266643 -0.8639009466047058 1.5711602613215456
Ni 0.4150860921321478 3.5201711644689895 7.176843471334123 0.3510918499830728 -0.8113684239236285 -1.7269593427034582
Ni 4.783535256485638 7.096104364197556 9.432079496211363 0.11817432905060292 0.1519138873948932 -0.3833643368635333
Ni 0.2424074717037476 0.3636744371436909 8.961732590225795 -0.6551697931104523 1.2951559365019307 -0.8882310387096379
Ni 6.099781437560741 3.1204955536918932 10.551416740262072 1.0077626531190838 -0.25218768201599145 -0.3293107495522393
P 0.5647676036968315 8.982515278917557 0.0058780440412678145 0.7064370759258608 0.46948266591985593 -0.45392852023534075
Ni 4.034675399419094 0.433035910666459 6.933246175703053 -0.21127834539613935 0.49064515893008404 -0.49476226642225113
P 0.220819874971158 1.399016942567013 6.979138856865702 0.3168151881883899 -0.4554637259329446 0.05454029713972543
Ni 0.19836460213951193 7.00708448867308 11.48774817218625 0.38768867527050005 0.6182405241842708 -1.2645693219643253
P 4.742939091765952 3.0527337425943 5.95872222646551 0.19901264065490887 -0.8369930664702683 0.17052584606912569
P 5.5378411656632816 6.401741950629199 4.740708979579441 0.18167003561140327 -0.8969401364478617 -1.9576523451807832
P 6.641608239034326 6.612439553151151 7.978345421942359 -0.5596895632232554 0.17552638460751063 0.7698741613345838
Ni 2.4821074791094775 3.4725412849888673 11.305918338091844 0.16462979229966485 2.2095772604536914 0.0037011030006710455
Ni 6.942488772277364 3.499070020187679 5.635686414786779 -0.1434521297807852 -0.3688746278877905 -1.3388243239241588
Ni 6.43836895872554 6.2466217714308545 10.847310905114574 0.17554412521932347 -0.6097018905856402 1.0853937706400016
Ni 3.633781349864599 2.7718651432103534 0.8118974487226781 -0.3859297835978644 1.0197203397015921 0.6803308657571122
Ni 1.4607696351487995 3.9975130167084405 4.368673467855693 0.5229963215672799 -0.9523494664561017 -0.6677468584445145
Ni 5.120728957533869 7.554698874339308 0.23077507361831148 0.09064835571619226 0.7991878226970366 0.7500293586945147
Ni 1.820061384932575 1.4869660688628668 1.3640551341331153 -1.418991320493053 -0.43144807974463756 0.4388037487787603
Ni 4.606021649454198 0.6408664898228054 4.4394647608225455 -4.471182078927583 1.3238597321945265 0.6053945214595381
Ni 8.774411474095976 4.975291674377123 12.265607795214558 -0.7757982401285026 -1.757567297397302 -1.2255350908799991
Ni 9.163619588103604 0.3829036163942705 3.642758105251114 1.0920277310167517 0.5197104517271565 1.540758766211553
Ni 5.611279793791935 7.894154071603165 6.4591701086109 -0.04465080594015536 0.20464181391622824 1.3646523407308562
Ni 2.1867560733487266 1.6918853177889746 12.550275708240756 0.05874225103621497 -0.5875304966949236 0.7267163950001871
Ni 4.889964037572036 2.175513206448186 2.824800769730239 0.3055948939925382 -0.251436919892896 -0.939593452342014
Ni 8.330207464363045 0.5096674022277048 1.66712331881739 0.8869925383168465 -0.14213958161694873 -1.7491060540038266
Ni 7.0713386729872525 0.21836545928244394 7.579587332487032 1.7626758222684609 -0.28599357482184296 0.690431958746856
Ni 3.657513214233474 8.887052446827747 2.3045744878247603 0.4610219367470125 -0.10777858763857567 1.7688477554071278
Ni 0.35298448299137897 6.598805961679806 0.37092137869017233 -0.8022605480850893 1.0013577780340046 1.9917305178114146
Ni 6.567237320629027 3.63141831708419 12.889549985807362 -0.43840934155381917 1.3096394748300866 -0.4411118280866468
Ni 1.901106024823171 2.8858537830747006 8.81756820636756 0.04982643660382386 -1.585417285461192 0.14272039382108323
Ni 5.264477041476494 0.37757110062379245 8.85474720415245 -0.5813490504745601 -0.24443657731566287 1.3528149817762958
Ni 3.685814224017593 7.341462857697776 5.099545660941053 -0.6418357950057075 0.6279047867469122 0.2705533290073728
Ni 8.743932043467417 7.23236643413662 7.414523031357692 -0.5688138941220268 0.19217042092209485 -0.8208719925386894
Ni 7.83837357514999 8.059963281894142 13.313544526909718 -0.8213407046449919 -0.23862074196483418 -0.5679032093822994
Ni 5.665786467886921 4.64670088954507 8.83086211187672 -0.2415669690773517 1.4039866195541044 0.8884012457389151
Ni 2.53106656452858 2.011707035662478 3.5537280760701595 -0.007708167277535113 -1.0578996789847912 -0.1777593877030874
P 1.5291868186190838 6.358967365065073 7.171790642646639 -2.3943519031323475 -0.5902957181448866 -1.4634714051832989
Ni 7.016352007858747 2.350073022504115 1.2143422385393168 -0.8435532361862891 0.6202632110412544 1.555254902945199
P 1.6492122687896322 5.668371034990493 12.605044531284818 1.9352546942118736 -0.16815760294726523 -1.7396209973315266
Ni 8.761073261722183 3.177669870261637 9.241252599417486 -1.921491836099826 1.2228272050305327 0.1562438822288148
P 5.113612167402246 1.2755484797906336 0.5243708198679929 0.6205416615136217 -1.1408604362487385 0.7684952787091861
P 7.824970748598607 4.44487389054645 3.4547677708534064 0.2795442196520734 -0.723177271498677 -0.7694075061108104
P 3.2803233372574585 4.578745235914709 9.524284850690993 1.1085779220659489 -0.23044180569846764 0.3109684995996257
Ni 4.580083672450487 4.80698097235376 11.447704920214793 -0.05087673224520915 0.5466065047870522 -0.09848122149704974
Ni 8.485595330868545 9.023416053331593 5.73097201941806 0.18480241059279784 1.902925900172181 0.5082194203684216
Ni 2.54007562700389 2.2623269693378276 5.880337844572235 0.1731833382966308 -0.018061485487401153 0.9610369669277706
Ni 1.0842166693518784 7.492327731772024 9.079511313135596 0.4516271257956738 -0.6917110825695958 0.7728836375848689
Ni 1.398472337355903 4.022038712401984 0.4598074105610712 0.29134815426553695 -0.37143981751180544 0.1162539720994385
Ni 2.822042667406855 8.902421390497205 0.30164759583698975 -0.4630780479450928 -0.3125651546627843 -1.226070651668495
Ni 6.954857771987318 0.9555698417715558 12.768258097756064 -0.710340524745325 0.8206282519589996 -0.10527998958643806
Ni 7.745163008679007 7.986063123925564 9.52152859448697 -0.6347580622233197 0.32710422881922374 0.17088785739423473
Ni 2.5281589265370608 6.139925303037301 1.3601912063132744 -0.41208947271236773 0.7452717894048713 -0.262501919457806
Ni 2.551290802114035 0.2111997469877891 9.001045701990494 1.6175650738383303 0.3279177258594546 -0.42974755211376314
Ni 4.360026244774883 5.1018062340969985 0.530126096971841 0.9387285332385574 -0.11893614691729192 -1.7146694695925113
Ni 5.644583787040828 4.320934667333349 2.282742280277011 2.4519207026857512 0.004953230240217276 -0.6158252298745588
Ni 2.616874192367188 6.361533470975049 10.554861598987262 -1.2014921909981824 -1.1164933202582836 -1.5679091013740998
Ni 0.7686354876475933 2.068022906729964 10.620127456710549 0.07898248934248979 -1.5046761615563826 2.1256279140242293
Ni 6.008684677756608 8.4175473712702 4.135410748400194 2.065328860023856 -1.6230073278998243 -1.9245961860567626
Ni 8.144137094099419 5.737582049785446 9.547684413575123 1.56991739005338 -1.3047510363895336 -0.45596611949065996
Ni 3.4056933029743233 7.282839337430672 12.292641444058248 0.6192404262036948 -0.11910918216004647 0.9634784864897278
Ni 0.048697859529705734 2.3274119073638633 4.957408316139761 -0.981520174482787 -0.3684539954106042 0.9262265441168048
Ni 7.539256085895462 7.09384286798193 5.242115920732192 0.08916174386833675 -2.4129515205114056 1.1798607287713359
Ni 4.009928169402388 2.104852987955873 9.874070008832021 -0.19230103296268816 -0.973654141471149 1.8875476179438975
Ni 8.740424416683998 0.03953003078946202 11.307431232907113 -0.1086512200515161 0.2897756675720945 1.1473005354471273
Ni 1.724930854327509 8.926984008577941 6.754482745865098 -0.4731431454905787 0.578521608328094 -0.07858551101438724
Ni 2.2459149682301423 6.041268684455218 3.7977712095265965 2.175615558796266 0.37527076122212144 -0.04825857789607173
Ni 0.11435232537820697 2.798910791829881 2.5083851420753716 -0.7498673791953537 0.5195764972524536 0.3460380896092492
Ni 6.376560882562963 1.0321930257956828 5.610233967174668 0.37358000378325984 1.0854395362762725 1.6796513016461139
P 4.029100118952816 8.862379061585427 10.629206671721526 -0.4341503091671491 0.07974096477506913 -0.15194679751535767
Ni 6.792574649673358 2.676088470829394 8.060121125099394 -0.8950676020154972 -0.43641725082445487 -0.9883469675966333
P 6.3277033337086435 6.012330763492005 12.968082980309095 0.30042620530740516 -1.3014160584790297 0.35785667951073213
Ni 6.253037036205794 8.937543811315395 1.8280938502666066 -1.1916654347157476 0.962303235234704 0.0023188779411637485
P 2.349048426259485 8.91447654991601 4.367930404813416 0.4284319186261331 1.7041400308160977 -1.0933932439057104
P 2.6309970054688523 3.9112530896267077 2.386472034859535 -0.3197179636574816 0.8661964275071017 0.5377613956915965
P 8.066581619798647 2.6314677659055743 11.609242210307436 0.010483158919510977 -0.014382751084233295 -1.1540491670248705
Ni 7.709929820699234 4.859770755444229 7.3006350049984485 -0.4592692157219639 0.24219534668996998 0.7266819422178259
