# total energy = -340883.33202917554 ev
CRYSTAL
PRIMVEC
9.13308340604296 0.00000000000000 0.00000000000000

0.00000000000000 9.13308340604296 0.00000000000000

0.00000000000000 0.00000000000000 13.36719075096565

PRIMCOORD
 96 1
Ni 6.5110754754708005 2.3380510324143886 11.423507027736829 0.6757874693608039 -1.1742264133036937 0.02901875582985325
Ni 4.751313004960858 0.17821019920112266 6.003753709936521 0.3595718624296259 1.945960253554836 0.43734207663156943
Ni 2.810578490890844 1.9617680046740436 4.85925417534811 0.27501033633746186 0.2289791051100121 0.5310284478431371
Ni 3.6077048592925323 5.038511939191996 4.737893765818652 -0.023202149148076168 -0.855609910240507 0.18536085419942916
Ni 3.5277812482304993 2.9612378313181433 2.7264920205073535 -0.05337481607671453 0.3191600342714826 -0.2835479414948278
Ni 5.113850742488844 4.932997429010341 2.5112142898405274 -1.3246449470999833 0.6911698653541452 1.1613354162736387
Ni 5.174741008167117 3.072122594419976 0.6579208276124757 0.8768554498828448 -0.21496916398416527 0.35174233908287805
Ni 5.92793724638844 8.48312733182532 12.374850072471274 -0.6193813226569332 -0.5434887850936768 0.28396831686169804
Ni 2.4919160850440387 5.943226027661191 11.652567494257124 0.33615219795410495 -1.0421105344713344 1.2754941964069453
Ni 1.3768579574513518 0.2196250782688743 0.22638264652676462 -2.521628965815167 1.1615241352456769 0.022854536000670316
Ni 7.942859795272406 9.069991858852296 7.248479699535187 1.4177831591175647 0.014348555412188192 -0.7340008444767424
Ni 9.000671757382653 2.283590457307212 1.1795048158680987 -0.255939692859256 0.5877600962072265 -0.652227936873309
Ni 0.6728442855573233 0.4737540315498906 4.787231594560305 -0.17057881079424816 0.22481546065062571 0.2955925313641877
Ni 1.5057531606188148 6.982424766214768 0.8284948559521007 0.6152783562321532 -0.5656303541877227 -1.7491659607074843
Ni 7.786656673344175 4.267971975978466 3.7474118063492923 -0.22746935333370502 -0.11232918312373558 0.3999302116420145
Ni 7.6440527122971424 4.0589431008354255 12.857433055548265 -0.16643959181489398 0.38705284145871405 0.2593890848604371
Ni 8.213774442162256 7.695590700781093 9.16101673254099 -0.5674517236671776 -0.7756028362882449 0.17251999368101903
Ni 6.718798319716587 1.1869811577736389 0.41925966403488285 0.6459611300279907 0.25916591310603754 -0.25857893025431594
Ni 1.7914268699559568 6.848552032704624 9.545149645289653 -1.6045848595285785 -0.029616023094219963 -1.1054236927076833
Ni 9.159477808022196 5.041242731068073 1.360820263356399 -0.8455185874427761 -0.5925282070198312 1.4024596413866168
Ni 6.621832375407868 2.08090907498649 6.481616715617003 -0.5310940109737499 0.1733298911768241 1.3778199884610658
Ni 3.455237168392112 4.512053624433824 0.34818053074138755 -0.7052705664215854 1.7549483717172163 0.045948184595340225
Ni 6.006746621300368 6.141112541303182 4.9700814000258 2.382022177922401 -0.5218637506247334 0.33038238534986325
Ni 5.5255153345366175 3.4800426223567427 9.340899199275588 -0.4992958926265465 -1.6913876162464354 -0.5067351225134112
P 0.07834906751876997 5.963967259602898 12.822517278483913 0.1890051358202358 1.0828144399485997 -1.2388199809143632
P 4.239997342144275 6.5077510331868815 13.086091666407867 -1.430670299492878 -0.7342625827785613 -0.8850125317723403
P 2.593220243871609 8.821014877803034 1.753842405981271 2.0666858882723824 -1.817535450420818 -0.19193413654157265
P 6.729237433811423 8.339637461708124 5.707830854635053 -0.6602189254985855 -1.277677062990877 0.3857960862334775
P 4.733083370898486 1.4932317035549312 12.560173116866672 -0.18859015977000423 -0.2349281236045954 1.3686275233285206
P 4.365842095523746 6.326148806886177 8.232103626831483 0.0388622242828363 1.6071644473302968 -0.12577990931200272
P 4.95795814538933 1.47594277706191 3.600159105954691 -0.8550776918861208 -0.4965522684431384 1.4722344960879097
P 0.2812121981951235 5.786356190659537 3.549617536847596 0.2521833111406173 1.559727336894256 1.0802862742101071
Ni 1.0262571596626051 7.858835429854659 2.879533269032582 -0.4128667171980244 -0.05465393989945425 0.5301414172524934
Ni 2.025352529895604 6.950486374272827 4.706213840131202 -0.3577540924945968 -0.2730269873588459 2.2478962106385483
Ni 6.4768994781454525 5.67843054651372 9.025687272260829 -0.7142432022338409 3.3079121646353933 2.1896866921773515
Ni 8.833326273953373 2.0066297093405625 10.0533573198941 -0.4100392750515583 1.853920931028388 0.40260518737101625
Ni 2.535480891896501 5.71195809493204 7.215783261687846 -0.3471626901319957 -0.21537436984238392 0.2957393413546971
Ni 0.7897258310866883 0.2582260544034512 9.1152873849707 -0.7832361844637866 -0.5490989321916027 0.3525149555828445
Ni 1.780521968618045 1.3351015010720106 11.549078701928691 -0.389226194960949 0.8911456412532717 -0.31505886761891544
Ni 4.344671608671753 7.378060797250788 1.6391117015449364 -1.0290459879778924 -0.937919664184017 0.9330960175431285
Ni 6.014792867597437 7.936795428029212 7.8901043667982185 -1.4462632688351285 -0.5290774947643534 0.33919998364149323
Ni 7.176676312744123 1.0085572444256927 4.424325793779458 0.9074904011598823 -0.8063378034782565 3.397775562556445
Ni 1.1018516892889847 7.832906606656726 7.257796357705039 -0.5184506111781264 -0.7326749265764673 -0.8528318332747377
Ni 5.347073155022277 4.672028709722655 7.344696731021704 0.2629819444180181 0.14079052378822204 -1.4709348034398795
Ni 1.1336987503989502 7.953929092107875 11.793738474550455 -0.6109442476331737 -0.608865510727274 -0.8753379847970538
Ni 4.656867791614671 0.6164082245545099 10.651218079090961 -0.5779112284376047 -0.5421525827807565 -1.0232162686699926
Ni 8.576905830098084 7.6678626601932365 4.8389230188419745 -0.33251151587772415 -1.2705849320307858 -0.02163146222684662
Ni 7.614507188152968 6.116188357256983 6.8885942093677786 -0.6970209248182835 0.7907291504067221 0.12010599885567702
Ni 2.3815793069340603 5.677928226937853 2.6919114275963514 0.28391843746036904 -0.6597435285240637 -0.7581980105482361
Ni 3.498171792503941 4.766245595988904 9.549534438532813 1.2825025094039784 1.4105701863088933 -1.1628947903409583
Ni 1.1083361783592673 3.7071184698982034 3.680950359920494 0.7463825059705468 0.04697996829396425 0.7373823593544656
Ni 1.4675129412705425 1.1862870434506227 2.5293662926957206 0.8720333459038531 2.044248899425105 0.769688527686339
Ni 1.285152669064439 3.6011655717230644 8.218482546550609 -0.908033932368178 0.611462839140805 0.37677382813020915
Ni 5.275049660926151 3.3106239290416113 4.588221711685011 -0.06358363828891629 0.24655208099676892 0.08870331617467948
Ni 4.185582432453087 7.052137590261905 6.148412614703009 -0.8205552326292191 0.4261708905060983 0.2254831761416117
Ni 8.122945929762311 8.243484361803988 13.43897208176273 1.2893863810080053 -0.6628537920182713 0.03707685024763937
P 0.11661120626671659 6.01621762857626 8.385358589503534 0.5307194012431505 -1.579514803933828 -0.8911088744780654
P 8.530509767454372 1.8493123512622265 7.787644872946154 0.37138505301447006 1.862629000325347 0.9179002836392965
P 2.0106573990306957 3.8294926516625933 10.490958954914685 -2.0664969121900283 -1.6852352234917944 1.733623384987195
P 4.53891402211791 6.855255715771649 3.7968701917891536 -3.0987344105220247 -2.3079453534116445 -0.9809208503358912
P 6.892838353129695 4.2969603820475895 10.677604469757092 2.07569426241858 0.48440380600606253 0.7917869022472751
P 6.230781152137034 8.07435792715118 10.273313929083045 0.5001389573531322 -0.43493706673450255 -0.670475056008955
P 2.364756167684116 9.14961407816881 5.996414364278944 2.491857648090005 -2.233976515233662 -1.1989133745274128
P 6.8586897550539385 4.143880774572931 1.7274286160655463 1.375987306127701 0.4943326350840002 -1.7721364534607287
Ni 2.7899377228643107 2.2240062225261923 0.27298968339234114 0.5298272284461844 -1.1844465483698055 0.07448460147213624
Ni 1.5107854894606823 1.318972476145082 7.251018696664114 -0.5896660549806877 2.1376889589538215 -0.03234139244518301
Ni 6.641559835114643 0.896636789689254 9.208670420741008 0.33470286710208813 0.5668444291004818 -0.3114678078335475
Ni 2.9018727905338655 1.9636950852287334 9.382177082095374 0.24998604637898236 0.1511998920470041 -0.11774521193298432
Ni 6.801297460240338 2.220435186995938 2.711802369492364 -0.2949518124563953 1.287368579247028 -3.0283206366851525
Ni 3.8916706820717266 7.224898992027351 10.14432100192537 2.712130483675271 0.8105276731898879 0.9772338884026073
Ni 7.476889890531814 6.482087069401678 11.512920825549466 0.10551935929075375 0.8390288659533743 0.23765195029366168
Ni 7.916017663754714 4.081903671994145 8.51379074535288 1.3970639242923422 -1.5193057385440996 -0.6099343183114205
Ni 3.4274634623882676 8.443398419915843 12.748423314426896 0.10160305495548308 0.8845127093177864 -0.3066585593703622
Ni 0.1550459602870975 5.2542353643188635 10.648103697720588 0.39358652881217376 -0.9966251484450256 -0.7308741259223026
Ni 8.747520957312098 2.8232734765354817 5.64553957399427 0.6038865694554438 0.37204556941660444 0.5219930771137461
Ni 4.2022229100390796 3.305509402450966 11.351818717794053 -1.1773281921574692 -0.3242996694908931 0.985128974879968
Ni 1.0529896941819252 3.9092336010606754 12.700141270102883 0.6289375988868007 -0.32921690428685235 -0.4158404551143677
Ni 3.327337471293185 8.760983121945333 8.191761885039446 0.6934110959798381 0.10748702454008584 -1.0603352850094772
Ni 5.7833605393707295 8.500178798155206 3.717348436387814 1.5506791106490585 -0.17613316495357406 -0.9291069509883934
Ni 3.4846182970387303 8.70840396197686 4.010344138524457 -1.6157462754620366 1.2068753096869667 -0.9461919314951382
Ni 3.6015674273837575 3.3898899581134185 7.4558308272948315 -0.6531687035200235 -1.5718457174243445 0.17481624591436343
Ni 5.320331487419758 5.614215838551527 11.546578977057514 -0.8684823953278009 -0.6510166901740271 -0.972776366851886
Ni 8.35259730676549 9.182949831839979 2.4806696063945375 -1.3034150911869296 0.05785804865904875 -0.6738205754424201
Ni 4.760573951323205 0.48943644870845726 1.7299146413119277 -1.046971204997745 2.1078443647885634 -1.0622327591425063
Ni 6.165260413277586 6.09690841862689 0.614629099947621 1.1716663658860014 -0.04459038501586514 -0.6750567618423664
Ni 8.231538288981552 9.040939521200789 11.080946083086912 -0.7582566317003134 -0.6034047447230189 -0.6024161555575045
Ni 0.47369740643406555 5.200907291528187 6.077981017008223 0.024571775802093167 -0.015753920400147062 -0.7992914381544363
Ni 7.414383069127568 6.557617667445674 2.8010015398498602 -0.03816545532612782 0.36118394411175214 -0.4931974930382925
P 8.879539674933135 2.0261471081337934 3.5328144903806864 -1.0675261463309615 0.005613232421719365 0.05962079698642636
P 1.7521820114559505 3.6171393342356337 1.582154141491541 0.5051505516351107 0.04705555872690606 -0.8296379116567777
P 4.9685251226489315 1.7688042228755485 8.040899790165161 -0.7143144217914085 -1.3402646559151112 -0.03940215594670634
P 8.529925250129727 1.4146780549725355 12.433719186837923 0.5632924500831654 1.2620041323403104 1.1168972405649216
P 6.393432230802758 8.255266039128868 1.342266404840513 1.6563342241867278 -0.5104143711372112 0.8497627074311107
P 2.1597275829816156 3.8082308339786244 6.010383415029645 -1.038682996847024 -0.29133915540447247 -0.8853840561791462
P 6.710870803501087 4.257523728800433 5.850578205088288 2.7358386259254885 -0.4121594067183547 -0.5408076387170879
P 2.4883907149297726 8.939434434542873 10.175640170826515 0.9213630453769164 -0.07979958592714644 1.433825300182092
