# total energy = -381166.95947883266 ev
CRYSTAL
PRIMVEC
9.28661399477473 0.00000000000000 0.00000000000000

0.00000000000000 9.28661399477473 0.00000000000000

0.00000000000000 0.00000000000000 13.59189828668954

PRIMCOORD
 96 1
Ni 0.3094726939124511 1.6677551322943214 12.381933335309991 0.7488080846929039 -0.8176303456729402 -0.06654812023387893
Ni 0.3813538715617115 -0.1698187366078106 8.011907282382536 -0.16550036783007627 0.7132661830325523 -1.0443029141369629
Ni 1.6835052294860513 3.1456082967385948 13.472982314488645 -1.027551662820553 0.31647760234331307 0.28056006251109744
Ni 2.332054485133946 0.2871894638348829 11.616057928181792 0.45103860028205545 -1.1466988973073864 -0.2993306582503813
Ni 4.678707527334756 5.480569492026439 1.56469972040985 -0.8650273468996651 0.42901684459532563 0.05897622142389197
Ni 6.392273526048183 0.9883836050784128 7.571244451083217 0.43803010383752944 -1.2772746853461356 -0.6308034484509458
Ni 3.9706125032945425 6.432094526495197 10.038200933183946 -0.3540180224909322 1.93719947664307 -0.8040865455502346
Ni 4.201143407001794 1.397449661209606 9.771405802157291 0.5989958170220457 1.2158430604032158 0.2372760550114817
Ni 7.378771948502822 5.120295305379532 10.976667131172155 0.4627258068119966 -0.7908913870161993 -0.40314846146899597
Ni 0.7192983950614998 5.601704083871323 3.93261167917393 -1.4278845092176249 -0.36699232326341313 0.14368687149941062
Ni 1.7078454445447329 2.6022949499212906 9.397614948964062 1.37564869184136 0.3211032740407825 0.22726957861807312
Ni 5.212929279133957 9.006566781141474 5.334915453474407 -0.980648313400795 0.7534206437642509 -0.31359668125109214
Ni 8.507857040934947 2.168591507086289 6.400139288030137 0.9409939322339664 0.8673865911604609 2.0651439977065595
Ni 7.452470516494311 0.7868046488976567 5.203101255632773 -0.9442543481527931 -0.3695695970722861 -0.5577571220872329
Ni 2.8561166813153687 5.025181805711079 3.3886371254462184 1.071591831759903 -1.898053659681544 0.6163947292247837
Ni 6.371833688831793 2.761337499747684 11.788361762671977 -1.0260671078552264 0.4299768945157498 -0.41884298938611736
Ni 8.596739222669644 2.327884795488258 3.7025014590768115 0.2859424098689334 -0.20850078265100216 0.2518920051524436
Ni 2.97586756768763 2.829491959234774 1.8112834649223049 0.6921108891111758 -0.042215457025785365 -2.261122479520835
Ni 5.1857380736048375 0.7318427531314224 11.870062605869903 -0.7028737840546346 0.4207738878602431 0.07666026896721637
Ni 0.4410807289252786 7.6540829044851435 4.942789109776842 1.5311582670073114 -1.1520609329502483 2.174223563544746
Ni 3.1558885783372066 2.338230083384241 11.64370324913112 -0.4940639548036459 0.5028563562842951 -1.2510772010151614
Ni 0.6806818684386404 5.102845757842232 12.5309825599076 1.0734106301361965 -0.07286840602495193 -2.334846548677863
Ni 4.54301152487865 5.086826348847106 6.755023523963554 0.736113519944371 0.11292670749841842 0.30012230091374115
Ni 1.670197511752709 2.730403788812748 3.5796850614527873 -1.0845255091024355 -0.24094321945042377 0.5012375897339497
P 1.9284396713680514 5.121790450219077 1.22641716416373 -0.2267497015588611 -0.5833609386982662 -0.2620648319203874
Ni 2.308494345643723 6.87780556111611 2.4978920503584465 -1.542884554305304 1.5879742475550909 -0.28099637871756766
P 3.3864287686583685 8.77681595300268 9.792242177787648 -0.4570773502769676 -2.2040573590767267 0.34889715632459917
Ni 4.587642991331157 7.574208738243359 2.9063145441456615 0.8804699067069803 0.09875967196941701 0.6227911196694306
P 8.596813515580925 1.8525308892659291 8.660580978656828 -0.2500991749180789 -0.19558818835439218 -0.2640340398316163
P 0.644799320950949 5.098648208354813 10.224043722093837 0.5772226870110123 -0.059059268056001514 0.23333532519617878
P 6.62005559203801 8.217511057031981 8.81435987571891 0.43486199052219293 0.37253382190693257 -0.4156280819932455
Ni 0.7494074546812087 0.6426401832168234 10.210261458389683 -2.3558290644668007 -0.3870081042637077 -0.8950907419439489
Ni 7.205641605374626 4.7613212446800555 2.6616066956430706 -0.513317146606303 0.7718575103131996 0.8956535564259543
Ni 3.79287599966688 3.814012332926536 13.010722533879724 1.7768729397044494 0.9236973499370478 1.8213067445377922
Ni 0.7888049855339176 3.710800905928373 5.514899317668342 -1.7127056609979212 0.4957891650248687 -1.1845352514288696
Ni 4.629024142915089 0.7855565279881235 2.4477916969742113 -1.0287366842675896 -0.15948655753582855 0.3032037680525423
Ni 2.2637421532103827 9.009742803098769 3.7780313473313965 -0.3737391550689434 -1.262309322285555 -2.068672322574792
Ni 8.905138384014073 7.25777665586659 10.211620090004748 -0.2589555968674444 1.1056918587674054 0.5570631813440019
Ni 5.162985869524804 5.289590276962806 11.66463527688475 0.16462953518934875 -0.7416593894632647 -0.430057112934382
Ni 2.81399260061862 4.995594653793125 11.173777368739314 -1.8184371362994811 -2.265562774680376 -1.2902502716701971
Ni 6.103209094864827 2.456420818619586 3.2906661346775916 0.8445510813231841 0.4141774655896479 -0.4904448699938198
Ni 7.285274319654746 3.705461102929998 5.133673601378591 -0.35921319353862646 1.1468045696473153 -0.24182767893790613
Ni 5.216560345172852 2.3921295905191466 0.5886654545092452 1.0953423972122813 -0.3360881774853889 0.03367090988988395
Ni -0.07559953785891174 1.6036124900164457 1.3687995286351924 0.7147078005750852 -0.5951062521596525 -0.7530288076424708
Ni 7.474024747379927 0.7811667455927633 12.78682320116576 -0.05966501996080047 -0.34952142017215937 -0.01782108734182092
Ni 0.6035258940883761 3.750454747325004 7.710833402090486 -1.3388361509987006 0.2795935848327701 0.781225581791661
Ni 6.3892089434578105 2.4719944701470213 9.322777842107179 -0.43794088655783286 1.7313551577783084 0.9874406537322801
Ni 8.152151868331867 3.6124928110748056 12.761542252117971 1.0917562225229198 -0.4830884296287487 1.506306240960638
Ni 7.635388950683875 6.942273234880844 12.334674685782282 -0.1001624658542146 0.8535175464878525 1.1145889041467192
Ni 6.845627443917205 7.427452378620184 1.169097397125691 -1.644038951759143 -2.130007274038848 0.9739207648689744
Ni 0.5663023595520492 0.707460748310145 5.296558952041033 1.0459185953635148 0.4554997213772026 -0.14817576050869966
Ni 2.953245376202339 3.8250912633214265 5.639006554625887 0.5741216794881854 -0.1813710163137457 -0.316581474911029
Ni 3.364948830684034 8.298295311436968 1.0858633339711892 -0.6980704491287203 -0.7743944178024406 0.4221563700300665
Ni 0.009488133432069739 3.795773423206868 1.8395816348295213 3.527849214147795 1.6950570946782226 0.7400655626135835
Ni 8.729612094497043 8.406549369788378 0.8492887019311676 1.7650898310265923 1.1605054641731756 -0.6345672863687523
Ni 2.9749203330687877 0.8807396772609029 0.03816705450960499 0.37934930216686924 2.20617106298562 1.1140934525675394
P 2.2213580473241477 1.434345378274902 6.971026448869661 -0.31651642600104846 -0.19405092577425936 0.7529966688529548
Ni 7.168866614290163 3.6506143611762503 7.552759446094929 -0.31546690169061153 1.3986533802666494 -0.5709075434262619
P 8.29674444691396 6.557538107194421 2.764265569113576 0.8974240180628158 1.2648696268135635 0.18088610625752718
Ni 7.055792803319349 0.6167843927679943 10.48644814206374 0.8157606394540531 -1.1316790268597865 -1.1704186095218294
P -0.09650370577081248 8.609341157745808 12.1550576428378 0.2830941417868608 0.0875334642362944 -0.47071808098885387
P 6.424330917266254 9.38969532462143 3.577672652218443 -0.579171326096951 -0.589932678378513 -1.7965246524971061
P 6.645398761398995 5.662735710489276 6.203927066028096 -0.41419289220861566 -0.18197753954949306 0.10071268193072977
Ni 5.387090436406186 7.491530014600688 7.082737913579846 0.09658914668065946 -1.02907735543646 0.7381344070291417
Ni 5.015570160314003 2.6708023007369683 5.486315120052692 1.6350678586087841 0.019850459067023877 -1.2817859429529281
Ni 8.888116020716643 8.740403139860716 3.3721227399296776 -1.6295566989825676 1.38735389609343 -2.2972747610716757
Ni 2.1086928473653828 6.039270758092975 6.38391093022203 -1.2963648692083671 -0.9468748164947756 -1.8352328677005814
Ni 2.502686729120292 4.947202108706978 8.42287245105837 0.424558551713656 -0.47043783074427364 1.0205199527847522
Ni 4.3210614524244395 2.472681679576378 7.554064215349315 -0.6462802039303063 1.2232213551451578 0.5815066590983469
Ni 1.2587633690744102 7.182118612340044 0.12400879885009618 -0.1654684861508763 1.1419922358603365 1.2076227293759523
Ni 2.4749290401426505 8.615711774888219 6.1903073180673704 -0.7188449626719104 -0.34153197420877957 -0.07103135281621314
Ni 6.534182273210224 7.050360134181871 4.298016720006234 1.1428697533692833 0.4897779258337823 0.017249016888434807
Ni 8.33841348352911 5.483049017940467 8.846368047883258 -0.5612067711987303 -0.8514444660089078 -1.232356998897839
Ni 1.815681605270184 7.2722637735665305 11.510869381082143 -0.3541090395428418 -0.13612140044732687 -1.616870618874467
Ni 8.800933289327517 2.992119142030512 10.52915449345266 -0.1780974877687965 0.6244772491226018 -0.6867722505070817
Ni 8.732806689682157 5.741040438980234 0.5869725047934126 -1.5159231952251118 0.8093519077142318 1.9479394887683934
Ni 4.077102105003012 0.23357319842423926 7.738832543029793 -0.2585303364045677 -1.3231123125055408 -0.578521608328094
Ni 6.394084415760675 4.853017270429548 0.12926316500049753 0.36412374346636645 -0.5085112405772275 -0.4155049261518199
Ni 5.8267465987576355 5.365963389760439 8.912995788043508 -0.19212465528582395 -0.31621046472485537 0.25804465501740076
Ni 5.425276992805001 9.061190644161377 0.43332919229441963 -1.0314335143734623 -0.11197848465253617 -1.290621538966687
Ni 2.984875583180542 1.4142212859314598 4.972228604533625 1.29849322840528 0.9591266372789353 0.7225843751096845
Ni 0.9434456803668679 6.798470018481117 8.199339939593857 -0.8007474538746725 0.19125922196173514 0.5557688880126107
Ni 5.296313785433804 5.11894874636255 3.89634838051592 -1.0699830925118863 -0.8093850749450126 1.220136545572247
Ni 3.1942794402420476 7.207368915561927 8.003235442313175 0.9060955776948846 1.1759714210192587 0.48278683922792986
Ni 4.018271405881781 8.071154021806946 12.339812040597415 -0.5468528164699034 0.3173258092762213 -0.985596915655322
Ni 8.777948919899728 6.073352631143475 6.38544693616278 -0.12423776163586346 -1.203635205483114 0.07224105685359816
Ni 5.854495001121367 7.5381673896578025 10.736906261899538 0.8611125852262912 0.45600442892776305 -0.24367733055213517
Ni 3.1242676579729136 6.0772622955996765 13.195327417155383 0.980120465921783 -0.8840609664923483 0.7700798495874867
P 4.059271806295394 3.212100452335756 3.493960328447565 0.8625053518087596 -0.3336705691828318 1.909456759312163
Ni 7.520782848417875 8.165311000242646 6.40514105828218 0.8659884252613537 -0.5184138444029202 1.0690099299653395
P 5.325724491687464 6.710990115446864 13.215076330296853 0.9488226842497658 0.20502799361105334 1.455086009333081
Ni 3.7740148868152272 6.874527386405803 5.105945629565463 0.6849814771552462 0.11086828230749293 -0.6397421457014725
P 7.449378074062208 3.2088779973089103 1.334230108354406 -2.6655883742496735 -2.666860041873246 -1.4453757240238527
P 1.373852375263742 0.09165052134133256 1.659298741667677 1.1627196982156751 -1.3298622296348646 0.2648117985379052
P 3.9674271947233377 3.6337684435431146 9.315342979010659 0.6631283858358966 0.46836346471374823 1.4467854598871859
Ni 7.102448751604284 0.6889896732427214 1.484561814333015 -0.5431982504364516 1.3199346861085075 2.544650880631637
