# total energy = -340887.8541551801 ev
CRYSTAL
PRIMVEC
9.07472176008887 0.00000000000000 0.00000000000000

0.00000000000000 9.07472176008887 0.00000000000000

0.00000000000000 0.00000000000000 13.28177258282182

PRIMCOORD
 96 1
Ni 6.404221765156477 2.2973202797988908 11.247775592267915 0.6574089668536162 -0.5750837862911387 -0.44399737716455795
Ni 4.6434353388820115 0.5137853408389679 6.000439294878325 -0.3633642395925226 -0.4372618582129372 -0.46964258853648794
Ni 2.8532377391539128 1.7307218728490126 4.881117730657867 -0.1331381494492868 -0.721793503777273 -1.821282061947444
Ni 3.4362886167830378 4.378816450295782 4.7380329616628565 -0.374843958097348 -0.3117472867471793 0.482873228294149
Ni 3.501490493137361 2.5836640524480643 2.612299337185165 0.07458256050258123 0.5912650240366915 -0.26192676368062634
Ni 5.197655825254674 4.426613010178624 2.8460850434068736 0.993622614173276 -0.17906010879238196 -0.2068244233898438
Ni 5.275798254939723 4.639596731547582 11.695424360403988 1.2074761764957593 -0.5235668493587693 -0.8839156991637358
Ni 5.781233036749986 7.975273907392501 12.242301581871164 -0.1235016548007873 -1.1489807513630277 0.02436325933571288
Ni 1.889656550993705 6.590652850448504 0.3847346291552944 -0.037587728445786873 0.4160317451895674 -1.746617740364334
Ni 2.8894277298151576 1.7803243023761846 13.153484418708128 0.8193385866132985 0.10019820418815646 1.5678013721516417
Ni 7.90558004373193 0.26406623802673407 6.5930449471231025 0.8933467626696485 -0.682207771064851 0.8521270938982293
Ni 8.735390757384264 2.256828870989845 0.966066754469665 -1.5220167097173591 0.8446876069010485 0.6844885966792276
Ni 6.963224629933972 1.132824750304693 4.675715031906363 0.015900473280340357 -0.9479114852894062 -0.6900748325177535
Ni 0.8413455925714679 7.766827546938945 2.212956220826643 -0.03544728506401637 -0.3565675283856633 0.8016905345142322
Ni 7.603972588963345 4.207004741873179 3.8402516740256214 1.0963860079854473 -0.9929654402052512 -0.24853028776906227
Ni 7.550005218235557 3.8959958752878814 12.649148585711577 1.5741869639630115 -0.5754763937438669 -1.5384967096502535
Ni 8.506589795864215 7.249967690343701 9.338401485680242 -0.34582108850243665 -1.224491737217149 -0.8808573719533862
Ni 7.220311499400635 0.5284264970407863 0.01947072316017199 -0.7848089282675452 0.5046800397565954 0.6890708167332713
Ni 2.1184575125137535 6.473552639943815 9.327177869719904 -0.49118354793205726 0.2343550247099448 -1.255613398322618
Ni 8.872809270068121 4.8997145581057335 1.3414725695828933 0.6799827383890741 0.12518367048890053 -0.14187501510165243
Ni 6.306260142992953 2.029579686902864 6.828331612335627 -0.33030936602008276 0.9401858345103744 0.4014703024356247
Ni 4.151576340930632 4.514828381095865 0.8164980967265448 -1.0297424998242846 -0.0948870763878882 -1.3186763882213741
Ni 6.2941816882361525 5.965259320756849 4.594709527483695 -1.3268010742110377 -0.03676086166911734 1.338860833589049
Ni 5.548947382046909 3.0009923600030555 8.940187264717471 0.1698650725566752 1.9546855492429758 0.7843345597342879
P 0.3481771122599025 5.543919986152643 12.435750149554952 -0.9194745701049519 0.048651185348800086 -0.18123834739062336
P 4.115204855832771 6.120990622095269 12.458222790696754 -0.8907368358506272 1.0931163360952398 0.8934979435355321
P 2.596568306891467 8.653073955657046 1.0460685946578456 -1.172626930027058 -0.27445369250304347 0.25084453772453574
P 6.3384754054923045 8.023206588102806 5.6540371982085285 0.6159540421429393 0.004215066522612096 -0.20614333816241914
P 4.954217337421539 0.9186703898195615 12.28618421422838 0.1319559562157276 2.216281154836428 2.6003201491694825
P 4.0124154816552595 6.364873771298113 8.164637942780244 -0.37620561433156496 -0.300419777549502 -0.46096460114651583
P 4.82310575641009 1.0143542568035535 3.3333794562773598 0.15667737022180758 0.365328562407745 0.8745751384891002
P 0.4209699934256928 5.532422313593014 3.4885236231133256 -0.5871484307651565 1.1880679471724764 -0.08160192924320786
Ni 0.6407080302533179 0.30506492378612127 4.442221531727606 -0.5281940637181355 0.09294203684637542 -0.1558520461070348
Ni 2.1216155157108734 6.7578727496247195 4.424636535763875 -0.05663060400985086 -0.45845803267457813 0.4190389074470074
Ni 5.959814487658368 5.844284204030408 8.753883225531075 2.22444980669015 -0.3492859071225855 0.7466321600875077
Ni 8.753585574655025 2.5499423861247985 9.987508170987969 -0.12347440110727768 -0.4835717970230704 0.38374768834488104
Ni 2.5177815719564305 5.141301802685383 7.09801873306436 -0.40079204542167746 0.6787879467500246 -0.3782229018719099
Ni 0.8895904437127516 8.905333073109722 9.130647526502376 -0.5104377681759791 0.7774411750485642 -0.8227990343580733
Ni 1.616580021661166 1.0353803872855252 11.094849287447397 -0.2657343103521746 1.1467845150426572 -0.05366020852761726
Ni 4.138172976786534 6.933595663156398 1.184616910209638 1.0300584884028066 -0.18652813503465296 0.7686207485434569
Ni 5.596027038905117 8.127520515547891 7.769305853470937 0.6336434890029023 0.6441191917232456 1.3193183926807472
Ni 5.389323025043075 2.881133434061803 4.561292771813944 -0.8243650932936125 -0.12964684846657673 0.9887064078185811
Ni 0.6457626503130756 7.598745549188803 6.771631842864584 1.1162490654579613 0.814229033300875 -0.22907654991982482
Ni 4.803186741991476 4.547669799401542 7.099452539113628 0.5638357241811451 -0.5837147224932592 -0.668287561439333
Ni 1.312331822839817 7.390898120376079 11.434026090595511 -1.8236351355606528 1.080214026211275 -0.4267542738133941
Ni 4.807751327072371 0.19298757181478263 10.418700838556061 -0.7228186026076777 0.17024302472138425 -3.105812143304412
Ni 8.352691588335619 7.278716409103686 4.789738911710408 0.6771707228615758 0.6584806026512402 -1.1952336116829803
Ni 7.562564633249389 6.513054904073302 6.879214485113126 -0.9690318122077891 -0.7193926076452642 0.5833773937584986
Ni 2.4118614187472924 5.5050620272731425 2.2289467881647016 -0.5308245593624471 -1.4852152246182937 2.180611469348961
Ni 2.3272940860060345 5.342261517628528 11.439218646427095 0.839597851082967 -1.879838165114782 0.39710585481934196
Ni 1.144240750367844 3.296746619190772 3.682119201290772 -0.34016517576823996 0.2943846270990156 -0.5417111243679639
Ni 1.4678181066888043 1.3000537242027401 1.880792362709376 0.4213022495598873 0.22618534441495886 2.140759113238713
Ni 1.1762200700995955 3.330422911904884 7.965238172519816 -0.40181251626639186 0.2190469335979647 0.7508238295713521
Ni 3.39463564357965 2.561576179511889 6.912432504374782 1.5034644006364688 0.7518031627654859 1.1249010847060048
Ni 4.393998459918716 6.966836369222632 6.067512378874159 -0.9208647655842591 -0.3809675544965826 -1.4674067356819631
Ni 0.8744438255049575 0.38720658338200525 -0.17929290909991707 -0.928804075035994 -1.1689497382857867 0.8028007368592754
P 0.4203837663954229 5.798166467686264 7.851480182065412 -0.07599306769686268 -0.7137711476934288 2.051697642393666
P 8.915750853771483 1.5516685364054288 8.094138243821098 -1.6136641961220275 -0.14319861900908243 -0.38662912365773416
P 1.9829719155798573 3.271473518891985 10.485998975653299 0.12543255327491298 0.565009175663956 -0.4114847492488333
P 4.189363482634097 6.069355454877996 3.6292308149886665 -0.46172024836561776 1.8407003185730557 0.2158965608944411
P 6.930709901614203 4.292688265399626 10.231201658504549 0.7317297890543785 0.21363013345776755 -0.40004668261522075
P 6.5864240300753485 7.942060425491761 10.036252131829945 -0.034249922321805536 -0.451247630969068 -0.162866529751655
P 2.434593596933455 8.631548715474379 5.4421533331254635 0.6353136776164735 -0.07449719987762653 1.1014616227361418
P 6.755876310821943 4.038514381640651 1.3181260327287854 0.21870471976719752 0.3164369789133647 1.4563810739954208
Ni 5.4142331364686305 2.6132476456164837 0.3852736676320441 -0.3066919837114589 -0.8488059999447962 -0.8346207095833497
Ni 1.5549263615426872 0.8442141121421849 7.020784683034575 -0.34723442391019554 1.2186602181370367 -1.4790448341415237
Ni 6.758916342635262 0.9370467015269386 9.142003633401442 1.3624057107885246 -0.7344425599998512 -0.2289791051100121
Ni 2.6652639511506493 1.7263206327610727 9.135296506496296 1.1769327564912635 -0.3990002436285774 -0.46040615753988456
Ni 6.558047374910426 2.1655280946501314 2.470289922727104 -0.41482126982123396 0.04057612165014947 -0.42192368519397017
Ni 4.5324151920039615 6.771194441272339 10.335145337298938 -0.6115093761080241 0.6560838202842895 1.0313826065308689
Ni 8.561092575180021 7.433004829671007 0.13269421249874108 -0.4713546861315882 -0.3854549008439749 0.2050508764291888
Ni 7.835260024265033 4.085548664889705 8.114233307843229 -0.6894891352176126 0.4556886974595572 -0.19505776977221892
Ni 3.2095566918404126 8.58073934794371 12.211142616992916 0.7720182042607802 -0.7140485697245316 0.4239402014033667
Ni 0.29839954060139606 4.829948096670516 10.004402580620374 -0.07877680108958691 0.7458898826048445 0.3420269115673271
Ni 8.525238349226516 2.8037351315668797 6.116348901878812 0.3871577424676945 -0.590884243658505 -0.8509258745012764
Ni 4.052162763274179 2.798970902605708 11.369901383722505 -1.3723941894598042 -0.7442454050228859 -1.0339737642968128
Ni 0.9972937797616429 3.197251369037843 12.545059711367895 0.5905703119625119 1.2595394728499016 -1.0106116925321047
Ni 3.0930281888110644 8.368182138500801 7.869861938605888 0.39599513825366645 0.10880111536581906 -0.19597333960795282
Ni 5.8203541625625785 8.105468941499039 3.4209995254425003 -1.0774333781423444 0.41641175423680543 0.012514587527242962
Ni 2.891759933325674 8.86545874538517 3.222954611151411 0.9954365274535629 0.015602225313631196 0.11842912537388636
Ni 3.6878217564892495 4.48225012972328 9.443260803907359 -0.3483276569743743 -0.29380998554246823 -0.13625972579740403
Ni 7.496119520004246 6.263164289018467 11.320705501733352 0.4287417365570681 -0.5496182950301824 -0.813768805835005
Ni 7.96792338270955 9.179716362385896 2.525396171044658 -0.2678359300762097 -1.8363093885942119 -1.19395783029435
Ni 4.7284110341056556 0.12565313583022064 1.1627922042065557 0.4633356724818537 1.5377310351288227 0.21107522824639777
Ni 6.576051623022741 5.812286734854994 0.10375129469157642 -1.4042095341981882 1.5429622016207747 1.839795033149967
Ni 8.405860383542295 8.913754414968706 11.212870582217914 -0.6427590781509253 -0.48383224977330874 -0.714911174835143
Ni 0.4534956114116586 5.159269751910375 5.8305922637320915 -0.6627907999908199 -0.6444197536827999 -1.538449401352086
Ni 7.43054558005486 6.56214914917795 2.6081149829489814 1.1136201124755467 -0.9305570531713586 -0.9674089318923856
P 8.540819646610005 1.8979871456343826 3.3108541817489394 0.8956964938487477 1.263112792023457 0.8488011148487897
P 1.9496223128516545 3.5367911610591865 1.2479512088111817 0.46434405914170995 -0.6150582698015472 -0.007905113779689612
P 4.646538893748146 1.2915144109599541 8.256892472384376 0.30292223225638154 -1.9301001465941274 -0.9655374259012854
P 8.462522946653833 1.8359523471990098 12.001847770048181 -0.35945924811116153 -0.6243227258226087 0.8957000933931735
P 6.431881517296765 7.764023457893227 1.1056514032545353 1.0084319112719664 0.2186126742740235 0.6038366900541149
P 1.6979984259271352 3.292599471314095 5.838295795094261 -0.2694868354160714 0.4092054662963533 -0.18234649285313756
P 6.604664220955264 4.156476690719265 6.033072902054078 1.2129073748136594 0.007621778211315905 -0.5031232367924368
P 2.7263459037937876 8.493059385614488 10.036636900035571 0.32439120076343486 -0.09704243216799417 0.7685556996334765
