# total energy = -340859.1626600629 ev
CRYSTAL
PRIMVEC
9.40322431668504 0.00000000000000 0.00000000000000

0.00000000000000 9.40322431668504 0.00000000000000

0.00000000000000 0.00000000000000 13.76256927995107

PRIMCOORD
 96 1
Ni 8.528621148123086 1.1967577800202354 9.914320738149376 -1.8681632998800146 -2.3320149927663385 0.9236137890843061
Ni 3.7011937757696947 4.50553619270011 8.109883338807412 -0.19688916655400288 -1.2437865808910193 0.19085298766225198
Ni 6.083143369726573 0.4720051952265146 13.73893935751258 1.4065890901739582 1.7953157197906693 -0.0604962576128442
Ni 8.127677060449674 2.4668983237123046 13.625906957590278 -1.1880021269315475 -0.5014769594382654 -0.41531517873851703
Ni 2.002980841842292 5.164749243342587 12.195535469130393 -1.3229788722514697 0.7065833716957379 1.2633519046174564
Ni 5.9681701442760975 5.152374599955588 8.82856426156847 1.992852290120684 -1.5938222216954356 0.20894095551221437
Ni 8.242405802064235 0.1918257789473863 1.2762131460471777 -1.3867885105082631 1.379325883582631 0.5948769097576658
Ni 7.310452226011518 8.16986932859364 10.589458149411822 0.6182220122415094 -0.1756657383988523 1.0191575252195866
Ni 6.928822361375258 2.9839628302200922 9.819428098529396 0.3971462211389741 0.34453553692179373 0.5720645398488405
Ni 6.563018123502159 7.601237539157055 8.423573026088247 1.9639926855765142 0.1964119698072682 -0.7689184822895339
Ni 2.9937703933300006 5.24373632879151 3.2332676993131497 1.0304863199688445 0.172849866216612 0.5054621693382585
Ni 4.031848760618023 7.2368061720548535 12.367402904165237 -1.5311600667795242 0.6289311711288974 1.0728388167931266
Ni 7.0049602698133455 5.424400480307007 1.4445741186815586 -3.0232655907597477 -1.850146294477304 -3.003890528667246
Ni 6.265471891971172 6.791300203674007 12.569946478350086 1.8425939360513426 1.0100038837447767 0.5113487100260226
Ni 2.5320062498609173 3.17777268952816 4.827854278743794 -0.2325151432877286 -1.0106212056138013 0.06480439806989484
Ni 3.8355658532774473 4.844860950498903 5.701350829307187 0.4300100617465304 0.7325142326288869 0.6459526453875585
Ni 6.105090495612024 3.2525847433176405 7.171812965244631 0.42888854654757746 0.3561810915805221 -0.12585575685526068
Ni 8.779894112095246 8.033099428849047 13.39868744178221 -2.6871519593530624 0.9099329491631039 -0.4763130585781281
Ni 9.366222769962173 6.449455381720415 7.512766361519586 0.056654001048618556 0.6413269736900891 0.09947572419983514
Ni 9.256524753432751 6.134259297881377 10.954964305069597 -0.8600908288299962 0.06785321219854766 1.6750680531508055
Ni 0.23119049749677076 2.004513567428979 2.5836196085895593 -0.2462489479340533 -1.5588315645528639 -0.581144904883554
Ni 7.693248090480593 2.4687037428082794 3.6959928523218615 -1.208767127393041 -0.06892124845174583 -0.26760813033611974
Ni 4.402044304313104 6.58858549080402 8.326382238410682 -1.967025044644935 2.0772783190762483 -1.5919103493847035
Ni 1.3053180063902146 8.714400653743846 8.765462983519237 -0.9120741638758226 0.5684896780133887 -1.4427316015327862
P 2.520901041775777 1.519880782077541 0.6149351473136796 0.4771941756315008 0.5891418070461014 -0.24386707796543808
P 4.947741629296126 2.58071495255442 9.091292233575615 -1.236678251981012 0.935478401732376 -0.7919236849354555
P 3.189122381449214 5.295059127884395 10.530250746610733 1.3765634903461454 0.09065375503283096 -0.767107397222724
P 8.041825621146259 2.611087367554423 5.818442601228096 0.14116641907040203 1.9966300119955616 0.7916665746193269
P 2.061835623726198 6.605689956093495 8.175172747188068 0.5177445862500374 -0.44732824131000376 -0.10168224493285068
P 0.9793270208731563 6.927976071174021 13.335049239616412 2.871029029918114 -1.7667350799394992 0.18271004684014341
P 9.04727479956431 4.764933542604159 1.8896005226150367 0.7667564416412086 -0.42987559305119516 0.1020933643283403
P 5.891298784330271 7.973896727660185 0.6034519296053193 -0.012382689935068997 -2.2627325043204323 1.3439565029444016
Ni 8.344778706740716 3.9395090964384476 8.092431894535428 -0.3524362798261092 0.9258107967356249 1.3270538136517922
Ni 7.702087121471306 7.355098735739076 2.020688994141984 0.46007911321776895 2.025530239969679 0.3614284560223905
Ni 3.76770278236258 1.3200152462183892 10.633153993146657 -0.4921101735113848 0.6874993584810934 -0.6589770826716844
Ni 8.231554481039467 1.614966187798912 7.689244197506289 0.6196895979259714 0.9889015545485227 -1.579764458050789
Ni 4.413309367214033 1.704550707212233 6.665873413593346 -1.278432710209979 -0.3874253943067844 0.709156531739553
Ni 4.359005745967899 1.864461942348471 12.694346436319913 -0.292310003958174 0.7924229931693771 2.299491823327653
Ni 6.478370296929397 1.2128090841703918 5.441733443950817 -0.7033502094704209 0.15211160522799608 0.5182670344124106
Ni 1.4215606671425474 1.0989830521038175 10.355659197450347 1.164811290637381 -0.7251158832822867 1.4833977117935808
Ni 2.5075484630451252 8.684686464455918 13.470348475055744 -1.5768665676777036 1.2933260823820436 -1.7710427061759175
Ni 5.559468396424667 3.6710846510545214 3.004093253140218 0.6762345842005515 0.7234917174153024 -1.0313011025606562
Ni 5.127540684161469 7.111320141660106 2.797806255298558 -0.2341223398738484 0.11038517202348731 0.15979868945960865
Ni 4.1628826934431125 9.326484743401798 1.2222329957224047 -1.2945661254367316 -1.0088975380544754 -0.273023130704104
Ni 0.6284127889296252 0.8564278175268599 13.471835124842586 -0.29860946381364056 0.32970592810812893 -0.3263478102691734
Ni 0.2659523376738638 1.3205230203391323 5.241860385512099 0.33986024293331146 1.4952641242138636 0.8958337907575604
Ni 8.479131977799552 4.793707409446267 5.997989649677958 1.2356624091219879 -0.4290600391284352 -1.013277412289726
Ni 5.954488452689409 8.267888540345972 5.822764323189087 -0.2379093177201064 -0.10286880904178411 -0.11108862584841511
Ni 5.587160892454081 0.5384399163461802 2.8229091033121825 -0.49225466950904895 -0.721803531079602 1.7009760312658189
Ni 6.7656388041275655 5.8842369627621585 6.6368061661481415 -2.141045791241196 1.061798756928881 -0.5407726717140945
Ni 4.583225633173802 2.2694118036410784 1.3478581938391347 -0.4917558754957595 0.50703671291423 -0.16849930255740012
Ni 2.297771928607025 5.049136598628954 0.9641586794996254 -0.22928943726157927 -0.04854037080254866 -0.6392922026482474
Ni 2.6764021646411162 7.363213718446506 6.251303113357548 0.25330868299431214 -2.466213979379972 0.18042433612976025
Ni 9.276675863446686 3.5857974052186004 11.196153251132777 -1.3470479973855316 -0.8098077643047278 2.2258384595075604
Ni 0.9073265311966789 3.378757209097838 0.28065992104894255 -1.2094993775733751 -0.18126431553255234 0.6608483315524684
Ni 2.743983138822237 9.469423158390974 5.6347402678901535 -0.16761355751833715 1.316997200746738 -1.2701496442655804
P 8.12905933444503 7.628168374005354 5.1478065135137925 -0.4024205821640359 -0.9594292561210185 0.5008015306377955
P 0.8380379314539481 9.390106960086014 3.806947139638899 0.8433154091438703 -1.0865415110911996 -1.5907381834534733
P 6.585143910652317 3.4906743865993968 12.251632285280706 -0.19470732841133565 -1.4603153760528202 1.1092034714650898
P 4.394183208666044 4.5523736537264305 1.3445369749604967 -0.8623572562666696 -0.20604049403596775 1.8167294095797548
P 1.4764660947540074 5.141034311258992 5.537782680179154 0.5818846112630559 -0.20434305172888678 -0.5771823206913802
P 4.205667364727946 8.826900831161813 4.188528107507975 1.5996640251881935 -1.180928765024534 0.17772647758262292
P 0.42419732143610767 2.615995850721606 9.349174724019447 0.300701827566295 2.053044129119232 -1.9935449453123344
P 8.074868551892393 5.9664587574247046 9.224830245073925 -0.9183273438743862 -0.22597142863193986 -0.5147793329741264
Ni 0.54034783058875 8.578185544242285 6.14253789669438 -1.1536776426180648 -0.6626856418715233 0.48077623655580426
Ni 5.034072633046909 6.496424487889151 10.53440697182126 0.9742046146579803 -0.609261460614112 -0.3336397159448964
Ni 2.14575940201568 3.0636269478300067 2.4153169359468194 1.383376399502921 0.902139164150298 -0.9016465407845955
Ni 4.923960874641325 4.020517875145885 10.831404055043889 -0.47831157706539557 -0.5649945203759367 0.38022013480759675
Ni 5.010197846147525 8.879022904333645 10.412594781222332 -0.6749942840355472 -1.9901413189474242 -0.633357068110735
Ni 1.219833292840671 4.132811181625772 7.553751255643118 0.7158964215665478 0.33255162508704017 -1.592851116031418
Ni 6.243299088698724 0.9445162839288805 8.80270445398596 -0.4464013586203602 -1.6895256233370322 -0.48989851057204664
Ni 0.2761303878274251 8.622578166909472 11.15863626618943 0.39984896478211784 -0.08560590819627838 0.47594127706100614
Ni 1.3202221171564696 4.498803483988035 9.808390593660357 1.3070030656485039 1.8087168236879236 -0.10845221666683257
Ni 1.729064913374774 7.061972019703444 10.30297575177836 2.164889173517697 -1.5813693406440636 -0.4576676755627989
Ni 7.212733917441848 5.075277562622764 11.113165093676887 -0.39639340213334956 1.177075966937347 -0.4147117408265632
Ni 0.06675725171858207 3.7920383272604155 4.262171340497301 1.711840999004781 -0.5538770703065364 -1.344567139945207
Ni 4.875496655783736 5.128546829178496 13.248771834245042 -0.15780557028897982 -0.9549655639227103 -1.650971417212918
Ni 2.6641873760699077 2.51040704328042 8.913286373614453 -0.15201570308008014 0.16312621117094486 -1.147356328385727
Ni 2.4089932674986767 7.754801597784004 3.5972195019679822 0.22444933556045862 0.37703736620424094 -0.00871089751043661
Ni 7.481017314458901 5.307123464864271 3.4952518762656504 1.3623602022625698 0.042872116773177774 3.259144508313387
Ni 0.7698852412257684 8.497355426799553 1.7738853827548091 0.6347382647289778 -0.49146251262505675 0.28037417175253654
Ni 0.6041346037009852 6.118659348505214 3.7447814824232593 -0.690380022462998 0.19932065881363092 -0.5731338616536193
Ni 6.05827184103462 1.1078596959923632 11.523936491231568 2.6004772435726373 1.0084928464168892 -0.8081074937841696
Ni 3.00309839199254 1.0827718931378718 3.3850000098156405 -0.21474959177419142 -0.21099321005555274 -0.37837793939253545
Ni 8.302708680514705 5.530356013502064 13.342824765920902 1.4831567994273682 -0.45043593370105006 -0.6039863282581017
Ni 7.541724531561074 9.249387706068973 3.8352010081684687 1.7492302382865166 -0.5505320650937036 -0.132872554492726
Ni 2.320941473672043 2.796913889297474 12.32733952603861 -0.3842302844082544 -0.4914437435719794 -0.7911731799226761
Ni 2.912996695234017 7.165520327437201 1.1984870329980994 0.5783969098247715 -0.5804933873424841 1.3264143802955801
P 4.798277376532955 8.691607237657156 8.20039971776454 -0.39277945952984616 1.1233111145110655 -0.8158909943843304
P 8.393769506167965 8.998566096870807 8.002315152617774 0.5024879172012829 -1.6517520041326845 0.5251915294463858
P 5.0090600559880825 2.6554329740993183 4.719253618508644 -1.700768800351019 -0.7109467908707562 1.5366704550747923
P 5.561838008988134 5.29749456301907 4.448048639652427 -0.6531653610859138 1.4716408283679687 0.6953836463251766
P 8.249213736571976 0.5988932463879815 11.951691052480216 -0.650030415001358 0.10095719384136806 1.7721752771184642
P 6.806712088561006 1.8627975716193685 1.8411974247164256 1.1759526519661812 1.1119715211285301 -1.899265420601458
P 2.7994151470033564 8.679627529697402 11.167732945530297 0.5921515404067027 1.4758530666771035 0.5749601162290807
P 2.211525553876367 1.2299323559087834 7.227620162081633 -0.7106436578080406 0.31918137442772126 0.58272047690079
