# total energy = -381174.3144147976 ev
CRYSTAL
PRIMVEC
9.19301420192508 0.00000000000000 0.00000000000000

0.00000000000000 9.19301420192508 0.00000000000000

0.00000000000000 0.00000000000000 13.45490552862789

PRIMCOORD
 96 1
Ni 8.387467050085352 4.446651729070791 3.2444619693664745 -1.7620024503505203 1.371884339702921 0.19714884797329274
Ni 2.5846618803985506 5.4760762554180005 7.606690572714971 0.7551047163348931 0.5174517375999668 -1.535010036653234
Ni 7.415039211182688 4.020573911380507 12.344713964509328 -1.2876858533771307 0.015678072856889127 -0.8536468729768654
Ni 3.4179994159083167 0.9205700463422314 11.183595833917268 -0.03444712593427616 -0.36879286680726164 -0.17287789124107
Ni 0.2332377994343608 5.350490489743819 5.761390641148467 0.4209060425627332 -0.48403588114368246 -0.38883872971454325
Ni 2.581858011096843 7.763914096427927 7.106665988175262 0.6146396942068898 0.6442071234513614 -0.23964558368492275
Ni 9.180318551481284 5.064891120576129 10.2169421271733 0.8611118138953427 0.04293459457999703 -1.3091113702407584
Ni 4.188116593425157 7.327135610320634 9.155726319451782 -1.2722299238333767 -1.5448650750704425 -0.9438206030494843
Ni 5.577475200984666 3.948298434495183 0.40331775337170345 -0.8262862215757253 1.0517776252474533 0.8644287940837178
Ni 4.896594611374954 7.13719874591874 3.4687016465958806 -0.5855893138081527 0.9535565993903254 0.7444945449192146
Ni 0.6264993146777437 5.871614880254934 12.34448505845814 1.6881007179650476 0.4672854011582211 1.2799596883774667
Ni 8.12466635589548 1.7654448145524655 12.385106229879304 -0.5094311812883355 -2.1593859843112813 1.5669336248347079
Ni 5.57479084086631 1.7681383676849256 12.37212201675887 0.5424253768261691 -0.1099182596893978 -0.6509932931352596
Ni 3.4316142697962793 7.148239555857595 0.10507982841389124 -2.274668850746702 1.163055741398855 -1.3171123861683638
Ni 8.925230796124634 0.421965782481584 1.5940291156658177 -0.44432030772161546 0.36463282189230106 -0.3939205151128248
Ni 5.088636676006654 2.006412100245435 1.4567489167499899 0.05664525929787018 -1.203433116774637 0.6280032599979894
Ni 6.843196961860032 8.012097898192504 4.459977922315891 -0.10910990485548952 0.9095267148636206 0.9582686601540142
Ni 3.861415258198668 6.180178398654312 11.412289526480041 2.7134954823435975 1.2005565665577904 -0.2823978870507846
Ni 8.479461542223667 2.1400969113452044 3.379454946373238 -0.09510227772248782 0.43334786787051177 0.4261960873170789
Ni 4.593114829775065 6.479953395570306 6.0292640405209035 0.8585484240435408 -0.04557434619568925 1.3822862517625354
Ni 5.353671272623788 8.413014436280253 12.362097954179914 0.5095733632931547 0.6138997307170717 -0.6450288480217085
Ni 2.8702520565521366 4.77950319073283 12.78669477729805 -0.4322278953334556 -0.34441572351447786 1.3080176229559473
Ni 3.713444503181346 0.35024924085378023 0.07474931698069981 -0.907823616129585 1.0241158976661267 1.1924557918275271
Ni 5.151572050562356 1.8196744047517188 6.738431534528496 -0.5645854578629761 -0.045322378085883235 -1.1444262992231256
P 0.15962014248985829 2.998485410288258 5.436306357102864 -0.08324460705295342 0.7793566469037223 -0.8580637710976383
Ni 2.5442769694398595 6.675534770632032 2.4318528420583156 0.13260104599889422 1.5699029918756768 0.9746530150493086
P 6.151569738762793 6.37983227896409 8.215605490014662 -1.509849478227206 -1.2590486492564121 0.8951177385271423
Ni 6.812087802132235 -0.018330870123293947 2.5500005400209838 -0.011588219058231656 0.8182492102038618 -0.6876597953183576
P 6.344852860298527 2.6927809192752106 10.043857896226786 0.0674426070236903 0.5775749281441085 1.7649517627868314
P 2.387940571587935 7.83425904035142 11.567074143551219 -0.0021669257443317517 0.35415094852437073 1.0789454439114967
P 7.806220347334346 6.04929745685625 11.801244114615722 -1.4299537330418277 1.1098549890061595 -0.05926907007396245
Ni 6.808456561561172 1.6718875100164763 8.291706180068644 0.46831975596000636 -0.5695114344096837 0.6027311156947619
Ni 0.1230521709871308 7.402555098029512 10.658922020660613 -0.8384534530658785 -0.3272592663398493 -0.5628021407103081
Ni 1.417268598379128 4.521896549511695 3.253046405936751 1.2913249927916146 0.22599122612628175 1.3965905842003496
Ni 6.028318998671017 3.810982382824349 3.259168034028578 1.3673334871074452 0.2936346363068685 -0.03913193300445519
Ni 7.459625329586889 2.789794797114288 1.188460912441465 0.49969981293318466 -0.4969962979590925 0.10566771194315995
Ni 1.8907272107612167 1.9196024680617514 9.376480925034377 -0.09912219751515831 0.4752635342676912 -1.4019053115450437
Ni 0.11199297502006829 7.941173794380462 5.909609607546595 0.44642012767343764 -0.8148646100023451 0.6378454428993917
Ni 1.70637969893453 8.667182890226508 9.69977624853535 1.4876066076686056 0.8297322711427968 -0.9064506470414583
Ni 0.5351069649632367 6.7248644843138745 8.292823131282274 -0.17674457328532786 0.19901521175807016 -0.4057519605301141
Ni 5.36883974589532 8.550900454825532 7.505307255272282 0.1851883331773069 0.03452065948468894 -1.5137056187485027
Ni 3.5890722153688865 4.329422413217109 9.243788959457836 0.82133684799025 1.2652336950212015 1.7525947838833753
Ni 5.391197156196148 -0.1439580043609436 9.87681531414939 0.8006011581047954 2.0793143756696706 0.5393112566772196
Ni 8.152199433136836 7.004589517469134 2.688383900629287 1.2874727089250602 0.12904032523082937 0.5141339860806436
Ni 3.165733915881581 1.3481371323173574 5.397717761100086 1.109455696685212 -0.14402445734448743 0.6094280680989633
Ni 8.009091782580509 5.023412240939066 7.6036495236493815 0.21513448591743595 -0.09021821015730914 0.4092982831204757
Ni 4.703412612994363 3.9675026409583527 11.714392194567159 1.7640091963679039 0.07680116542045483 -2.8023574355833287
Ni 1.8713851090864873 3.7106865989501583 10.976996631451948 0.7526161455850845 0.005499075441358271 -0.9501362608548669
Ni 0.5022309079246591 3.477845937725088 12.805598372200022 0.15486474249310103 0.25590755406974 0.8140071470980561
Ni 2.649821964367411 6.3942469250790985 4.979875964745538 -1.3214948315067758 -0.4729706244684564 0.5080348151614412
Ni 2.9545611888995427 2.943621502115832 7.528773343074047 -0.46208483079388807 -0.22860012450403858 -1.1336991426136087
Ni 6.094039856500218 6.912346813950012 10.544999431980125 0.3834139591545462 -0.3211858064522598 0.9607770283981647
Ni 2.358945805104049 3.7571297062033584 5.238949811017665 0.3944823011535658 -0.14358377026264305 0.4734725038055395
Ni 5.727541963217691 6.219827868484687 13.058321684329133 0.16243098487613314 -1.2230349501659645 -0.9830042152274812
Ni 5.23475963518908 7.974829419015055 1.3187433890213596 0.13373978758902774 0.3124180875619587 -0.010229133927175931
Ni 6.5237121427051505 5.854920366642144 4.872196351943048 0.503377776005404 -2.74716716356443 -1.1395473738642696
P 0.3582048752593462 3.4132282415883615 1.6182352411029517 -0.06363506035214202 -1.2067333847924637 0.3568670619039531
Ni 7.285877363022068 3.0810110978994967 6.294110180348905 1.031629175324036 -0.7265536441700777 -1.8123857878990788
P 0.9359775379804663 4.385573343364089 8.119887827164243 -0.9387043648688413 -0.18059531448998573 0.8669600451460037
Ni 3.5298416254970797 0.5891867090325955 8.227432302659405 -1.1812519526919076 -1.5337674224953843 -0.9001468163106175
P 3.5209152088021356 2.672326462893902 12.834768725253294 -0.6628964723307488 -1.7226087790442461 0.8397935120335408
P 0.7261377980435016 6.803372824761683 4.160458491191987 -0.7824964780842846 -0.09034136599873473 -1.6541562426988026
P 4.993305119748601 4.142004434679699 5.570613535257471 -0.09982333734724098 -0.13324613578206085 -1.0162439511172177
Ni 1.082155655247516 1.4377874058591642 11.31431038216005 0.009741138547163868 -0.0013248894590106217 1.370634269345904
Ni 8.67029932200775 0.696763360077122 9.64072216453434 0.8275051815844909 -0.3349769466990811 -1.1526440591472278
Ni 6.904137452355176 4.824604117926851 9.833948289382631 -0.8537713143698715 -0.9337645043650629 0.06867570809984301
Ni 7.4322485335853 0.2341028620615433 6.4659699018167744 0.3820145077038582 1.7382408291545484 -0.25860926927161915
Ni 4.1728286109702735 9.690999677970302 3.2732020893596814 -0.01855050930867773 -1.7014632553148827 -0.677421148309485
Ni 6.516035975928345 1.4318854908044227 4.38041973965741 -0.8854115669829719 0.16529853623191532 0.6667238164966388
Ni 1.3829878487854654 1.4274820370486263 0.2587217538319451 1.1274778442942455 0.9116856701881525 1.1238189073854195
Ni 7.610409146920023 7.480465892560564 0.15981043788181026 0.5701909769752115 1.254243514558285 0.2025751611951866
Ni 1.5046941625077765 5.134123709793043 1.0918561237300135 -1.002002867817171 1.649843731366378 -1.3234339575110174
Ni 8.6787752810116 2.858503384527277 10.524991756084269 -0.8796109011407948 0.7213857268158931 -1.6261648996921994
Ni 8.872655948464093 9.102086001456593 3.9880876381399375 0.2700673905098897 -0.16862605794325153 -0.8750631338691123
Ni 7.2316477728228135 7.199922681150052 6.606452946846422 0.1648874168364257 -1.4167909704076245 0.0870495826213404
Ni 7.536386997354946 7.863961668921311 8.861387151775459 0.9100036545000393 1.1267980446184012 0.47583277650759986
Ni 4.324972994390793 2.220002589936815 9.335403780113658 2.0417040215160642 0.5774492011995216 1.1463888222661351
Ni 4.239955999957381 2.654225418123207 3.6984709218088176 -1.3050760238291201 0.7346801299319541 0.8777527648861334
Ni 2.201184490066011 6.11269248211715 10.120497296907258 -2.398280805873109 -0.07701302432094478 -1.621519687610704
Ni 6.309459755998286 5.814664157880908 1.9623168887943858 -0.28473579115534187 -0.6231539023254881 0.4593679460833572
Ni 7.698937872741146 8.783566448782627 11.37998435561732 -2.253284728643971 0.0712061878311806 0.4209986022765395
Ni 5.826486374018599 4.042931321681335 7.635658679457956 -2.0507512193199973 1.116760200766425 1.425883419627196
Ni 3.8477820182824964 5.0787266068025865 3.5517586904223277 1.179733459164852 -1.6715091321549538 -0.21763282685925742
Ni 1.6253800516645485 1.8753840702217093 3.453497320569343 0.6876669944072092 0.09607621159998292 -0.27438324427642424
Ni 0.9689988446418866 1.0293601752484804 5.846357993305717 -0.5716207674432027 -0.09509970661932654 0.522030872330217
Ni 3.010114573129766 3.485595648614726 1.4695989118645034 1.0565112832776966 -1.1563677878557181 0.3649141005781457
Ni 2.178431780158713 8.656096115217133 4.299717026742987 -0.3717650620617081 -0.4586241259387972 -0.24770367810270885
Ni 0.8197530185683458 7.615575620846447 1.109187713220207 0.26636088819257997 -0.5907358910060987 -0.3334977910503934
P 2.0155959213352896 0.08757908746418479 2.2163998477094733 -0.06023117687691563 -0.33628692375975633 -1.3691695118749196
Ni 9.214341896680036 2.4791812365697266 7.734189404624187 0.012932391790951922 -0.23627949542616725 0.07531789600670899
P 0.8394803075340311 8.893358616226207 7.686949263048173 -0.7585268546425646 1.1105371026748487 0.7845834425203004
Ni 9.733011752425393 8.821956475680759 12.510505377367174 0.3365977701319558 -1.3892559982121493 0.5175468684169344
P 4.202420923370917 5.690962960098037 1.2709167331455136 0.6390757157620671 -1.9139384492326006 1.5505832085011424
P 6.51939142607629 0.48442220100247 0.4837189354235172 0.38076957955316354 0.1347926543335743 -0.9232209245212617
P 5.0910636317300995 9.096533420937801 5.240873908869624 -0.3975912790961927 0.1406766239181771 0.6207067263365762
Ni 8.342347736863122 5.230071197996062 0.7935823460171958 -0.4840603066237147 0.1282201433223792 0.2031811702103017
