# total energy = -340874.66013828735 ev
CRYSTAL
PRIMVEC
9.22103977741593 0.00000000000000 0.00000000000000

0.00000000000000 9.22103977741593 0.00000000000000

0.00000000000000 0.00000000000000 13.49592379123271

PRIMCOORD
 96 1
Ni 2.7825409875773777 3.3779250891345627 11.251362531892294 0.6619693325307889 1.0377535430542193 -1.22589298844005
Ni 7.971238557804597 3.711883489675025 5.919689972353425 -0.1955010279572246 -1.222326097024398 0.501172283713653
Ni 1.3861897008268809 4.042218021551258 2.4289150311235943 -0.21571864055568007 0.14109108574777637 0.7561886934276912
Ni 1.6908620787780482 7.251388860242907 12.570629613845098 -0.8942438205626212 0.9867171453026942 -0.19557636127985029
Ni 1.7652113231538313 7.999879107603826 1.6589729566368139 -0.06805093003165055 2.9266764440790887 0.1290799202195132
Ni 8.766912866119364 6.836884676542025 9.974243901026837 0.21070550361180485 -1.07764420860157 0.08542387409245934
Ni 7.030664829159796 6.072266830469305 0.8541504546788343 -0.7084895875795153 -0.6712474153986053 0.015862935174185584
Ni 3.4274512942123665 1.322490757487192 1.0368349300353652 -1.3065407813001046 -0.30628703496355636 -0.3234987708561526
Ni 3.6179210935210833 4.551413063554871 2.574266282406674 -0.32586058622010977 -0.4186840952107499 0.6278816468184606
Ni 5.4812996070041455 4.186103127496901 6.482942438421109 1.750542529340037 -0.7120955597632188 0.43732382179912427
Ni 5.452889583201369 6.5115756113884515 7.105604220086497 -0.3719149573760111 -1.6339589418153213 -0.9126238657317057
Ni 3.037115455979539 6.850227521216681 3.36721946185932 -1.3085452133246431 0.9043798805553587 1.7503378695283984
Ni 5.84991989637117 7.720232631827517 8.825011871953235 0.7049995721483858 2.4597383989579575 1.4615677604026829
Ni 8.008334801153694 3.6375065821796677 10.89285680114561 -0.3909961423771782 1.3976136261482253 0.5722743418668015
Ni 6.6357645761972135 8.265629476313993 3.6706755846532046 -1.9916497851721504 -2.3152835389442705 -0.6715371787248822
Ni 6.923525567048642 6.189595341623649 5.310794281092181 1.0771942655483449 0.1970945976965896 -1.7216489862341382
Ni 5.045697684107952 0.7636496368876197 12.542801437657367 0.3569179697465466 -0.25128239659290275 1.2442030996031475
Ni 4.998679601871549 6.447922773248053 2.531713949773544 3.0178300215664735 0.16357461156227313 -0.8228607408339442
Ni 8.026260502637824 8.756013597007103 5.222355287813236 3.8730516952296266 -1.1986835179047939 1.5112936668729005
Ni 0.6778515494240313 6.170498568077543 0.9194723010335472 -2.418257763215667 -1.0014598508295076 1.1555802589574165
Ni 6.509371782862368 0.9045286838395258 8.603867361452595 0.8380112233221375 -0.14740211556746874 0.042009511662566355
Ni 6.17572689767708 8.731476409944722 6.497922939774562 -0.5457385003598021 0.25178916102599214 0.5772823366043542
Ni 2.8487757168780417 1.9619514295660496 9.243749435052967 -0.7682147713542898 1.6011262115560168 -1.1181025737269326
Ni 1.5511448828482615 7.153074133275947 7.358221061726786 -0.9370686290376313 1.4638082196974274 0.702220723851668
P 4.956096839806887 6.989160928758531 4.937740515761386 -0.49002089508252383 0.9579197614550277 -0.8827610167340023
P 1.6005973196072005 7.29874812095406 10.449893722130703 0.9748823574512954 -0.5919077998270129 -0.9395625991040786
P 4.9619060949174845 2.581669855308735 4.985623531536478 -0.4323037428767135 -0.20005110922175223 0.7177581573656348
P 5.198822271991403 6.737094583197769 10.70205135598606 -0.6933056807502254 -1.0359013203368288 -1.01256984469974
P 1.593727644912923 5.468528466800691 4.358508909723619 -0.5475542134123023 -0.11450562194976407 -0.48160464599437053
P 5.422331057111657 4.343220425638904 1.521274246331963 0.8306372994555694 0.14107103114311834 -1.050117721046527
P 3.471407991215884 0.24093193993211662 3.0206439124810323 -1.1535904822208973 0.2024337505213159 -0.7141930657221958
P 4.379542101639923 3.7380528007922855 9.42375796464268 -0.48390552621340527 -0.24212207024987334 -0.4513720723620743
Ni 5.565164964513478 4.247026537839305 11.225369342636323 -1.0645385244575472 -0.5498044428990595 -0.9652489481265892
Ni 3.646856716595771 7.941611356740553 6.575740217240973 -0.10401989192709182 1.8058107057847221 -0.22720530103904096
Ni 0.9232842789108817 4.950186153257851 11.248313134011225 -1.0797707680262696 0.7756336895261803 -0.7584494644374099
Ni 2.05215164145789 5.114016368416544 8.893760256719215 -1.10224606631065 -0.7763934505103403 0.1597251559091959
Ni 8.811644130470961 4.572261834674014 8.757599615862693 -0.21713197596343897 0.3595042424164841 -0.017701788155137257
Ni 1.9894116862634428 9.179831030964657 9.418561908682646 0.4865061970610461 -2.025657252465847 0.7584461220033002
Ni 0.5397295933896942 0.44400597862285707 7.781290669351849 -1.2057100857342717 -0.6373785305653022 -1.2334643730294048
Ni 8.190275138593679 7.8346104102272704 13.239272110762855 0.10532112723701863 0.5540290225033685 0.3548819131531243
Ni 0.5213428399126618 7.370718337046456 3.9805283427966467 -0.08095144014340253 -1.0759426525294307 0.060597816187714995
Ni 3.6064501199376187 8.244900578713006 13.455489819667317 0.11764031092400384 -0.4140231993999708 -0.3084472758396688
Ni 4.241466250804876 8.610911313800191 10.657245401211613 -1.3431751446936868 0.47888107641562044 0.06936142131295797
Ni 0.7366412111432727 1.4617561224639324 1.3153490621171011 0.14967111410730352 0.7052695379803209 -0.1697696846293915
Ni 6.81450521280644 3.695368607289185 13.147567025166174 0.07213744139619835 1.3921747145208412 1.545955222810828
Ni 3.6509324162130468 4.973294079142226 5.220209551838258 -0.3893295533080327 0.024973125005569894 -1.9668625509251416
Ni 6.555606076710833 3.3740891365535974 9.137807063915394 -0.8421648404791948 -2.3651269448289587 -1.9709904570505863
Ni 8.526354378301502 1.5570371273175811 9.74126326376435 0.5083754863303116 0.2620314075792906 -0.06367234134798067
Ni 6.8350589106501225 8.788305678590135 11.01754554631468 -1.2403366746692057 0.35980814681014806 1.1949003967132776
Ni 8.10643744420392 7.373189575728424 7.41213648177704 0.3249984953301306 0.5992863516792711 0.37156117358101814
Ni 2.3074914561682736 4.97443748808463 13.132289606329289 0.4793305052482133 -1.2182064184290697 1.036071527366106
Ni 8.616111980280154 8.784866230723068 2.3976861354362 -1.0306182175610186 0.016529365113590887 -1.0570249896893216
Ni 4.93686175066291 1.862733040692996 7.192180563314108 -0.14139576147238875 0.3258438740495614 -1.269239473746485
Ni 5.888251759061252 4.293482136644364 4.0342418220740095 0.11344427056478527 0.3889176625815947 -0.37920377772794045
Ni 3.571373284317443 6.809488967123638 8.76186434679706 0.9496531505708611 2.5254228856399603 3.5056762775951817
Ni 2.3456204559814777 1.2165041253583002 11.69339520798552 0.44823455517435706 -2.2124227003222865 0.5447802502115907
P 6.629226858937828 0.8920267979999267 2.6397356653991166 1.6679203863624308 1.1131061489536056 -1.0556191104807302
P 2.845806542043736 6.244608065417015 1.2172971347860961 1.245006312230733 0.25367840762890503 0.19558227481712123
P 8.209150607183188 2.0587723480759994 7.447765657684716 -0.3974331562517736 0.0929867740413818 -0.20001974176318454
P 0.10216451110771328 2.508473240915213 3.2749749454309405 0.14293970892074093 -0.24615535977898248 0.8523831757730932
P 2.0673202520244494 2.8285631975091072 13.270960214235183 -0.7384755924186442 -0.9348117146826546 1.0663586083854213
P 4.363534376446278 0.3257765718743786 8.572813665522505 -0.8930618844393781 -0.9692593548375629 0.1321413327536563
P 7.569653050944899 6.239462725176201 2.932812585728735 -0.6803408930594411 2.661817851463648 -0.09425561345147637
P 8.645803728623205 5.415396835138373 12.776010756708333 0.17498028229605347 -0.36147910675466777 0.19324617048477685
Ni 1.3097196172837369 0.4796637397540929 3.5007207548207675 0.57091962761112 -0.4744456663520861 -0.2135601994517806
Ni 4.90195089376018 2.3891714272312385 2.639303198629772 0.636914189334374 -0.2765856512443817 0.12717756099047775
Ni 4.775880836820367 1.7414025982402417 10.40900117667203 1.5313122760866724 0.5045260306772343 0.34961012323122365
Ni 9.179932462403094 8.99862837671332 11.36992481817965 1.2264745719751329 -0.4105450110433833 -1.2102959053327413
Ni 1.1180510827934684 2.845428479409555 7.512560060559546 -0.5244137707400969 0.05650359151368333 0.7216009281504927
Ni 2.9448773942790605 2.2134737337751833 4.203656298970762 0.7706076970664987 0.11364198839788814 -1.2787561549876687
Ni 2.772490054132059 1.1223112032079063 6.233024595147283 -0.527053265245473 -0.43073357017611624 1.305009689367559
Ni 6.776366991953377 1.2579065943211267 4.796383818944832 -0.7686297474045214 2.3400448050493505 -0.007332271995355114
Ni 6.976592651431953 6.261122947802857 11.729968618374665 1.0722096678495598 0.3147135684643548 0.46329350639000855
Ni 4.566083737969093 0.09311221627902587 4.86131284900159 -0.04994625001113979 0.3912907907994616 -0.6652006949838931
Ni 0.37756562013335787 5.369236309608773 6.679456629356804 -0.2436143385246837 -0.4028995786829836 -1.0755585297171348
Ni 8.534266030499742 4.753621246602936 3.8577695612698744 1.680901372003131 -1.2772142644218454 0.2675181417254748
Ni 3.1932276607770107 5.787152278057149 11.18065744246843 0.5144057516847914 1.168372525626078 -1.940108422759749
Ni 7.244012028356434 3.3981837137027875 2.124392956122114 0.9207015005335176 -1.0497004310034501 0.29467747574908604
Ni 1.4272048861156674 3.5903409633055343 5.298445464514225 -0.13033333301064004 0.24534211984906779 -0.2705515292351599
Ni 9.186682263579216 3.729117613169796 0.6042999249959725 -0.07458256050258123 0.05892042848529208 -0.668795611424003
Ni 4.190556889748359 3.3322256155978667 -0.12449786964400837 0.9133208917987302 0.2556596997249919 0.12910537414080991
Ni 4.862927453080741 5.82930165124848 12.775443662757061 -0.39812555433310787 0.4315398681274955 2.0887752639722543
Ni 0.5103117099304282 1.4141663357563274 5.440206964980551 -1.961900578934176 1.2955287464603171 0.5334514554623329
Ni 5.159927925869977 8.938285891881975 1.6672460735974926 0.03936976004687413 -0.22406752674100763 -0.10234404688656568
Ni 6.699730929692787 5.552808771103637 9.417995736835358 -0.10794648067500766 0.9858098029970762 -0.40060564044248426
Ni 0.07439996009500288 2.2304496681539274 12.109407031703201 0.8400362241719662 -1.2218787250743344 0.7616252910622303
Ni 7.5310168939395 1.470884951923442 0.4078862433947309 0.07344973244971867 -0.7386218881885215 0.7609480624895476
Ni 3.3747161672639474 3.7120771315120447 7.325182998019233 -0.5440618839883276 -0.32994786891560596 0.5662762153018377
P 0.8696021511690365 3.2097333221229927 9.826611364482865 0.8854195374027718 -0.6635065951109219 0.5515162833838437
P 1.092720886303294 8.591943634812099 5.698856210896002 0.49632421159273227 -0.022326945631974453 0.7859774946543495
P 6.744194783888499 2.021639220567469 11.908587537257763 0.05508537100991803 -0.5943853148332279 -1.3494141836248632
P 0.908714113831113 0.07127402758311023 13.231120711528302 0.08711745974479836 -0.811541459166383 0.32604056344139976
P 8.031756242393245 8.652737950596489 9.264398109607189 0.4727435960593148 0.6458839969331521 -1.42021285160498
P 5.764984898238298 7.865113610077834 13.265885876001276 1.106818773282997 0.15598908590553137 0.07244520244460427
P 7.363489041797712 5.350471493497559 7.236919204497592 0.01476635967589715 -0.823948060360852 1.016062945454663
P 3.285382733118767 5.876052323328999 7.0538336139072335 -1.0630200309304918 -1.8124060996140532 -0.5864079530547062
