# total energy = -340875.67021369975 ev
CRYSTAL
PRIMVEC
9.20521934273979 0.00000000000000 0.00000000000000

0.00000000000000 9.20521934273979 0.00000000000000

0.00000000000000 0.00000000000000 13.47276898593121

PRIMCOORD
 96 1
Ni 8.680724076227092 8.745298687842444 2.0470253139476293 1.0980327995602508 0.5636045820069455 1.0209732382720869
Ni 9.122813926182747 5.637966535867867 9.473929516817893 -0.8934560345540032 0.18395163255672833 0.467443266892324
Ni 0.5678837708436957 4.6258434964210196 7.377944404324494 0.02394751195453295 -0.06743206550072903 0.9811910732781426
Ni 3.766379809651151 4.410542628128577 5.5608719058265645 0.19975029015188178 -0.6291736261570068 -0.04702521970960288
Ni 3.4908031670383486 7.015812928055691 2.4374794081805256 -0.18046650222160532 0.020522288323067885 1.1307637141343687
Ni 1.6746226542660814 4.366725785464418 13.119054499093126 -0.3226683045350572 0.14433556082700305 -0.5452415061187255
Ni 4.718549257444287 4.915320019794931 8.03540140014973 0.04118135933431617 0.3648536796538555 0.6142311459145615
Ni 7.411830656680651 3.0594281920535082 7.484608038988867 1.5067070759434824 0.3136108223184792 -0.7128607200640175
Ni 2.2723359374318797 -0.19673854408398053 1.4085780159765429 -0.13363591502131178 0.2531341050896608 -0.9008433281570098
Ni 8.66435719676136 3.4220401807565692 12.180621999683966 1.4276621087941737 -1.016798538069107 1.5031306714461339
Ni 2.9590452783449663 2.624094972878418 3.9723383011326994 0.7224280520374784 -2.1880345012859093 1.3180919764728138
Ni 2.6378383649157273 1.2665460886894317 6.022529289910624 -0.9614344594765054 1.086016748935981 -0.24403265700902493
Ni 5.2485213336425325 8.110479166697816 4.538033070886996 -1.3293166415440398 0.8997788914482375 0.6628450502675229
Ni 3.1119071458409815 2.58144719303324 11.601750879385662 0.07410356398363366 0.36387048980497977 -0.5426760593843944
Ni -0.03968461983391969 3.0989277869845813 1.24301478723935 -0.18542127512371936 0.13538117984719264 -0.5370885379942878
Ni 7.304645086096309 4.539719467016424 11.010849458314711 -0.10577055606961139 0.8172112558576506 -2.4700076420944495
Ni 6.956835089620972 8.459126838106437 0.4807471673439198 0.613154367910615 0.26489355961843414 -1.6930035545833033
Ni 6.022717076379184 6.229006035224524 9.940357045412156 -0.6812238098850268 0.4066595599460481 -0.4643232332061036
Ni 4.272666857241228 3.7095559924734505 -0.2928778518118127 -0.07688652604540953 -0.26895950215769165 1.2462085600689505
Ni 8.873960034463654 0.9905183903433218 -0.08077395609442566 -0.6985707858039066 1.0430929529892616 -0.14199662828118123
Ni 1.0836752070998958 1.6154238905742309 2.912772483239043 -1.394736047490114 -0.46907694584100507 -0.5012699856337819
Ni 4.898723009853024 2.3702886733119892 6.4588318186513725 -0.04317653538747403 -0.135413832857341 0.5409390220886298
Ni 3.710531745692442 4.406492331747857 2.8983027994189183 -0.10937292870888907 2.299799584376059 -0.7589549433189188
Ni 0.9279873373564236 1.4313379200704786 10.060345234647196 -0.19761113232169195 1.2815108349146702 -0.7109354780168465
P 7.436132434964975 8.692552782702604 5.647784822503496 -0.1617542705240827 -0.29014950597174544 0.2924691552438576
P 6.041541749330489 1.2143524966924186 8.251074159291676 -0.5834964358348661 -0.19475309404760655 -1.6409297167061998
P 3.6164267913740176 1.5222854842557505 0.38642957246550724 1.0746447596536137 -1.2511180815554261 -1.0637268271895293
P 8.78535980113539 3.2379634154718637 9.523886240586465 -0.7789223875797812 0.2578641635754785 -0.9871125809688999
P 8.791131473477916 5.383147662206258 3.9134488328008312 -1.3670234120661942 1.6275977754839839 -2.060208508078155
P 7.997641591618559 7.596625429051029 9.408694890996864 -1.0875871787468947 -1.1085894920301744 -0.6996177390111822
P 3.878306068044747 6.270604420098333 4.533950556239612 -0.4767853702288563 0.2658142716604906 -0.6538757568893772
P 1.5528836323682857 8.843730095113001 3.4055922953632245 0.08094295550297029 -0.34039888904560084 -0.14509892135558883
Ni 1.2623669192420521 3.9390973346317444 3.4685099675501005 -1.4079592310486073 1.0898777745532842 -1.6509642181240665
Ni 6.138067676258299 5.336081377218474 3.007242884753637 -0.5343989069772667 -0.9589263483426711 0.7997380387735518
Ni 0.21059700135937803 1.6042579598701077 5.257694334422959 0.2864846555256485 -0.44472705624173087 0.16861088843459995
Ni 3.2412220630145345 8.501259125684978 9.928002720929054 0.29377656120137147 -0.327802540437829 -0.5471487504437673
Ni 7.352088785065022 5.440394919460124 8.135409661443056 -1.057983496947849 -0.45911494953228676 -1.4471616122796818
Ni 8.2968388263062 6.183992514084242 5.855885368457302 -1.3500109366685977 0.8461505645998202 1.6862587796603024
Ni 6.924147356784747 4.298726832363547 0.431825110196243 0.633880801824689 -0.8862952551395059 -0.22206489448868205
Ni 0.7427433502965473 6.8036602446773555 2.6320666925732006 0.11740402654348167 -0.6322023856810016 -0.5258343052367074
Ni 5.950603390364263 3.182925410789299 9.115876873108858 -2.740524975657564 2.664018972880025 0.2070596793291015
Ni 2.5958901817181275 6.7389475547762965 0.23229186160956522 -0.6388594859862029 1.135334878444819 -0.4890317916963771
Ni 5.464291668106377 7.351545677141243 12.050435348266655 -0.16890425130530265 0.5026450116044375 -0.1912841616623996
Ni 1.459782046925994 9.240751192614093 11.668495161130414 1.6707488569501612 -0.8187821998891963 1.8312725975012527
Ni 6.592317620575162 7.809606582143603 7.639638656092377 -0.5174386249738443 -0.6252023002140846 -1.1534716972548456
Ni 4.340076676323086 0.9356829004797927 2.457082842663213 -1.8877815883315747 0.8444340961293457 -0.5164901450176459
Ni 1.3323265839999536 4.036304447769039 10.458532633401553 0.11737702996028816 -0.41066688133322826 0.8228000627993379
Ni 2.650421899353103 8.031443155959481 5.0700045206622715 0.09384732226946418 0.37428757137324575 -0.5721601848864405
Ni 0.01138409439553907 7.931005010936658 4.580794995448359 1.7247294249316747 1.5025945964370058 1.2198714648363185
Ni 2.4506686460311995 2.8948112598343565 1.4036338928263494 -0.36447495615819814 0.46731342618267907 0.7353640433728561
Ni 6.351969351255582 0.12546253300234472 2.830210873605672 0.5511072208708832 1.1029340935166103 -0.10283049960468096
Ni 0.7906648001338051 6.915163062994784 11.231829946759209 1.6600535820198443 -0.7620996595954875 1.1614413457238837
Ni 8.750361558318344 3.9454765514313794 5.394657868102741 -1.028621498845964 -2.641517706453715 0.6271478539762296
Ni 3.40829678871926 6.465488112544325 6.760433456554115 -2.1707960259204357 0.47901014579431694 0.8998863635603791
Ni 3.9357466348986025 1.7362515957863645 9.57909822390902 0.9298808530399405 0.6471628636455757 -0.9690148429269247
Ni 2.7846524034978026 3.3743387356545367 7.753052477883982 0.9363703174190261 -0.16735644720220857 0.8196417196760143
P 4.533828126826285 7.342515357256046 8.416276543442223 0.060932573819314405 -1.730908042938561 0.8658321021891475
P 1.7879204902976937 3.3813162916922326 5.832253730119606 -1.0104443137163048 -0.40268360601743547 -0.6197867856254682
P 5.34793769935113 3.474390261477383 1.7103140500773726 0.1361388839488236 0.6466838671266282 0.31784491500448486
P 3.344707135541946 4.281043606574083 9.84899800793548 1.783920076359218 -0.6997403806319756 -0.3058327210349571
P 3.254302679280453 7.968221711544051 12.037986210027366 0.2748884660476169 0.37806246503464563 0.31154982602439246
P 1.2237049992442643 2.1355832032682764 12.276642560086092 -1.6329515835967296 0.22077394359140043 0.5655005134780777
P 2.4989316094951044 0.8056085527348548 8.356673670634205 -2.2163590592622153 0.2826614251248164 -0.4350625365687733
P 9.109954235173959 5.714176544358745 13.24001291841573 -0.5495141653521505 -0.1616642819134377 -0.7062568415942547
Ni 4.675478037522942 8.294022029277789 0.534635440167503 -2.199656144685237 1.4724574107319932 0.2129217945368333
Ni 0.9963637044382253 8.820661816180989 6.781113901665313 0.22002241013735657 0.2696025350583292 0.012544926544546137
Ni 8.161844288980593 0.3290994682402163 7.912637837371994 -0.18711203256258097 0.6991731952745959 0.08905170065303374
Ni 0.7308290352838956 2.0794681879572017 7.78429591185172 -0.5741062528692178 -0.13680402833664826 -0.7390198949578886
Ni 5.554613277396446 6.241368644404768 5.9665100088776395 1.7412608469277948 -0.7520767281418467 0.08915094523505937
Ni 2.231096556100906 6.0732813446048635 9.318750695687726 0.956326705936295 0.6359027173507242 -0.9342095623222815
Ni 7.687720276741055 6.333135473085232 1.3947278433982877 1.1389637334466578 0.32259991319096704 -0.05706666310600494
Ni 7.179187155703487 1.6885225350271909 10.008636757693964 2.620744992682738 -1.5131446040387102 1.878890713599848
Ni 5.6514245661147156 2.8822461358350755 11.450438250255273 0.1157675193813232 -0.4784594154971695 0.5777564480272953
Ni 4.642679842058152 0.6534527255397518 11.560887991513715 -0.9633676719434764 -0.8537988251736972 1.481138740556075
Ni 7.73266015612896 3.4182476305091667 3.1521698534310585 0.32743075892070705 0.6460367204609325 0.8209000175631476
Ni 5.970311764344088 1.5918769402517685 0.52881958277355 -0.057442815498501075 0.1610420749484065 0.33677491913976837
Ni 3.559566153320128 5.846483157722602 11.741356310931959 0.02329676574441149 -1.8014647701112005 -1.3524244312060965
Ni 5.909437650785667 8.689395392569452 9.723539157020754 -0.06386903073981903 0.6332511386604901 0.6194733681501072
Ni 0.18417342008469956 7.960452506668306 13.406873162516655 0.4791045052803361 -1.4371780187044088 0.210043958768406
Ni 1.4074779923004155 5.562410097929333 5.1727209573992505 1.5599587361787717 1.446296178955593 0.7726321836956952
Ni 7.735550594909746 6.854123255493516 11.769298753349407 -0.44766402738286776 -1.2571396051591575 0.4835129187606769
Ni 4.923678358689691 5.693786984169434 0.8456061500163756 0.12089866996030146 0.5717367241957766 -0.3154409335486826
Ni 8.504849161113345 8.860124590235873 10.982017791737315 -1.317084618254222 1.8762890143109427 0.8571916529053302
Ni 5.407127257823933 2.896643098424728 3.7984857726435997 0.47945803196501297 -0.4381298626401874 1.0500400737310562
Ni 6.952223274878379 1.6586515992193764 5.669084778856562 0.816674152407258 -0.8945857772830723 -1.1463109178403483
Ni 0.8702687728873453 8.223464025281828 9.22833427264147 0.33356926771827716 0.5851910499284695 -0.9531953593961648
Ni 3.8853388553967254 8.951928239792526 7.144797377865455 1.8637345746846998 -0.5061237141816575 0.08411132592862289
Ni 7.2586097856417995 7.383230041101334 3.696442237418963 0.8259805174098483 -1.765377023249708 0.40005285326280776
P 1.952298086821621 5.349603843998653 1.627981650398274 0.9120137429515326 -2.38705099859556 1.1833795405578715
P 6.2132559054349485 4.196199102617032 5.6014245778166245 0.4551449091409452 -1.0355272248268617 0.4547697851897135
P 4.351325453998633 0.953844797659706 4.647054162149329 0.3337376749753414 0.041896383123469785 0.9909805485647386
P 6.673553678665753 0.8306283381048517 12.072031712673038 1.5628867084588438 -0.49730405900749836 -0.3466291862260289
P 5.721190921272628 5.141768408353403 12.243351885402282 -0.7193185598742192 0.8435974591606633 -0.3854477017551233
P 7.860667932197825 1.490417015914717 2.3483038486618186 1.4942598513190652 0.8300096931738995 -1.4779809116533835
P 5.741488429271467 7.367848120073643 2.1314859602704157 0.05432381025354514 -0.5145119382453527 0.009279625529713051
P 0.8631292049944206 6.767704659079413 7.288875625346734 1.0063068945091638 -0.45426816296294664 0.25024572779827225
