# total energy = -340891.66249515675 ev
CRYSTAL
PRIMVEC
9.09375650241833 0.00000000000000 0.00000000000000

0.00000000000000 9.09375650241833 0.00000000000000

0.00000000000000 0.00000000000000 13.30963185228627

PRIMCOORD
 96 1
Ni 6.430831667413448 2.2221048292359873 11.344597434242527 0.20461353178145406 -0.23166642213418812 1.8672734410758938
Ni 4.574141248986282 0.17939525934720832 6.001871906086998 0.17104752290055059 0.38495096462436285 -0.06082792992065009
Ni 2.9211509724628484 1.7860683067296488 4.692776575381269 -0.31968993863302364 -1.9101866954996525 1.0814324719994084
Ni 3.3783122909353636 4.39091115259261 4.708948002271778 -0.4314923027190117 0.7812091267314287 -0.16445984238070385
Ni 5.104425462148437 4.670134940858415 2.5875919900954893 0.15706097881347145 0.549311305312725 0.20414739077831295
Ni 7.294574831623276 6.211053764309459 2.6639895464413565 0.17204048294143917 -1.630744805753398 -1.296709911252612
Ni 5.156487217166243 4.677091664454681 11.521549201262525 -0.7222704434136916 -0.8235338556415689 -0.9166018765428471
Ni 5.5489373655589835 8.091597105603297 12.594278707933611 0.7533915902985282 -0.10149352596081229 -0.1129994697178828
Ni 1.8346380593148197 6.496561338202741 0.34187431316007205 -0.5020320606107869 0.03040458043378635 -0.45834053326010743
Ni 2.79889451229527 1.554450332877505 0.5885861037770288 0.8759856456833816 -0.5498815759938982 -0.17964477765125833
Ni 0.5087583825416039 0.029456495520293054 4.698127341608775 -0.15859489895949463 -0.18253932559023403 0.42518924331911934
Ni 8.640932738287251 2.288771156927784 1.5260159755692644 0.36968118294948593 0.5856952432583977 0.20644981365924445
Ni 7.007494037884041 0.8394319160238712 4.815464988974759 -1.4282740313465596 -0.4336178337024468 0.6424243205193259
Ni 0.6973792576906576 7.410483849869033 2.5267802227321576 0.10168481603601197 0.18774992325689602 -0.5412820072503453
Ni 7.556747826760979 4.005399540283465 3.967294882488598 0.8745573978772874 -0.39527831469229985 -0.0989933852467779
Ni 7.70821343227654 3.877359451086834 12.837938633924546 -0.9434207965079043 -0.6679301780999143 -0.7715464068306842
Ni 8.15460774324843 9.301366792115752 7.082720318413962 -0.1740477431794551 -3.0993525037219976 -0.9756230922720617
Ni 6.86776847179695 0.9381664660553697 0.6649163663260175 -0.05318352600151486 -0.9143976698026767 -2.176225681576439
Ni 1.726686077862177 6.515567288942866 9.049365163438734 1.075027082693697 -0.7128352661427207 1.1849031762912496
Ni 9.108851970504057 4.904444666585716 1.1848382441444527 0.15390520679330913 0.3222841817227611 1.3993036122561384
Ni 6.642707096262334 1.948619201217559 7.017130691472228 -1.897115978358623 0.7288241853718094 0.8389465906522132
Ni 3.5219754535155037 4.163294431527861 0.46604500903616536 -1.524291621794465 1.2676474466690169 0.013338111869802835
Ni 5.80520851283528 5.633136455464638 4.843960274450445 0.4601989266250848 -0.23861302865535036 -0.08143892130278232
Ni 5.121985505631299 2.8043962348779377 9.539425873579969 -0.10964418009240472 -0.12591592066923474 -1.1967461916727649
P 0.22940091605767374 5.280989835148564 12.347145876398345 0.6826281464317211 1.7337629958888527 -0.21218980146681524
P 4.1237820602523385 6.317705338606197 12.705640848011875 -1.077968167599892 -1.577345307086335 -1.7125282548797929
P 2.352454732541705 8.595627644226342 1.4188869790649385 1.0596210325512718 -1.037561481648071 0.4515836741522481
P 6.723104996019962 7.970340958632568 5.848278361589051 -1.065929748378119 0.15387126823158015 0.11460229542862843
P 4.749241527216476 1.0683163067217176 12.80109709888461 0.3445663901597291 0.2760099812465698 -0.18250975790387922
P 4.119053306958144 6.095581246367781 8.157619595346578 -1.2569889385139061 1.3364987611147756 0.03431265723894091
P 4.905545011102249 1.095142887909932 3.935364885245188 -0.006720349442969072 -0.5931568417427656 -0.3348805303305329
P 0.4026369742391947 5.482189194060173 3.6161867691459793 -1.4892955653352544 -0.4490074287846397 0.04489146119605172
Ni 1.3836968701754355 1.0464912915177464 2.667116889244959 0.06174427108733238 -0.025741627740478244 -0.4853651414780673
Ni 1.858518263450498 6.673598586532288 4.638499581320259 0.9134728439955624 0.018874211196683623 0.6990839779948992
Ni 6.052640528953968 5.801425510199925 9.242713882506347 -0.9375003172584112 0.3234602043087333 -0.9121435836611774
Ni 8.737062836504409 2.518461254436911 10.556507957110364 0.48899296803864173 -0.4445157115618732 -0.6469929137266147
Ni 2.2642907648739965 5.239449556210338 6.895520797380067 0.12231200536806032 -0.09493129936226231 0.2293362313391147
Ni 0.46667702510144704 9.311460861647591 9.465942866139464 -0.034199014479212066 -0.39771803448204407 -0.060483144986721644
Ni 1.8341015276910553 1.1141306511373872 11.721259912262097 -1.2575216710889245 -0.5016615646452457 -1.2758137845298931
Ni 4.018458174380507 6.532427113187934 1.4681587696391707 0.49217882196579105 1.707945777715433 0.9121669806999452
Ni 5.833208188590708 7.882367959847895 7.880899318199794 -0.6480038714896323 0.6763317719000482 0.40150398388703756
Ni 5.081172727199872 2.9332456683883823 5.193577921129759 1.1951132840550318 -0.18808596644007608 0.18971244629990552
Ni 0.7059428480313157 7.51900873797078 6.683790868632542 -0.791074963781915 -0.40970734563343636 0.8009027485056142
Ni 5.148039117531039 4.43247871279984 7.425576757258213 0.14196114705755553 -0.8127339368125873 -1.0207616364819128
Ni 8.276736890827317 7.143482070117451 9.187000074944411 -0.16763232657141452 0.8348963318422397 0.15016785123806395
Ni 4.611534775035753 0.47005626495552855 10.511001891034452 0.6986538324360161 -0.8743234274896102 0.8379078649750539
Ni 8.118432780547847 7.077379555318423 4.511938136903698 1.0627824609983891 0.8488772195023638 1.3120984778935405
Ni 7.318673285910995 6.174424113792127 6.884846546194058 -0.9271112607146034 0.5322373805495736 1.005925599910345
Ni 2.166332821633506 5.2927753433587075 2.448918571616357 0.6867007738391979 -0.9484907548316438 0.26091374903507963
Ni 2.384364723521178 5.1894338963679045 11.376394662643445 -0.18541664713802905 -0.5341309980278608 1.268521107523222
Ni 1.2653598189882371 3.20709504666021 3.7131480366921554 -1.2016248599213049 1.0009286609163859 0.5512594301780313
Ni 3.964895949567428 2.7231708032938253 2.8030348995545897 -1.4103249030673066 -0.35166186355392987 -1.2192790826679583
Ni 1.27081607278923 3.266513650553022 8.204775268821658 -0.7685688122595989 0.500632352049783 0.7188048534625943
Ni 3.5488111284600534 2.6256402666010787 7.352093749817708 0.30943817899802833 -0.09584326965357041 -0.4435134955496039
Ni 4.117616493457216 6.816843436321018 6.0030295412684405 -0.565598986729155 0.4176674810207775 0.19759879102651776
Ni 0.8008707516609882 7.247987517919133 11.34867052770497 -0.5136927847781669 -0.6399285506806657 0.5335229321302166
P 0.21130615970231464 5.724037643789178 7.950241938380978 -0.8138832199256821 -1.6907746652527846 -0.9812265545017682
P 8.625227821096727 1.7576685056954815 8.289744599888884 -0.00350338516756816 2.1968269027665586 0.7402000313089188
P 2.030353883156431 2.8910779202630428 10.471353113413903 -2.2190299212261593 1.2081351502359967 -1.765534631873495
P 3.936505242289596 6.325589625348632 3.680392326373528 0.007781957938264018 -0.07904291026678 0.8605911655051824
P 6.944219681305195 4.129301970347676 10.213452365002377 0.27087137446842385 -1.3633644751573681 1.081993486709201
P 6.310875927598622 7.790202739392791 10.179033406650081 0.03469318050681122 0.9392741213293824 0.6895349008538835
P 2.3203355851665277 8.609559278931544 5.835740799730003 1.4142836306047386 0.1990733186895152 -0.22278763158731954
P 7.0283733024291735 4.1843191961743536 1.7463431415558872 0.0017300953172292785 -0.9980688228700875 -0.8301981550356218
Ni 5.392933975632266 2.969520662408649 0.5374118993775175 0.8645892309209819 -0.6508433978209565 -0.48559114144594434
Ni 1.3542694746754147 1.0988076717129323 7.1210659607517055 1.1019213359813798 -0.5167454555615617 -0.649388667652301
Ni 6.875179883209966 0.8686328769911511 9.374452402404417 -0.2119756285734801 -0.7629689495743183 -0.43698212218898935
Ni 2.8165818683668213 1.1992118354075345 9.169990203719816 -0.4155604619801037 0.8002769419961572 0.5077370814153642
Ni 6.329845503313408 2.1560114081932946 2.6285457217501076 1.1634259802540803 0.4359151143770557 1.0779054326827564
Ni 3.986975589948779 6.843188048423478 10.498743507494886 0.69264722123062 0.27386516698942515 -1.0594256287110142
Ni 7.982099185573707 7.104897261988097 0.08012417769194558 0.84938552659735 0.27629537369747253 0.09172899037488073
Ni 7.613638366392665 3.992513687556787 8.101532943774904 1.6859173371604834 -0.28565187521170804 1.2639054631280813
Ni 3.0113974103312686 8.167029814402023 12.350233206674073 0.2207484896701037 0.8837493487892006 0.3880398879623317
Ni 0.24892975778706042 4.786371334332232 10.157924070069674 -0.522610656093087 0.3167321415562803 -0.4670596583006602
Ni 8.7102635365852 2.4185663410970677 5.982266676804397 0.9464631828786538 1.1344277932495173 -1.0778815214233566
Ni 3.598135662821028 2.7482422895093865 11.697648883313933 2.3436212095466993 -0.02313658601746338 1.0328651046136665
Ni 0.9696035817054232 3.2198081180165232 12.899841652048076 0.824238080797445 -0.09639014329597592 -1.4254746142245514
Ni 3.0449079024256993 8.153634711320587 8.099669633101866 1.3927118179712337 0.19002226423084048 -1.5218537017769338
Ni 5.836245503206594 7.966203299500148 3.7270560276308857 -0.8487010989358158 0.09074837162916628 0.12885906245795872
Ni 3.183669530341281 8.572729565774841 3.592122871132334 0.31442637624123915 -0.39508316796235826 0.2415798245931581
Ni 3.3672542832320183 4.3642209777494205 9.335522031534333 -0.13263755566378446 0.4142180890195963 -0.34935661245952093
Ni 7.214395182017688 6.054059154942227 11.264380500235964 1.3057599372700222 0.294435534941609 1.315530643503541
Ni 0.6811969182925464 8.96377018193566 0.20894814868465228 -1.3377161784616445 -0.029782373468755157 -0.3843192445776349
Ni 4.866578265206826 0.26933432825150644 1.802869021558539 -0.820025328267678 -0.549011514684119 -0.534701268709034
Ni 6.00566218372742 5.492883451510118 0.18456233169674852 0.36175498612387375 1.1434935029962112 1.588239842511652
Ni 8.1051649900551 8.780885648282716 11.270343276264816 -0.9828196100205009 0.6329947996753098 1.0862509764339743
Ni -0.12232193521319029 5.096204706421608 5.819769435478864 1.3956824705637834 -1.3974945840718578 -0.8294700186203456
Ni 7.985472969173988 8.9585048970177 2.565192249491147 -0.150053951368019 -0.03803998549185707 0.06872173084643003
P 8.521959124156604 1.7529033773759477 3.7657072201814854 1.1192379728829565 0.7134911545591647 -1.1893000198073647
P 1.7522486269198285 3.1643362043730967 1.5693922839115237 0.7917398510594236 0.5802195648558072 0.8443484783940749
P 4.922650366768361 0.9689488312493041 8.134566923037383 -0.4227901469593235 0.10300893416407421 0.4319504733023529
P 8.529361441813284 1.6175064393043117 12.554682674099807 -0.513195019206142 -1.0078616405907932 0.29664077012304396
P 6.37659650463158 7.616757524815566 1.4276979195779085 -0.660389903858811 1.5775957325342442 -0.4493573559248907
P 1.9338418471732035 3.1696742393417345 5.961197352751863 -0.9747823415383212 0.9030670752812059 0.8579987221876578
P 6.869987348342687 4.032035152588644 6.12349544081366 -0.18198293886613176 -0.056381464113522246 -1.81533972832108
P 2.259180073813733 8.30162650191618 10.173269783884965 1.0478957736945436 1.4272358198900323 0.840300019356314
