# total energy = -340894.3382097163 ev
CRYSTAL
PRIMVEC
9.05557164644749 0.00000000000000 0.00000000000000

0.00000000000000 9.05557164644749 0.00000000000000

0.00000000000000 0.00000000000000 13.25374445579158

PRIMCOORD
 96 1
Ni 6.282565295858878 1.9701753996496532 11.477781945885605 1.9325048993808784 0.2836194181627116 0.3382507323543465
Ni 4.682635989974655 0.11673265472049173 5.967922221829751 -0.27384459816413487 -0.061693877465371166 0.2832028994505832
Ni 2.824161063998057 1.7275313630003186 4.937722381778166 0.6384085144917134 -0.8601396797900607 -0.331625513728345
Ni 3.281902088985949 4.403298777863363 4.83063209952359 0.45294275928330385 -0.5717439232846283 -0.037815785296192936
Ni 4.8573360741336 4.548314698852446 2.325634650815915 0.5558061690084493 0.849795103330943 0.16184554468630835
Ni 7.137058072207743 6.1978413694960794 2.7095157184937504 0.29199298693838743 -0.19768312321020792 -0.9438748533261875
Ni 5.241319469768671 4.571361128159128 11.595329602035408 -0.8576053434039812 -0.20584946107108418 -0.5053467268063168
Ni 5.768217893819484 8.08892540821663 12.487439222132783 -0.7443541626866084 -0.39198730264585396 -0.6131800789422279
Ni 1.7374109914378788 6.606908698011115 0.3991007665916823 0.7046982388578831 -0.2570144139806735 -0.49555236642371425
Ni 2.7089923064647023 1.7798272880478987 0.27723903620938123 0.024108720122745578 -0.5602634334488544 0.8820755606312035
Ni 0.39825135399090955 0.13096167411915188 4.796795051292804 1.700953919778632 -0.9011297490491772 0.9367927496684254
Ni 8.718912457504093 1.9989177833900893 1.3786672845114856 0.5472644500860252 1.29780982918501 0.207436603052546
Ni 6.943676344174658 0.6671266644212527 5.010047419729683 -0.5585626487076638 0.4289659367527322 -1.154062022540677
Ni 1.1709759424939519 7.548479849296349 2.622717160714779 -1.1484300210658804 -0.3883188526553313 0.4721548134353804
Ni 7.653814256249328 4.021923386802094 3.659040378171935 -0.0020512261020738864 -0.8237760535593618 0.31093481814821294
Ni 7.543961119149381 3.9921486679178617 12.639817322699994 -0.5244209698289484 -0.7448246745651237 -0.3230740246139081
Ni 8.137861716261154 8.820153746167632 6.8589189121975425 -0.27525973334410664 -0.8282006649896188 0.49604113313467474
Ni 7.0365050069734 0.6359573875357513 0.550950021786981 -0.3985590423261007 0.24173537633441597 -0.3759191934393978
Ni 1.8147908493654237 6.322464143609464 9.227190815566535 1.1970956045923835 0.4502009348721085 0.4039159357626399
Ni 8.994274273754623 4.888813240447953 1.1995354036913644 -0.1372619418096733 0.052344832150303396 1.884457151944032
Ni 6.102178312837614 1.9870640403793043 6.881502601803804 0.16344399952167982 0.2781339695681081 0.5923106916923864
Ni 3.1417218431441243 4.268307374454832 0.3397659458662696 0.5526717371445256 -0.28256500875626817 -0.04580780236273401
Ni 5.757586652952669 5.56196819877469 4.670049651234631 0.6920959767128404 0.15600734073797648 0.3120136530346884
Ni 5.279198925088849 2.7629997345138397 9.496294326397086 0.37066900078405196 0.25456723799176156 -1.3352738875687393
P 0.07283939440912807 5.6392393898449935 12.451335564371364 1.3442809761633556 0.593221890652746 -0.5769951443812386
P 3.9069357406974756 6.186648683200182 12.732607046541558 0.44221971643884483 0.0027114853938921043 -0.33056467656399846
P 2.573294568484099 8.733600594374598 1.484061458235947 0.3611672319412038 -0.049783242070714266 -0.589816721625939
P 6.460117885020418 7.657237262252442 5.980380877012515 -0.8621045168259154 0.9940231920458042 -1.8287768276625924
P 4.6266816140666025 1.0388370440880146 12.474768666578397 0.17336640084171434 0.3415057489565344 1.5768352002191361
P 4.0894779497207 6.013759713328597 8.041735919902267 -1.1188348239072667 0.3401260950001884 1.6836509097238102
P 4.929997979342567 1.1275544774544461 3.945666419732714 -0.656262769064315 -0.859488676469623 -0.8509132760957863
P 0.1363388724383299 5.612878621392438 3.497662850710824 0.7014478502413856 0.17388396390808117 -0.30247357475473713
Ni 1.5185016075244244 1.106056550863458 2.737309078347609 0.25242859438220394 0.48553714827955735 -0.029475640861613753
Ni 1.6859029011053013 6.4401050721450686 4.8976958504703205 0.6171143809996276 0.16595185354519806 -1.1286736643745594
Ni 6.032622468631474 5.570453269210982 9.34310756330057 0.17669932186968923 -0.08800706143860326 -0.8355725319736578
Ni 8.654264733016703 2.1721327538333983 10.09313707866868 -0.13197241127595982 0.4122319118275029 0.7894824224838145
Ni 2.2382293697506777 5.196621169156575 7.058122467107354 0.4038200336147239 -0.0038180881945095537 0.2499415662942921
Ni 0.7419338345035996 9.053633544522915 9.149390779124323 0.1298067710832087 0.2904495537106675 0.32970130012243865
Ni 1.5763938757199534 1.1144601211568181 11.49073141304024 -0.9129239134706277 -0.1931366414901061 -0.2980808450036802
Ni 4.240760326144054 7.082434865300903 1.6801634799286507 -0.4798524391899542 -0.04128985988772244 -0.5334203451140813
Ni 5.53184936817586 7.695995108001991 7.958197367840548 0.19215242319996584 0.5469124660632453 0.7244144863398879
Ni 5.409073930635583 3.102103718108079 4.475656415872054 -0.6135228069936273 0.25483206161737404 0.6057891857947955
Ni 1.0477115040960887 7.502070045682696 6.9421785526590085 -1.1515171446316361 -0.8176750828679465 0.7848829760385901
Ni 5.234591180191122 4.583839705599053 7.03718145815973 -0.6179425333278777 -0.7171794020440294 0.04385247840857609
Ni 8.524733839184568 7.150550873648591 8.999173337901938 -2.196956229255571 0.5720817662400213 0.8030254512755718
Ni 4.946488174928998 0.17200333498506395 10.51601143695342 -1.7681350456108196 -0.16059470299834278 -1.0575911466054366
Ni 8.366089283183086 6.971875393628885 4.951453344747802 -0.8320123254262252 0.722313380836485 -0.14507963808187915
Ni 7.234668076725122 6.0246082879098966 6.96221853224867 0.9552650974409999 -1.3093515112760226 0.9856740487501606
Ni 2.3312934774067777 5.283264876663977 2.3933875307489867 -0.8093292820064126 -0.1501735076650188 0.9649283315623768
Ni 2.2816055569329996 5.282440819663227 11.53012133767608 -0.7434668749856487 -0.13713852885793157 -0.5435579477687155
Ni 0.9952888010483936 3.5194116166306117 3.894890925129374 0.6746106754438833 -0.7036510285402914 -0.45808136606144984
Ni 3.4458350987065276 2.7667940189458635 2.703856891902887 -0.22334324698047342 -0.7292463605108924 -0.2135414303987032
Ni 1.0028592587695668 3.3668342934917934 8.282569747821384 0.014405891012684868 -0.2808462262929486 0.02857035543852499
Ni 3.6912229735012154 2.785774496677418 7.403382428164337 -0.4878028043852825 0.050144482064874936 -0.8149731105557513
Ni 3.9247118274279345 6.706637706244708 5.873131216700651 0.3243521199953833 0.8556001400484943 0.5317177606006778
Ni 0.6817532234059889 7.5165951822673405 11.210228748885035 0.5916108374118844 -0.6040590904775661 0.6182914320268642
P 0.18424193978191322 5.449271612243585 8.10979397259276 -0.09216042148534452 -0.8132476432242124 -1.854561392825864
P 8.52157344475312 1.3997740104164031 8.063378735636245 0.20764203419513272 1.8863777660055125 -0.24483329853344932
P 1.6956285848284356 3.196363161193838 10.58461282393012 0.04809942661038813 0.5946020588297243 -0.4059784747186234
P 3.8844235901055653 6.174577606474913 3.690770194929375 0.0905064308216893 0.2456516806696866 -0.028151008512919257
P 7.015423636668506 3.8585608780820344 10.377071804398437 -0.5544535116352968 0.2719167850138027 0.2908097652635637
P 6.464772448738939 7.662154437542631 10.132805914904772 -0.10378515020846643 -0.17010881313636508 -0.3831614768241079
P 2.4995641058455886 8.597604022536581 5.9073395433603455 -0.16803341866457513 0.4731495732484819 -1.2162405529519507
P 6.824912524780888 4.054496277260301 1.5111385223891538 0.12027440611274126 0.46556250492984336 0.16864894076138698
Ni 5.334519410996324 2.9346662022414542 0.2858354901743453 -0.6523068697403605 -0.08132347877084059 0.4043671643674455
Ni 1.5953743534515077 1.196231931231216 7.121952473494 -0.044986077792387044 -0.21225587881806024 -0.2696076772646518
Ni 6.73298036355439 0.6459230439019611 9.097409987962743 0.5333465544533523 0.06964192866785425 -0.570130041830289
Ni 2.7288511746256274 1.679799445956891 9.389243888656832 -0.35606410638668357 -1.516057406810131 -0.8132324737155606
Ni 6.419286313411841 2.1460164858096373 2.4928439662823316 0.36498454880476494 -0.8089029931022714 0.28848780199860635
Ni 4.201803257822896 6.76151446915178 10.370021136477739 -0.6841641234602734 0.3930537962371553 0.19526602912828306
Ni 8.020039676296813 7.401906370020137 0.07471661436797887 0.8363798583663016 -0.18801911775788263 0.45028680971769547
Ni 7.51174139597721 3.7317285445380683 8.222397286738065 0.4606558116568454 -0.27632442716319505 -0.5258119366392041
Ni 3.2239011539331788 8.425520998522874 12.421501984272794 -0.36323902686856796 -0.9264713131377592 0.15865506277346872
Ni 0.019157966931716067 4.801897865797447 10.241420249832162 0.12854153121753992 -0.5231963533932279 0.5639665933320545
Ni 8.678488386610171 2.2271544058834585 5.935967826900678 -0.28838110121741306 0.7665363552106025 0.16102073479216786
Ni 3.736048052113427 2.5708405086247232 11.30243529392607 -0.09661794303606587 0.94497579969985 1.188515062012224
Ni 0.7844117089993898 3.371497912781751 12.617418366751043 1.1352567169087158 0.03174026852607437 -0.1309696810430583
Ni 3.0881219158096433 8.173703668008049 8.047805869436361 0.7079601974386066 0.38435215469809936 0.3451873115731797
Ni 5.743595795082796 7.9076781459088705 3.7825792003843337 -0.9999853231665101 0.3614030021010938 -0.06441307616874713
Ni 3.1729001756010624 8.415940203942728 3.7546137846731757 0.6652534025986995 0.10630174598273305 0.15804545421392782
Ni 3.3593362803421147 4.166803474219624 9.424777045417732 -0.12147074041368756 1.4226929377143562 -0.26828175936437665
Ni 7.289861784632482 6.131473086435696 11.426079160767134 -0.09082859004779842 0.14466286225943473 -1.2115619165293587
Ni 0.8071502488772208 8.835738384610384 0.21860240004174658 -0.2253011420377926 1.2762837821877762 0.14121192759635678
Ni 4.6847731048337415 0.5717425193630414 1.415619449316534 -0.31224685209141706 -0.48884024451086133 0.7087204726433988
Ni 6.066852528662618 5.838624961740685 0.19881054310945376 -0.9262689673189661 -0.19703057722787357 1.5815202643996311
Ni 7.873583919449279 9.015654477916932 11.229115048673647 0.3770548497057377 -0.11335865282951445 0.19453686427174238
Ni 0.08660024076450516 4.721185557581156 5.838314355640403 -0.9032038579693864 -0.2403246120298184 0.5933617586647201
Ni 7.969174531536249 8.66957770431635 2.979031257824676 -0.2353194455057431 -0.3369592672364326 -1.5586839832314061
P 8.57713843108939 1.613322496039266 3.570386333805561 -1.2028623318728318 1.2201810256569374 0.557551176724014
P 1.5054978069411646 3.2502075889571125 1.6169302356996913 1.5320517253558583 -0.18257300704164686 -0.18116352828862992
P 4.516348531680505 0.9842410038954847 8.362966922151674 1.3775654492480984 -0.46886611538177964 -1.32589038947131
P 8.46156217284138 1.6727994892362366 12.469387846030646 -0.10995939733997838 -0.6760852031068808 -0.5958814397627803
P 6.32727265204241 7.812495034536557 1.371338610547675 0.28197931145612726 0.06238293311259579 1.5340019071036937
P 1.8689703332718601 3.24624124866779 6.104661350525587 -0.8135528331694569 -0.10693372313977713 0.004897951522249629
P 6.837300546506445 3.865044667230791 5.886106945012457 1.9769950113734533 0.14996370564705785 -0.25476598426612895
P 2.5272741544422286 8.419145876231358 10.215601910108672 -0.15243299312315683 -0.11863249963394405 0.9111897043883405
