# total energy = -340892.3930348256 ev
CRYSTAL
PRIMVEC
9.06310457862209 0.00000000000000 0.00000000000000
0.00000000000000 9.06310457862209 0.00000000000000
0.00000000000000 0.00000000000000 13.26476966346684
PRIMCOORD
 96 1
Ni 6.407515027833496 1.9290908079042073 11.3534486060311 0.4163276791634314 -0.27372709874966406 0.7466177619098044
Ni 4.746710232659228 0.4189528708079429 5.9578047000496195 -0.6649700670303257 -0.41149606210274287 -0.6450823269674633
Ni 2.7472444200645283 1.5904751060051463 4.813082064191732 -0.11153471224689823 0.2433682839521486 0.23276505451500556
Ni 3.511363804541047 4.05969973934906 5.13554822058429 0.10431531168032358 0.21983086295184076 -1.1942607062467496
Ni 5.194998559382457 4.528733511756324 2.6738060861292974 -0.3537287733852876 -0.5658247295867158 0.5480208686360755
Ni 7.265636929843795 5.923635890624812 2.606115572924873 0.19445690296342638 0.22908837699436677 0.17047982332253866
Ni 4.691733442130892 4.590652640158829 11.418883312581633 2.0702332393040086 1.548232963101411 0.07641395728436517
Ni 5.739691126272171 7.979755168038607 12.374304889460728 -1.116722405549954 0.6262713649085472 0.4624193313151714
Ni 1.9513316657935142 6.4555041649662925 0.2691723843279729 0.06825044763696633 0.6392641776237894 0.17570019118121355
Ni 2.6241312116014686 1.6165315307939638 0.37134982191723503 0.3601205358442443 0.15232706367291182 0.20621610038188354
Ni 0.477746134546217 0.0798432297259289 4.637748155210172 0.882248595873958 -0.3067973989410716 0.3144376890951488
Ni 8.83091660596619 2.1623751119265244 1.3114465957787944 -0.08898510908115642 1.227422280600383 -0.2921878765580129
Ni 7.04031909447865 0.6878687692849511 4.5759477534736615 -0.5101446624155924 0.10163853617910883 0.09468961566510145
Ni 1.187774193782006 7.145423914748533 2.3764628547852964 -0.4605712223628391 0.46287441657471895 0.8438697389854434
Ni 7.532490972098383 3.729403967173872 3.8481623540330965 0.26359155297755893 0.5625548005861924 -0.9736479708235619
Ni 7.506842387001912 3.7582427649749217 12.620804105825506 0.15343778023858734 0.11800283646974516 0.04616287170930759
Ni 8.064667391985193 9.172133418791994 6.571101341054616 0.5145800724791267 -1.22371732094497 1.0787271572531036
Ni 7.098214204583333 0.4591767401984576 0.5118533148619586 -0.5937924184442354 -0.2164100101957499 -0.383073802206308
Ni 1.803503371974244 6.4947020909529485 9.058338894143843 0.03634562850856966 0.49156869918561796 0.5178019218505341
Ni -0.023102759105799897 4.965185424297224 1.205708264520132 0.3505809717849253 -1.2081197236170291 -0.16300022711604187
Ni 6.322503109739894 1.7792414418317517 7.023973785919821 1.0946224883271212 1.398005462270005 0.3858971305877161
Ni 3.5007509094357587 4.568212393975485 0.5204886406145796 0.4898077506304532 -0.9326080221631164 0.11010157934479749
Ni 6.1976497852561545 5.75355767581196 4.744595810432018 -0.11925496370929138 -0.1329121494814098 1.0187914001294196
Ni 5.4652512657399335 2.7936475139493093 9.257562239682217 -1.4327210113743196 1.084172753748707 -0.11016868513730703
P 0.12308148759809955 5.893555447538173 12.384585168639145 0.06316377714267832 0.11604365586084531 1.0114074489605227
P 4.101344703489796 6.3778152351263815 12.685404100472368 -0.3819867397897163 -0.26846559324040864 -0.7104102016409958
P 2.5158905572526518 8.56491449551339 1.433802128724517 0.38088810740889883 0.22015713594300793 -0.2896720521146947
P 6.378449652425587 7.906498096188864 5.818736802821956 0.6764171325250028 -0.516494258782704 -0.5668264313783528
P 4.661399232124571 1.068485615322731 12.589274472365394 0.4182979155159248 -1.4368437752934418 0.25415971814069777
P 3.922357457175237 6.347426646494414 8.012650611312866 0.5856003695517463 -0.5628041975928372 1.09180404504172
P 4.775621535294473 1.0213937255130976 3.807373853246289 -0.6407975835491803 -0.23167464966430423 -0.6369075044661547
P 0.1909170104709139 5.456786326347671 3.3848773086670665 0.36665088076359437 -0.20560006406443945 1.6713091003290055
Ni 1.5033424215113405 1.0535133670614694 2.6267024142841073 0.6349197846121646 0.2635198191993591 -0.14416741068025493
Ni 1.887083319592496 6.251774643982699 4.6922128803470065 0.08237814528760005 0.949184695574875 0.4506081976128562
Ni 5.81403577063484 5.729676396048992 9.310461766710867 0.296204968137206 0.37987277877050707 0.014812125312168037
Ni 8.74670224104873 2.485329769639472 10.13039718517153 -1.0539334952481914 0.07467460599575526 0.9385596117608611
Ni 2.351413340881361 5.345491405858392 6.841211756674986 -0.36534167503386755 -0.5417797728223701 1.0169600033476356
Ni 0.43739991324799826 0.3423243241681335 9.340718940330857 -0.32840983500452475 -1.0755335900164702 -0.6605881359125462
Ni 1.3930806949093393 1.091478710866811 11.35249335484058 -0.02261310941382557 1.2377182632097523 1.137260634712622
Ni 3.9580026462863396 6.755828251306134 1.8600526110941837 0.46997683194745515 0.6345945400622619 -0.08029606594759074
Ni 5.5825640874673965 8.047429367655338 7.916745748191895 -0.19163408880265062 0.05437934608182893 0.3685000181571912
Ni 5.638864091219792 2.6256628762238368 4.949629512120692 -0.8650867393826908 1.2704435213569152 -0.1281934038495018
Ni 0.4309197936918228 7.081438398571472 7.000468624984239 1.1062749849643851 2.0464147967281723 -1.0201949653451656
Ni 5.043390951080774 4.470249299873806 7.207093807783493 0.3934158075622644 0.6420435401411394 -0.213455041332484
Ni 8.142709782891803 7.419600945256815 8.955801651314887 0.1399780551892557 0.2742469758088761 0.582580608888816
Ni 4.646173216943627 0.23524284085600908 10.499833785776447 -0.16722069295529265 0.2550472629519736 -0.9389085104598475
Ni 8.376546936274858 7.0386696095007135 4.87711108326931 -0.7270789205459285 0.9731594612229175 -1.174630590720648
Ni 7.06928477573954 6.268903911061261 7.0759715340731715 0.12847725363850776 -1.0188749609821612 -0.10460481789628437
Ni 2.6249468909861617 4.950494132268467 2.8843447173542254 -0.8886362445678567 -0.7904607272366838 -1.3017855260033064
Ni 2.316275685609624 5.318456165807943 11.449591828794485 -0.01901639320150273 -0.5533222262443309 -0.2478389181289925
Ni 0.9837093379402616 3.372082018052509 4.093176127607306 0.6665932044560455 0.3947550951989782 -1.0050311131205336
Ni 3.6989972523333567 2.6207234843943046 2.655566588777125 -0.395644439782467 -0.10893275584767691 -0.20150018296345296
Ni 1.0815999272077461 3.5436647081749064 8.505833931369619 0.15085356445117892 0.28517416424434117 -1.6596362919767675
Ni 3.5651895808265386 2.684627432632897 7.065598811231154 -0.42222270449162774 0.09703394752756192 -0.05725538207804333
Ni 4.110108725323113 7.108500827934744 5.973483870444282 0.09117646030552039 -0.5166798924309489 -0.9624508165561619
Ni 1.244545478956668 7.538291358833981 11.375945949771372 -0.6750300223694891 -0.9269274268385713 -0.5991760513536519
P -0.0038744770772937338 5.523499836911319 8.287509187262579 0.2736000862534965 -0.0021021339446673473 -0.2730028189891298
P 8.520876871844221 1.6461316293540607 7.976052889942527 -0.7401390961639963 1.0993769722929712 0.1579608649199215
P 1.8375897071501544 3.4275754055244847 10.526616165217641 0.7210867075182356 -0.9709573113652763 -0.3198051240546492
P 4.18828706279384 5.954604517930339 4.073478376777387 -0.9832808659276355 0.4770612495980623 -0.8164512377631746
P 6.889327777267623 4.0071156083491575 10.468330435318732 -0.8220379878223326 0.36954928535731196 0.429781233565176
P 6.376519211215146 7.80073166930695 10.051312537273366 -0.6001263310820633 -0.0357640449734868 1.7811502269235646
P 2.042153033726989 8.244415939058799 5.882845577217149 0.45852899512182965 -0.036554916305898334 -0.5013741153118139
P 6.907589932380482 3.780510812177052 1.508986922853419 0.9481415990223412 0.3067369780167814 0.5590401025647147
Ni 5.30580407224092 2.713303094557008 0.4939709038181966 -0.7825651265386909 0.6191717777492884 -0.44730690115376515
Ni 1.4964907146799158 1.0354687264511961 6.991807016229222 -0.7257136647672857 0.6981406402450234 0.011196125826135557
Ni 6.711446229674538 0.8046912770711698 9.186183949348553 1.3334332348155746 -0.9101172972597681 0.35882238585811105
Ni 2.759860261214453 1.6223500437381102 9.188704398647253 -0.24401337373531526 0.7995896861211454 0.3797570791282492
Ni 6.430036841955309 1.818421241609859 2.441513285714596 0.8514979449546626 0.36600784786295676 0.8567568793607566
Ni 3.8848180792707914 6.885874734539088 10.446708587451363 0.17846644107244106 0.7300398029464653 -0.20497502888593086
Ni 8.263901613248697 7.209926027869234 0.7038733051230635 -0.18087762161709495 -0.21926522025635786 -1.1895481312624288
Ni 7.50378812086145 4.049385926684826 8.248909426158031 0.2619049093037554 -1.2117786605258551 0.23673380935476648
Ni 3.0169261508527208 8.51071713195265 12.37086997294074 1.690553036160282 0.22617737399515886 0.8486779590073642
Ni -0.07257008854574594 5.020760379707668 10.479790730673674 -0.0974196130017548 -0.6705933267543741 -0.7533152285346382
Ni 8.40093574987719 2.554653454234138 5.722885412016205 0.44197417608694206 -0.592270068262438 1.4124059539660514
Ni 3.766209233632094 2.6142343017338545 11.444790196149924 -1.3154661088141926 -0.8417604059519245 -0.4546985656321459
Ni 0.8955389280070404 3.474377275997338 12.524024653142058 -0.009456260316893391 -0.19864291602031597 0.02638620330301262
Ni 3.154214054400897 8.404252846041611 7.845368364168657 -0.8568386404412857 0.2806824470215747 0.8067607499482881
Ni 5.827177271832678 7.90864605190189 3.609344118540848 -1.2080413049706098 0.11205381797516185 -0.2742775719364954
Ni 3.134112089120342 8.41888975944472 3.8304539545914023 0.18869171834487505 -0.32584798781461943 -0.18035054546903134
Ni 3.4992101817091155 4.5716473104954725 9.128151080058897 -0.48307428856136153 -1.0605080631419155 0.8559765495513064
Ni 7.05126732444209 6.138476777448784 11.748154953973817 0.49935528510957233 -0.7222951260040399 -1.3026776988002724
Ni 0.6542863427066957 -0.031561354325070644 0.2183301819696048 0.26887208465020795 -0.14525755842064017 0.24889924107270686
Ni 4.668939734880849 0.3329412923128769 1.66455601403343 -0.41306366370017894 -0.7870347322742705 -0.5883586490231738
Ni 5.951677135249716 5.515379295481482 0.5223148561258654 -0.6141951504703035 0.6825792954716566 -0.5400519914979861
Ni 8.211362797770166 8.389751879202617 11.383586146674666 -1.392742156988537 1.1585905065386497 0.23829318342208639
Ni 0.017357657306275927 5.085987541170318 5.826178517741643 -0.34633685179659063 -2.3526015586684386 0.3867178267167985
Ni 8.163418976158741 8.56715308226916 2.68543948677588 -0.2321392480055486 0.2769263224132521 -0.11073741315658349
P 8.64004762994793 1.686444317166464 3.4945771228040567 -0.6334935936885993 0.3126188907188552 -0.17774884618012612
P 1.7954190829615047 3.4853526952736016 1.3007104424553744 0.1580940480636761 -0.7824396567044202 0.9399204966641297
P 4.536545907640832 1.1094145942257918 8.072806059623577 1.3383599826932304 -0.668735704720345 0.914614156688857
P 8.433608240786299 1.5367127714495759 12.432364948063205 0.3469947970955637 -0.06888551011780394 -0.9819606044543154
P 6.256677783395134 7.537131281486862 1.4510464972273631 -0.24042797037690208 0.9062323603830651 -0.17322061929246943
P 1.6263106203060105 3.2877860851965814 6.195376758704142 0.07602906314112068 -0.43863045642568976 -0.353867612955997
P 6.8594014069536495 4.174692406382284 6.125922565407925 0.5563468720032677 -0.4485754834535436 -0.8489201569251572
P 2.373527315310827 8.735246477245925 10.006079490150407 1.2764107946839438 -1.1779948792071904 -0.059324863012562346
