# total energy = -340888.33918843744 ev
CRYSTAL
PRIMVEC
9.08815100240095 0.00000000000000 0.00000000000000
0.00000000000000 9.08815100240095 0.00000000000000
0.00000000000000 0.00000000000000 13.30142763639424
PRIMCOORD
 96 1
Ni 6.412635529437556 2.480329017492203 11.59531981395402 0.6992793818351569 -0.799187051366088 -1.8129596581246776
Ni 4.8351324966759615 0.5507755622635002 6.090045256476722 0.4935937000354467 -0.39240099314450483 0.03969603303804131
Ni 3.085427183298352 1.3648403049584092 4.790069809943512 -1.2551084336617415 0.38971933254728364 1.269009617123866
Ni 3.486723568293115 4.17503284246533 4.765250070215713 2.4963527077468814 1.1776629497890687 -1.1508507146922309
Ni 3.5717613949621065 2.4378328245346093 2.8493915493684896 1.0441033965316469 1.6647319613321199 -2.639596321061286
Ni 5.311833268533247 4.172524512855344 2.540586183481667 -0.2880201183335685 1.5493069128918802 0.45294995837215535
Ni 5.400560884411132 4.884308480442758 11.34240657524624 -0.8235099443821688 -0.4214917398628741 0.06505379507653956
Ni 5.6845565075359925 8.109156984562848 12.509633221246304 -0.9086317138531771 -0.7084682474232767 -0.48670340067351664
Ni 2.0888296590176036 6.582502155308041 0.3341049599747933 0.03758875688705139 0.36334984141481935 0.1575669719156125
Ni 2.9772600129430735 2.0063092501093593 0.1412025983708586 0.21304829281236856 0.0932801369120845 0.9634034102774182
Ni 8.396733339087472 8.90594242621621 6.623977748935194 -1.196275165573617 0.17379808906249422 -0.18487800102573967
Ni 8.596618126920944 2.2878419843780375 1.0204493759525197 1.1147855935385576 1.2681621815219064 -0.033775553788548275
Ni 7.050087511952224 0.9274094325386263 4.689471251541844 -0.9496230686638744 -1.4327084129688294 -0.4593268084327767
Ni 0.8914794285057248 7.594476830676096 2.631288654519878 0.022125371144129637 -0.6385257567958681 -0.5967515010725594
Ni 7.597948504266729 3.9598163442983547 3.9601807791438635 0.46579081889056556 -0.01259146351176541 -0.7786591066160654
Ni 7.694355607537507 4.235650808039999 12.357118601623453 1.57077742406083 0.14610627957418065 0.4594664193344345
Ni 8.249787029435774 7.599811575172697 8.771146974131728 -0.7308363307058316 -0.6407662160906126 0.7274769273152956
Ni 7.055404080147303 0.7568666482515367 -0.057418027691783974 -0.03783532568021871 -0.14359919688161074 0.9039679898289206
Ni 1.9047582535079577 6.354262337100811 9.014456763930552 1.0593567231462917 0.5488623907007644 0.40138442759003773
Ni 0.49458352610935086 4.99761954412866 1.1819558119381262 -1.5398221133298964 -0.22870142596859322 0.2212298001818964
Ni 6.515622453859168 2.0283298394028257 7.100727596806588 0.5464668938853944 0.08072518306520936 -1.8289519197878759
Ni 3.412800550004606 4.47231534200251 0.4376580761888033 -1.2091376233585822 -0.16242147179443642 0.6589968801660264
Ni 6.322953657729785 6.011975314996051 4.761552101671136 -0.6050790471016483 -2.0510124434011843 -0.8152081093846928
Ni 5.547543546665872 2.982494787781306 9.065787548242739 -0.41780992013591267 1.3541941215120097 0.7213895834706351
P 0.3353882068622211 5.9849108020303285 12.405216730710018 -0.6641133754569852 -0.9857794639797732 -0.03856063388201746
P 4.111697519813177 6.077455441227757 12.601399914738607 0.6240100796781963 2.10400596487908 0.033859628861922335
P 2.368544763134118 8.493567585444007 1.1815941035378457 -0.699965095048272 0.22853944646943225 0.7607757985777414
P 6.547058367340843 7.935227955302277 5.715197207826097 0.15087567593836598 0.9771343867102655 0.09933482774659666
P 4.902593839773528 1.3367488309567148 12.554326020242788 -0.2163894413704596 -0.9476525752010647 0.46821742605418715
P 3.9993134475048784 6.421314713414139 8.079020676639969 0.6744564092542062 -0.5438474539846763 0.26647247406977975
P 4.728446694894697 0.8532573928509447 3.5339101558583677 2.5326091189757545 -0.4536842654350186 -0.2657638780385294
P 0.3602779253508785 5.510918299099767 3.3701026001001217 0.08495927575121497 -0.24720668386163233 0.56019067122939
Ni 0.7616342921406628 9.194118598691048 4.640761489909078 -0.42550034680163495 -0.2557262912968693 -0.2893627484043919
Ni 2.1456851301772932 6.292835526108428 4.634669702454101 -0.31390058564475615 1.4170524515991272 0.43881120497792814
Ni 6.050599955729536 6.106692022225316 8.988266531068021 0.44744728338637135 -1.4316403767156314 0.6694646124665696
Ni 8.578596323962238 2.661837564487298 9.922598408041164 0.30003925428163164 -0.8648136882269624 0.6513589040047943
Ni 2.587505579414552 5.303681197300792 6.770918605696435 -0.7758031252245091 -0.3045913924286883 0.6646944447714359
Ni 0.8321901505722881 0.10614233036576765 8.926960592480757 0.39434680401696603 -0.45770701344116654 0.4178891101132803
Ni 1.868469267520004 1.6225984368367827 11.470898485963016 -1.303324331245336 -0.08772835385591989 -1.6857813258032515
Ni 4.3229334079469135 7.014580106929701 1.6112155280088558 -0.4794258931754969 -1.7136564549469648 -0.6022577756027693
Ni 5.643505330549369 8.202083326092232 7.911516061152222 0.3338001527821606 0.2244951011967295 -0.7384154286046701
Ni 5.446301547190338 2.800504568795888 4.468494683422661 -0.28548886727128253 -1.0005643355984317 0.43551453650452737
Ni 1.0041861301660326 7.362592664013777 6.887119701324278 0.4146942573250665 0.21284157611820115 -0.6167842513537184
Ni 4.976789502584861 4.751485157073375 6.930828253593365 -0.06885285710765561 0.9620738928327173 0.5335365589769714
Ni 0.7002647364980744 7.475676523930659 10.852541617011907 0.19955900007668212 -0.27023219822252814 0.27723254079976123
Ni 4.624632748753851 0.203103810832955 10.47720189940512 -0.7077637651570843 3.3315246618480105 -0.23590694257809697
Ni 8.505673002257419 7.020932724311514 4.603464628001749 0.10329792615940275 1.0890210829799438 0.6611992871339838
Ni 7.337482103461631 6.268706485838452 6.96981460272713 0.6742697471646968 0.08382850458088144 -0.7952974865036948
Ni 2.4431766571819713 5.09559889748106 2.665193818563268 0.5631862635226043 -0.06743669348641933 -0.9978273962832428
Ni 2.3150609959066935 5.426089499898275 11.536048712322104 0.22395028443685303 0.6096838928635112 -1.3629718677046399
Ni 1.531707841077823 2.981131565167183 3.7582520662042826 -2.5633314877602755 0.8154793607682084 0.3576893006949324
Ni 1.6524257476337938 1.047918311627098 2.4418625105819567 -0.9652412348171054 -0.21348152369504525 -1.1834214495394006
Ni 1.0867610679788422 3.614012207849158 8.19917239140354 0.7147931612000399 -1.3513579376147953 -0.3770471363962539
Ni 3.5886653553772314 2.955084925086673 7.491749827366244 -0.19577022245821124 -0.2697282620029161 -1.3600865757370446
Ni 4.373563495835441 7.142414035531393 5.687650114054976 -0.42400036521734075 -0.1365021808255133 0.30727048192274825
Ni 0.8069250914572087 0.3538207942353159 13.123081579971494 -0.046192953616294635 -0.1440473401626229 0.5432679273321225
P 0.3206290500266496 5.5298398289837944 7.803947799932081 -1.234768436552809 1.347716484207466 -0.6644080238792687
P 8.660398768960379 1.5539828985925925 7.873846585063699 -0.630721687370417 1.2075432822882688 0.3479841575920265
P 1.8741766261977988 3.739928536640318 10.302195015464317 0.7513532197122609 -1.5800963874689111 -0.25529588862767
P 4.286389953737657 6.055798377964725 3.6380603635773636 -0.08566658623088472 0.06526488264608114 0.04276927264672634
P 7.006637063164744 4.254672307582395 10.169632522021768 0.5260963006488424 0.5235151701852274 -0.5078736069932286
P 6.304668298399016 8.076630492989873 10.017544136669601 1.3519588044235877 -1.2868481879671838 0.026556410332289747
P 2.5490445253947622 8.43006867607816 5.560927666291332 -0.09629758358216964 -0.07617021670467526 1.3951561657466682
P 7.033119934481773 4.165072229231472 1.20569587935554 1.5874302021261628 -1.2275752612384794 1.5355296566021297
Ni 5.284059879808182 3.3502195438656 0.27977417709645985 0.7175272723017514 -1.4585675401237785 -0.7529028235875678
Ni 1.548111953201103 1.2931257073047793 6.874589867870335 0.4988557197653344 -0.11350494859939161 -0.13753036497971155
Ni 6.775298185548073 1.0136014543542422 9.168141937371397 1.1404423748747132 -1.296386209364606 1.0988905195748557
Ni 2.6708348337405092 1.6833799891251462 9.163034396643816 -0.17051684720806115 -0.4671249643209568 0.7387982658653857
Ni 6.635395192736012 1.8316168161848794 2.1860492429663987 -1.1963494704549784 0.8760573794615815 1.0934297535706008
Ni 4.416096041396078 7.093628842247312 10.433479714909893 -1.9798188539754935 -2.1961175354043596 0.571145627578997
Ni 8.513997748354331 7.640690077294865 0.23443066650550118 -0.47468195073260827 -0.7857221841104339 0.007996130831599132
Ni 7.606091487348424 4.097892618807491 8.015905287236226 0.2788929592213197 -0.26100270920446017 -0.37134571513610243
Ni 3.1887412811473523 8.746936140504905 12.450454818752151 0.03429594506839255 -0.516655981171549 -0.16062915578070402
Ni 0.013133286664460819 5.141748527044503 10.021428412304775 0.05637786456909645 -0.34871769332394137 0.4219460537914733
Ni 8.745645623096868 2.265766866180006 5.569534145061827 0.5155648049898991 0.9372465493763923 0.682769814215908
Ni 3.955463120083922 2.704061112922067 11.085290066811579 0.15522546826662942 0.792934385588157 0.028661115380118382
Ni 1.0863066604408012 3.6069325384064794 12.567254823515132 -0.432240750849262 -0.2261434354334299 0.05560241985565262
Ni 3.2290381416208276 8.349974803423054 7.792947502251185 -1.1658096499949082 1.3950330099052426 0.03323922166910404
Ni 5.79259644378062 7.930293089439151 3.4166448377764325 -0.29327673874681753 0.9207040716366789 0.17814993827328673
Ni 3.106229960389869 8.408866020353166 3.431223140411864 0.7621577665269326 -0.8329368941230236 -0.2803929408056139
Ni 3.8700163266306937 4.6454718784484115 9.392670154807908 -1.1907236396277685 0.312590608584081 0.10780455578050467
Ni 7.462671380191924 6.486249550600197 11.353114234472638 -0.3463710474686357 -0.6630833915305742 -0.2828411452357903
Ni 7.968654173800572 -0.1530608174835764 2.294881665957369 0.5106719956739723 0.05889240346083406 0.2596850188343012
Ni 4.33075830575198 0.22460637553305485 1.214033348863516 1.7975209549721043 1.3686864015909137 0.9480310415864062
Ni 6.222893117853158 5.839400420198841 0.2429262698367156 -0.880371176345587 0.5205851410226261 -0.40765123443535595
Ni 7.893540607762396 -0.3356744836111869 11.164912264442199 0.7100954986140544 2.3883054398279513 0.6834886946598034
Ni 0.25489172912841107 4.8334693650867315 5.610090017831986 0.18297229936259454 -0.4649390124132315 0.3836368737986296
Ni 7.589269320290145 6.3941865833930915 2.31883803136289 0.47524219411145247 -1.8548861231551343 0.8388923403755101
P 8.747763162224139 1.6338677437801994 3.3945379110507385 -0.7483332019390144 0.45797775060404994 -0.259036843727341
P 1.8054156775414356 3.211861536682878 1.5522497882425041 -0.10690749788753201 0.025142303593582504 -0.9257807148286378
P 4.630303754828604 1.1621654548413647 8.357858774208063 0.20308835338617928 -0.4406374595533895 -1.2085930637090216
P 8.605715365832525 1.8332435951710662 12.049191151100127 0.2201753907754531 0.19072520383513605 0.1122602775590131
P 6.43096632952213 7.763807255651692 1.2317797808541688 -0.2091792967752656 1.6099638644523044 -0.48229473008285967
P 2.0802595328501505 3.2340820652930824 5.800526764134511 -1.9621456050654469 -0.9740914861188836 2.889729434541094
P 6.53782480616785 3.939976911187485 5.9129499154910805 2.3199143528480626 0.0955121115663968 -0.4410565493686791
P 2.394445992802455 8.69411580828302 10.459231898905752 0.3055097904778996 0.4904898642991424 -1.1957465467636568
