# total energy = -340859.4633100717 ev
CRYSTAL
PRIMVEC
9.46282186182430 0.00000000000000 0.00000000000000

0.00000000000000 9.46282186182430 0.00000000000000

0.00000000000000 0.00000000000000 13.84979631147237

PRIMCOORD
 96 1
Ni 5.785947873249819 7.40970188576872 1.573226328258785 0.029219558986749678 1.0965618714416794 0.29229252045667725
Ni 9.134821647368891 7.989176715538115 9.856844427489317 0.2559543481472753 0.38407524688762884 -0.2700175111085608
Ni 3.5792840265817163 6.748534513820589 1.6047895709828868 -2.313543930545345 0.44643452585114085 0.08593423806997458
Ni 3.227314362926203 1.3230349927229985 2.2979166778962044 0.25453458498161324 -0.6698875589366012 -1.1065112693449073
Ni 5.72901007337846 5.751947953865111 10.46672046544331 -0.8927731495543656 -0.7666579683901312 0.9662367659611553
Ni 5.661738871901728 4.139672344411518 0.3668546826346804 0.724984499910745 -0.26267186937676695 0.31645909040055176
Ni 8.175679473999912 7.214606884946412 11.760332705774749 -0.4065741993210933 -1.7975641495052137 0.9316466866911117
Ni 6.265902204224618 5.358559518390261 6.665602341962089 1.3739584486231304 1.25734066542637 0.015265153689186612
Ni 1.550369828041188 8.849394547897422 2.548861254061833 0.2238818930927628 0.40594453615689446 0.5603968737029252
Ni 2.344357369341887 8.866796677524052 4.958047470526655 0.1665673756420099 -0.6349843193015129 0.8893980624345456
Ni 9.485059614601527 8.20108715102411 5.572548935865909 -0.5838461058648009 0.42445982135226257 -1.2630672834975023
Ni 1.69397761445431 7.287991069424125 7.093824371438345 0.06714384483634887 -0.8264636276938541 0.02088378542754468
Ni 5.562596885986449 0.2526601857911359 8.962147856952965 -0.18556679956264815 -0.6908651896295327 0.020299116568668264
Ni 9.074751653421178 9.309476952708044 12.036609256388711 0.0374907978566064 2.1874416048969167 1.2158505166023836
Ni 3.3079092177549168 1.4832594945381659 4.472819508860763 0.19562572646054696 0.05303388779752802 -0.4274111906711026
Ni 6.483566035476241 8.904714205209698 12.398559358389633 0.3337207056944769 -2.067984295368832 0.6373343075909281
Ni 3.9797222644338563 6.231476457850677 6.1235624359572105 -0.33344431210463865 2.17563587051124 0.47447549114875703
Ni 6.048323538370842 6.5176511202587974 3.9651826384570663 -0.10139608115099956 -0.336746122784362 0.328940253586698
Ni 3.5518891569411 3.641521006763523 1.5767020227731197 1.0985017687768694 0.8023497653647859 -0.6839579209867382
Ni 7.720725918704044 4.740930590385645 8.915003131551751 0.0005255334861668368 0.302347333589518 0.2098434127218257
Ni 7.162021983187206 9.175038640796393 1.0220055923660567 0.9255932814081801 1.697957041933837 -0.43399064366083323
Ni 4.550131710743594 8.484498669413211 3.6695867904827297 -0.7493541870043611 0.1480178947745967 0.012235365723927314
Ni 6.070116417397556 1.6161080523566833 12.140787356163312 1.2150717294548299 1.1381908598363752 -0.5956078743864193
Ni 0.21244603121022898 1.4134995708799205 1.159084031610949 -1.674860822236006 -1.6108591225730644 0.6638868612684761
P 8.289252263439177 2.0574067555311655 12.79811187610417 -0.05233377640670986 -0.3929229270862459 -1.0637412253672325
P 5.317708515889902 2.5484136625820395 4.7203565228303335 -0.04978221362944975 -0.16893587587418646 0.7853511739242603
P 3.2341370575759036 6.577919833468152 4.176406073067099 -0.8408720898097002 0.8616707717226063 -1.1818919002687516
P 7.68709504937667 2.507732990877374 1.060654596190985 -1.1154036867385304 0.33121336589159084 1.0081557747924446
P 4.375069504059174 0.3029702251456433 12.362397184181823 -0.6381766009865654 -0.0516236377135627 1.1050858497522904
P 5.041327874234127 5.437441602440063 2.362858132600736 0.536494870274347 -1.9113249228691536 -0.9452879316236302
P 2.932140556812305 6.9196601865601055 13.247427482062601 -1.371200169151703 3.454282753614554 1.3984140105623335
P 6.035861001819308 2.169929171730324 9.868506409301094 0.37627451989628746 0.7619993865721973 0.5911207851493433
Ni 0.638126346701866 5.710491330757843 8.985595783544497 0.19538918496970867 -0.4433643715662493 -0.40073085316643886
Ni 1.2301573949604268 6.39436001264305 11.230578381550325 -0.4299398706302273 -1.5993778614063423 0.3053794355476224
Ni 7.621281122485311 4.141385115190431 5.021507047308658 -0.4518153305470799 -0.033769383140961194 -1.1726384999912836
Ni 0.8448606185631914 9.416633948842874 7.997343130909394 -0.4264771088926074 0.20301224873260523 0.37591893632908163
Ni 2.00752822085908 1.1873854395975307 12.374349674628474 0.2509872339499871 0.5581512722018581 0.7271470547797025
Ni 3.9206837180822838 1.5400458892577986 10.55221516949479 1.1583627067985598 2.9109140390385093 0.8526454282955443
Ni 0.3013870950278972 8.393901611748529 0.6266451047899628 -0.6818012796550516 -0.42293284318477486 -0.4598806240537177
Ni 6.821038655853888 3.84089320312212 11.577792977159408 0.22218907877137217 -0.2910311372457504 -0.03377966755360634
Ni 6.935321156941874 0.14689611705219413 3.585006195034801 -0.948039269116522 0.05988073551603236 -1.1147218301801576
Ni 8.682517682228248 7.40905841387388 7.603440864200872 -0.645399858207882 -0.4709335394337696 0.0061660196013958325
Ni 3.670278522769683 8.17164831183518 8.235573459458742 0.40393110527129145 0.6217367102629872 -0.8589795980436884
Ni 0.6516193845673425 5.787007709311909 4.8417361404055255 0.2839310358658594 0.5106825371969335 1.0377689696731869
Ni 7.49311666154835 0.39179300368852477 10.494475868601477 -0.20748519690229428 0.45035828638557923 -1.6890682240846393
Ni 4.395395645678533 4.135537091204973 6.496468593249982 -0.45372771707844434 -1.763443810782737 1.0803947747635134
Ni 8.26181954251063 2.0823318286342336 8.115122144720077 0.09497397967473965 -3.33824501129098 2.4985977950273157
Ni 5.767873883262401 1.6432947399136746 7.002346325047049 1.1596081491698869 0.20244634892680619 -0.7908818739345024
Ni 9.031922921126384 4.801350708746728 6.970284391604447 0.9099329491631039 2.057435059098076 0.19334130130174446
Ni 8.133882189301259 0.8807937924790156 5.512620884247939 -0.5564530585638288 -0.9233407379285775 0.499614709418546
Ni 7.156978299070299 5.552783939590138 1.7960000833811967 1.2723219693265506 -0.9722068675016611 -0.21491259971461696
Ni 3.7695245997267746 5.239204944719419 12.836600958237588 2.609000193441984 -1.146892244265115 -1.339360656043603
Ni 1.4352072845087884 3.7203652395253926 10.630286289700654 1.5946706857386599 1.1394015923150247 -0.9386984513315705
Ni 9.00286259481677 2.574389108925214 10.313389629442717 -1.0121782656882763 -0.574768826153881 0.8699026727140955
Ni 2.055012661569481 3.512372412340336 4.954474308945896 -0.4248349453034941 0.9325774260354972 2.217040658710272
Ni 6.066671950195765 6.258322483816282 13.164909781806955 0.42818714960517873 -0.03410388366224449 -0.4167377701176565
P 3.568307153081504 4.285929720979865 10.89866800793425 0.18805588453308902 0.21615855630657613 -1.3784028575477294
P 9.228598213219842 0.1308727205884791 3.591501476043892 -0.30216735636822795 -0.3839348646550227 0.0984889348065336
P 6.597271304423267 7.585587357965656 10.30200490831504 0.24744091135962545 2.3857369077698265 -0.39053977156604996
P 1.6157863164092632 1.3728094363532715 10.252173687752869 -0.4572419008792899 0.6842412565551119 -1.0853613747401696
P 4.3133813675523776 9.21096897586562 6.307100492291751 0.14916229279168505 -0.277445942362148 -0.1124184004034322
P 1.8266179901892026 2.482902545994135 0.6631933621346783 2.199851805635811 1.4295336147852735 -1.2624558751657484
P 5.209567386268845 0.3074082886556429 1.969829284361239 0.5369936642876365 -2.092579725320009 1.5997339591941802
P 7.297945958150179 3.433944543745716 7.099156671625732 -2.4410953299354734 2.0979186210344194 -1.4741497108327515
Ni 1.5576940522559848 8.287766600387855 12.454651181975718 0.9549863898583164 0.11125729021579547 0.42146628594157737
Ni 3.3260683731401817 8.945782852615666 10.532174805099316 -2.4164435928250643 -0.5975788820698611 -1.2465564303266723
Ni 6.321742316745957 8.312880929930582 5.534364556600343 0.09479400245344964 0.23686082185093402 1.3506128319186546
Ni 0.7942316821078589 3.5784134469592854 12.724694571749517 -0.8634224643063905 -0.5736686511111669 1.6730147701662028
Ni 0.9567386165853118 5.41986914201774 2.499556166401914 0.28803040274621367 0.9278674221543374 -0.818563399010171
Ni 3.207063923882708 9.2433223642253 0.49982909598557085 -0.42168225860712544 -1.124945564790695 -0.8977567188118861
Ni 5.83722690557538 3.087680961745916 2.6036784355268154 0.2516523783378118 -0.11014605942948771 0.1537465697282578
Ni 9.357425071695609 2.7022696852026877 6.245177677799778 0.9052789953308602 0.15082811052988218 -2.27342906480233
Ni 3.17294098781222 1.0086895092716612 8.367064102322708 -0.7910960468278375 -1.0613562700748238 1.607087057125142
Ni 8.338894227561688 7.678758303209698 2.7182580692250653 0.26636525906795416 -0.4214680857137903 0.433886256872485
Ni 2.0281477099599097 5.144586187711986 0.376841744955477 -0.852970415735131 -0.5960935557735864 0.6527773816188758
Ni 5.398785974639746 4.321349063662015 8.777169559112622 -0.11994350513588377 -1.5005346285841834 -0.7869334308097157
Ni 4.58894820651762 7.613218798155845 11.626350501882674 0.6476842833666846 -1.6811194015512076 1.268219774232719
Ni 4.8392776992543585 1.589754093134191 0.45277237482879884 0.32498846802780157 1.0827079962777224 -1.232948866845567
Ni 4.287301830167391 4.456232128206864 4.208523837159402 -0.04664932442742289 0.3247627251702407 -1.0617519628513457
Ni 3.2741742573857295 3.3364869401434 8.88137604735317 1.7258324281878663 1.2765676319767822 0.46771477538615575
Ni 8.175887656083537 2.237389629646715 3.3591712170009074 0.7930056051457246 0.06656714639727246 -0.6163489635885127
Ni 3.3618756915236325 5.972242449627991 8.689998989287961 -0.3691548781323707 -1.5499170356720533 0.0935138501894454
Ni 0.029688657689281014 5.938564266190702 13.434815014379803 -0.2714213334346229 0.1741467306511646 0.025848328521671612
Ni 6.095249672584249 7.4752697792885225 8.049196556529319 0.3103069547562268 -0.22880015632998657 0.4710217282722017
Ni 4.482794269512981 3.1936645679548628 12.510853720579004 -0.5522955847520296 -1.2869435758944674 -0.6079931354246497
Ni 3.5353765325808673 2.0822845145243187 6.566312736023876 -0.30391519229727015 0.5878236024553103 -0.35945204902231
Ni 1.7787644994214666 3.053340380769821 2.811758320674115 -1.8044112543340345 -0.16556233141626325 -0.40674157813689304
Ni 1.2747178236780987 2.763153481840934 8.309102425112792 -2.043626692460074 -0.8255979372594491 -0.6402152286831491
P 1.8672608106059367 5.098861831890411 6.756235358350307 0.3683483230706753 0.040548867956639846 0.5212371727843281
P 7.618972193921473 9.34456509662079 7.524622181058356 -0.4529823542719876 -0.25315493102526726 -0.31827300368083894
P 7.82175100619393 7.160678262465628 0.27698531598048565 -0.05091684145452522 0.5132747234041418 0.558796876205657
P -0.011153828271293279 4.035761096216836 3.7362457473771653 0.27300667564387177 -1.0414024526607162 0.24311425895981356
P 1.8197858327175187 7.667450230940083 9.565846564716493 0.11745493438607514 -0.4678543862878136 -1.2916039574846143
P 1.5015132781432605 1.3515464753576019 6.388509149810998 0.5252846033808244 -0.7077259699406134 -0.3447643651031482
P 8.59226128615495 4.895534175942946 10.85929320566323 1.889870095429487 0.5783231191640428 0.5015484361061492
P 7.933147346577118 6.438012010450359 4.949196893126008 0.6512935979844977 0.691053651491255 0.6732829577713954
