# total energy = -381173.1988344552 ev
CRYSTAL
PRIMVEC
9.21321095696909 0.00000000000000 0.00000000000000
0.00000000000000 9.21321095696909 0.00000000000000
0.00000000000000 0.00000000000000 13.48446552115554
PRIMCOORD
 96 1
Ni 0.24576792284989613 8.014406133864405 1.2725387938319208 1.1628343694166683 -1.127533637232845 0.32851782133729873
Ni 2.331614866746831 5.578829397789866 8.765468911245536 1.2367494715385798 1.206751896735225 0.3047628850095461
Ni 2.8256272234777544 6.112615185031931 11.329728403547831 1.1932471773805708 -0.053170156265076166 0.21179513713155781
Ni 2.2470468059032433 2.827995018622847 0.7384093538314436 -0.274724686776243 -0.6062653541002655 -0.2839243509976401
Ni 0.62107358787877 6.335445898569681 3.5533722859456014 -0.45635101363390446 1.1129274572838963 -0.7877939790377981
Ni 8.028041685672719 0.872598846083406 13.43097246513534 1.882076310416681 1.0826084945853807 0.4540303359205277
Ni 7.113455474551457 9.06069519167475 1.844337367023932 -0.34767459677140766 -0.12466430765032079 0.607258057030838
Ni 0.9773097494395039 7.765677085101542 5.347089509523306 0.6463933324694028 -0.5905739115069377 1.1469714342424826
Ni 7.851470502965741 3.481285361611962 12.813518747733252 -0.4354453738294888 -0.8318164073653352 0.9535182899532224
Ni 7.047055865171378 1.60189172794571 3.6577017623794936 1.2862426931727011 -0.30302121972809104 1.1173638957886949
Ni 7.518680119946762 7.564571122350281 10.544595173067277 -0.1036609659257763 0.5885982758378057 0.43715361476984715
Ni 0.26544734086513766 9.071207465062104 10.670041328382693 0.28811036405452967 -0.1620851715009402 0.0675657628651159
Ni 3.3108041111653184 0.629090002492563 1.344399994503869 -1.4282061542231017 -0.876241984668562 -0.5333013030377138
Ni 3.0531382480416007 3.0692705799445443 11.453799026508529 -2.150914199394844 -0.9508672254836205 2.0186329986292137
Ni 2.6292015717525903 4.3528274524302235 2.6456793990560827 0.7479182258887829 1.5935854230942812 -1.396521421525311
Ni 2.783357012871983 1.1161251947745436 8.866696299643037 -0.3414802950352377 -0.5437602935875087 0.02717990284890158
Ni 3.3770839488065394 8.25430892679459 10.391492801928756 -0.08719767816343046 0.6848359527163174 0.24300498707545892
Ni 6.572953256722729 4.539487100833217 6.182397885374179 1.4599633920300406 -0.48468045670621696 0.6748955536741538
Ni 8.070486947281434 6.1199028346808335 8.762232310333198 -0.788439583041597 -2.0383626158476575 0.9625744866182198
Ni 4.849511640258722 6.044446639201045 12.871947087231874 0.3223931964967996 0.9267914154813394 0.1374239213088343
Ni 7.290146428997291 8.149250685395808 8.066339159832717 -1.141669048192963 1.9156155798247074 0.1294946391594286
Ni 6.117903567962992 7.667657736663267 3.7321767509217247 -1.009446725689726 -0.8473139887803022 -1.121436780306488
Ni 4.398764520887149 2.7578364192848017 1.5959805319725928 0.1013819400836125 0.21073224308468225 0.4678268754839879
Ni 0.6233851824387064 5.2547639252860705 1.5448204943804416 0.752489390199233 -0.7549573921237515 0.4013697723020184
P 7.502953169313794 5.5693674304201775 4.188396517437985 -0.6971168269661994 -0.08167469146267224 -0.8511359336295535
Ni 8.6176687428541 4.1101514830849695 10.694448044798506 2.236300278270832 1.5793530815449832 -1.643625775481124
P 5.289350318183644 2.845371133967765 3.6981413080228926 0.2975887358586101 0.28715828455390546 -2.3411305819143617
Ni 3.691162300931813 7.96598149852353 8.00208622854138 1.359890914786471 -0.8595470405113842 0.2862257454373071
P 5.92112781423194 0.2660240878537866 0.059665673693120765 -0.6559938316736444 -0.3451083787061282 -0.22227135407253332
P 0.49597108532176665 7.579745280342371 12.43680346147014 0.5951576742228782 0.21893406216918426 -0.3583709001429893
P 2.1788966864937205 4.472212236438416 6.475806399335973 -0.3313182669005713 -1.1557062430123193 -0.16127193157102548
Ni 8.981424726972906 5.567607707180051 5.761655429228373 0.9127765892594861 0.03722957377541976 0.8537546021993232
Ni 1.2114634989045623 4.336040982568908 4.40178829663275 0.6332136005543353 -1.0100684184341249 1.1085650665501423
Ni 4.94099882232396 0.534255660986811 2.8399362609868706 1.3974182223079676 -0.2158006587465251 0.12888451637925546
Ni 3.7054151378557734 3.816766002149879 4.755944115221649 -0.6937556238034503 1.032336485803706 0.26790997784725473
Ni 7.703902507483473 7.647784841223718 13.211417969315859 -3.789047327192513 5.467253154641352 -1.4019978712588501
Ni 6.643498810909388 2.2387733427114425 1.4300275745758049 0.9342332164713653 -0.02938308114780746 0.08538427910377554
Ni 7.874715433514643 3.284048947346844 8.309855373992105 -0.788207669536449 0.6650780533630998 -0.6328019669382134
Ni 7.181753005331881 0.8563172601674253 11.36925123472844 -1.852815613779351 -1.1213439634823656 0.6421420133922167
Ni 3.8152089695447406 1.3824514759386766 4.620964129493231 -1.1405909846374358 -1.3890513384005108 0.20480842140107955
Ni 4.369715267609033 4.660548689185406 7.0127044091461785 -1.7208084926107137 -0.4975164321286205 0.4605755932382132
Ni 1.464513543476952 0.3352374117759312 13.165382319504642 -1.1349109035335228 1.4596497174443637 -0.6977074093623468
Ni 1.5832994687908613 8.067391308492521 8.583280433986175 -1.5746155668599977 -0.6403486689372198 -0.1131722478503212
Ni 7.833836417721747 1.212780988031987 9.357976018085889 -0.7174131153213903 0.1439558088900811 0.4626317044362936
Ni 4.706089589583036 0.5812577765984946 7.333000757160257 1.357547868475591 0.9495742177038099 -0.23836594564155075
Ni 8.432842523376683 3.3191512800425698 5.178438924039036 -1.24300419419904 -0.7251374805488415 -0.338015733525405
Ni 8.497298145303008 8.388250583679227 3.896713637836798 -0.454760529218333 0.6550378955182783 -1.866847923502701
Ni 0.6454287103147677 6.697267108445414 10.399043949403143 -0.3466111885038998 -0.45599131630164047 0.1690351204562121
Ni 9.217540890313078 2.059714593120516 11.532210819974877 1.0809904993659836 -0.858319081641554 -0.411358250973298
Ni 0.18948441879787797 0.6043930699402892 8.038615687571639 1.3497288866518045 -0.5326089049563796 -0.45564807402960883
Ni 3.420146495530902 3.5091553239228728 9.24357373841414 -1.2203787434900402 -0.012101668359540449 -0.9062369883687555
Ni 0.8001277308643563 2.3982263799725785 6.606861557314159 0.34728533175278903 0.3707412487828841 0.12133447194613942
Ni 5.091957279336944 5.857353969896031 5.093878233763994 -0.3870399859429076 1.0190554524240838 -0.9279923777679759
Ni 0.5561702039133343 0.978258710139677 1.9081729398714062 -0.4676764659490526 1.5474852863021091 0.22665225674904835
Ni 2.0740227093085633 2.3288877563851678 3.3878772251196736 -0.7243797764472105 -1.3355698215426033 -0.04058229229773656
Ni 4.671180734311617 4.502063039045805 10.981357559945716 1.595924355640103 0.49191014168543673 -0.18350837437172268
P 9.055978027805926 7.214478329671834 7.270769204292396 1.39850657027614 0.8335907256569386 -0.7900367523253878
Ni 2.709015615884631 5.399346840507599 0.35128129685633463 0.17079606901137684 -0.01632676218448156 0.505634947470697
P 6.148463787792841 4.863552573337013 9.031773080704035 0.37479047915159325 -0.18934323588594487 -0.0655235356241065
Ni 2.5116317902486123 6.572934830301366 6.559760860348185 0.8834994375619236 -0.02821862852606108 -0.8028408460685915
P 2.5074029265458986 7.21738049103644 1.8747317490615172 -0.8531686477888663 0.4463820753466506 -1.7668096419311765
P 0.08030695090348931 3.094358152629705 1.0485923604806668 -0.6273368300585841 -0.5480712622580368 0.209590159060439
P 0.21977929816010516 1.4288492049296675 4.391242855686942 0.11820955316391255 -0.21787322500483766 -0.2315486656094012
Ni 1.9425870457292393 8.926661402683301 3.563796112510416 0.5059277961207674 0.37863556392929626 -0.5371528155733201
Ni 5.220278877705991 6.609575769180868 9.919401437371834 -0.21967942497564102 0.5095844190367482 -0.2766951802390525
Ni 5.462355988356962 8.025931860426702 11.849500897343647 0.08944687920892337 1.1753654120041435 0.3032132811342391
Ni 8.638039151670439 0.036087224917556046 5.989098276033178 -0.2310889523641633 0.9422182915593708 0.18425296584723105
Ni 8.396238437339907 5.875863310154748 0.010759187433613815 1.4041822805046786 -5.410293192316541 -0.8144185236038618
Ni 2.3432235122052596 0.5607546975483456 6.315490084234 -0.545188541393603 -1.677875954913246 0.33619462115626614
Ni 7.556472710161424 6.801809410046044 2.1086330565539084 0.018232206737310536 -1.9332170949565546 0.7145864445058725
Ni 6.929006996711974 5.328635448528677 11.560771773086882 -0.918784743126779 1.2849293736779162 0.24687861109825227
Ni 0.47139116054514535 4.607932042984542 7.867996238964776 0.40757615822304644 -0.17829109183684133 -0.5772885072519413
Ni 6.339978798224876 4.573695752092857 0.743644300140554 -0.09992438170147953 0.5162965409496012 -0.001506923562829663
Ni 7.185687046292792 7.0446327907622 5.778510998169799 -0.05573071790340079 0.4820656447911892 0.555415875548566
Ni 3.804595350839891 0.7730583965616497 12.380937315861983 0.3413352848169412 -0.5341549092872607 1.3255342916834723
Ni 7.07421641025983 1.2213216343335458 7.180774562357527 -0.4709888181517372 1.1438624562998558 0.029379995824013915
Ni 5.456864914790911 2.3939053841630518 5.721876470790823 1.8028423671850173 0.5735429241665799 1.9923036167060655
Ni 5.430883660669664 2.958251391234965 8.326023637416707 0.7396354170547004 -0.8652374060279422 -0.7852740408294219
Ni 8.150641880208683 3.87207290586968 2.8230539737344693 -0.4489382661096011 0.40860331393598015 -0.49751746056988505
Ni 4.716869046080149 1.6992385120042506 10.436382328331222 0.38026127245817737 -0.028826694423705196 -0.6117927116763979
Ni 4.934144193577079 5.008983103941221 2.6019627143733484 0.23837340184071848 0.03199969283504812 1.0175300169184927
Ni 5.522287923838772 6.4457556700568 7.4526075795458695 0.7909631207943991 0.9114822959280947 0.7537258337094955
Ni 6.246492349441797 9.158981723222782 5.383052356096665 -1.1180010151520616 0.8826373466719444 0.613584513469498
Ni 3.344635020787026 2.55522870319249 7.0172612631491464 -0.7655449378316106 0.3150267288293994 -0.6163937007835191
Ni 2.7542064142763723 7.712185183885955 12.99295616028318 0.8526132895060283 -0.4796025279626773 1.1208104595763988
Ni 6.666025111025149 3.071583095825549 10.417827843340165 -0.4889510590571128 -0.015463128632605625 0.6261065571959088
Ni 4.77438712036346 7.405947274050462 1.594187641174013 -0.17020188707080366 0.2584542317509936 -0.43181137662132735
Ni 0.8925417619241326 4.02970172741592 12.69339874951269 0.6730960385715699 0.9725035728064737 -0.6075015405002119
P 1.5982617229372806 4.640141427526341 10.567020127865545 -0.9401930335992259 -1.8677802055089832 -0.6084479635738812
Ni 3.188554018635243 6.728969766399743 3.7349674324370885 0.6103894035709682 -0.5720259733014212 1.7283271695852622
P 4.370627375466482 4.042766060161993 13.230862450458728 -0.5691589361662713 -0.7573212643702376 0.31225842205564286
Ni 5.709094983612665 2.3449187429706178 12.680413650378476 -0.5310970962975434 0.2919631621417166 -0.3316411974576288
P 3.8133202613550754 8.365106998447818 5.213053877889721 0.07193818090119869 -0.023135300465882736 0.055333482464982126
P 2.189362893827669 0.9392223364830392 11.008528239565917 -0.7872609893524635 0.5174450527317476 -0.3399499744336403
P 5.335268960219207 9.1348891772912 9.495086098123823 0.5028000491250632 -1.5451561239483 -0.676689669460099
Ni 0.815005223472508 2.6182378510418522 9.153780865793191 0.793622155683801 0.3250170072728919 0.9459551328939837
