# total energy = -340894.49974941637 ev
CRYSTAL
PRIMVEC
9.01303552790711 0.00000000000000 0.00000000000000
0.00000000000000 9.01303552790711 0.00000000000000
0.00000000000000 0.00000000000000 13.19148854668494
PRIMCOORD
 96 1
Ni 6.376515418045399 1.9532870586152804 11.294552223882054 0.024485900956506216 0.5193366133275056 0.11066130850300943
Ni 4.5386132417398155 0.657546015380715 5.959624664778006 0.26111789462608576 -1.494049535080472 0.38742976518215855
Ni 2.8503274571184183 1.893710893010914 4.922219755678862 -0.5844035210301677 -0.5909755178207305 -0.8493186779151567
Ni 3.4798789837900315 4.67315983782786 4.975169537478035 0.01164941131347026 -0.9702957665218774 -0.37779121365113
Ni 4.913735785227518 4.624922071063175 2.5760734007327883 0.804577369143724 -0.5561530108249068 -0.5084240801800598
Ni 7.11121301853555 6.030928592361858 2.4636556097569735 -0.44059966433691855 -0.027433670730920495 0.37145910078551514
Ni 5.0070116911034 4.063157585467271 11.409186320322636 -0.4046350733168515 1.4955896258740822 0.8429413136339031
Ni 5.4596102889837095 7.59689847026361 12.364131867621813 0.01849008838438751 0.4387358716553025 -1.0221587739397555
Ni 1.7248516702275862 6.556415609492168 0.4428437894032134 1.189844579456925 -0.3589121173584399 0.17977230436805813
Ni 2.8940677190969337 1.4535502843188082 0.5517032339069249 -0.5922924368599413 -0.5952363499796136 -0.5481787343701785
Ni 0.6802651743276024 -0.03274075327903482 4.84555036797636 -0.8409463946910612 0.33835049115700433 -0.8016015743448517
Ni 8.655767923748048 2.4373321378562003 1.354898102681503 -0.6011766267234485 -0.3573702267926168 0.21398057481865082
Ni 6.820479527779115 0.8692369861496811 4.641834131144874 -0.2908457607078217 -0.7983504143974057 0.8606970949554273
Ni 0.7506218318653092 7.423568781801044 2.559993243840996 -0.6046072496715523 0.529092921383321 0.5053091887001621
Ni 7.659340781202649 3.8586157545708284 3.7057663870012725 -0.8296078297497906 0.2154023948668419 -0.09184648978935149
Ni 8.002881647795087 3.836245400103349 12.368748344478478 -1.0468850730418422 -0.5278605916381167 0.09747771993319987
Ni 7.977293639602833 -0.15818778858127513 6.790055124660491 -0.020393733165003588 0.3879195603343835 -0.02779722471792632
Ni 6.765238632319333 0.812782936092267 0.41174160600418974 0.6845549311407888 -1.5477835342688182 -0.6805429817679183
Ni 1.5270786290995069 6.588249651385454 9.295989082014584 1.5635371975586492 -0.47468323628418896 0.3481836751973423
Ni 9.064409946794393 4.866110904886599 1.533879865796187 0.09901112585859077 -0.8879798419307803 -0.9021628182993818
Ni 6.369169793995844 1.9807407651857643 6.79531873747637 0.20690567024974044 0.24056012507939215 0.7333431562880854
Ni 3.4667289647859816 4.173414050495744 0.4496621508676163 0.11382993603897815 -0.5359266564757028 0.27592127818750545
Ni 6.022149895644966 5.734859384504396 4.860403850717055 -0.32088421605144096 -0.5236069585680853 -0.19924609682195363
Ni 5.255176614514991 3.0950403878785 9.129051438430478 -0.17945580156890387 -0.15706740657137466 0.13478262703124527
P 0.3269983409721276 5.5183121901306444 12.349793029216368 -1.498734085040335 0.5328894123112757 0.3963923736920851
P 3.96255408161312 5.934344902404764 12.588532119951855 0.12527751575428747 0.30698843190595515 -0.5340482085060673
P 2.462839028727661 8.355778045385609 1.707004958349643 -0.8847703338545472 1.3483487184748262 -1.6667435924455103
P 6.233595711844425 7.921466896826215 5.795099810835697 0.23684950899702437 -0.029898073111013026 -0.6763844795148545
P 4.72484058420841 0.6683499412067291 12.537956371741215 0.24736043583067724 0.8508040042114314 -0.3892691323837425
P 4.0106836919500815 5.989648889114052 8.15339573782938 1.112907402679238 0.8721865836522656 0.43427217945699403
P 4.658540694013898 1.227701637160835 3.7823690782400123 1.2141101368725091 0.08992124774218063 -0.07816050766182668
P 0.1079428187787548 5.633633981190835 3.5375615106056717 0.3575748866042551 -0.32998129325670267 0.6687421324782483
Ni 1.4138658883799242 1.0895227877084088 2.580400559145293 -0.2480363788517793 0.08923733430127859 0.4396139033848816
Ni 1.7012285038056434 6.582319073931949 4.869770197357911 0.9709375138709343 0.8101764604980563 -0.4444612041748539
Ni 6.050414775423376 5.6641431068445085 9.041248247797403 -0.44685952920370137 0.44165484507431035 0.033191142039988
Ni 8.693793921128504 2.3529160460180014 10.120668323852874 -0.18603062657294414 -0.4374881152911304 0.5203298304787103
Ni 2.4190446885352834 5.367677325418728 6.994364419237328 -1.4376030220569693 -0.4917044534325339 0.14492588611283427
Ni 0.4260687274632972 -0.09485318711351716 9.15370569613005 0.13712747311433804 0.7324476410570095 -0.19302788382638367
Ni 1.5039061144597452 0.9076397284200416 11.43855079044957 -1.2266838597724616 0.7515663641643313 0.22880606986725754
Ni 4.053937250003842 6.990041767342646 1.4637142846141251 0.9375609952930176 -1.6641174676765729 -0.12153321822050682
Ni 5.667135434678192 8.195418115214219 7.905329056506304 -0.8132846671097347 0.014305360879078589 -0.19417305317442043
Ni 5.378898554795041 3.091480238799268 4.6774248062944235 -0.3193137862405275 0.3091658991732482 0.3456866198071014
Ni 0.49727441295863356 7.105886314470167 7.139550002599108 1.6228000969850245 1.7122266644789739 -1.366585553197827
Ni 5.206416091682976 4.38487789276649 6.960001319542441 0.5958359312368254 1.507987485317803 -0.13035235917403357
Ni 8.200861988742968 6.9812720836613975 9.201050271062453 -1.2674152760535529 -0.24062851642348237 0.2713789102324617
Ni 4.683957454528923 9.290096359310782 10.214895104989159 -0.23834331993373145 -0.7008035317891672 -0.06468664154510795
Ni 8.00984872434761 7.176981139627087 4.575876736304822 0.3516284392128331 0.8416704173412795 0.23394519086603577
Ni 7.280306580245613 6.317903647254901 6.940266376697158 -0.5923122343542832 -0.9585555952668138 0.0983341543962242
Ni 2.3329792111743015 5.247254156184243 2.539361503949172 0.341870845605437 0.16174630010428273 0.4268362920042391
Ni 2.188085650167374 4.98533534038048 11.632017403147124 1.4091910465731794 0.28408838737933007 -0.8163607349318973
Ni 0.9663596556382632 3.5265034171745073 3.799860676513596 1.225974749520579 -0.48278992455172326 0.0028516105161821856
Ni 3.4762647564969376 2.7071553859194237 2.602772716219901 1.6896595778117354 -0.15433252413871484 0.9930942524736316
Ni 1.1904777999526606 3.2758599089609195 7.9583987116795365 -0.9224367380570694 0.23117919808512444 1.5929123082866568
Ni 3.6103516877671575 2.8623328205957277 7.239581178689889 -1.0786651936669165 -0.40102370181650937 -0.4722545722380383
Ni 4.115397140057725 7.067004078703565 6.032982663185039 0.11667691856947003 -0.3905423426692113 -0.22127428026658663
Ni 0.6210224910420504 7.5054251715164515 11.432495833104182 -0.06769843178823826 -0.4449111472280789 -0.05647685204080596
P 0.2379459435988479 5.272211251881443 8.033510646822819 -0.37302773082421564 0.20341205527418518 0.5432057066356194
P 8.604754142005126 1.6407510346369147 7.96437435431126 -0.09497243701284289 0.007536160476045086 -0.10153929159708318
P 1.829177557802554 2.9529408679210967 10.456905927663282 -0.5677276030363836 1.060568998286838 -0.1363481717461523
P 4.134685036335084 6.230197797406779 3.6961756157728907 -0.8084093412953044 0.9419611812432422 0.19662280026649362
P 6.842768764925801 4.048304102726575 10.31033594202664 1.1878005524437028 -0.48292362191611016 0.5298591101253842
P 6.213866176820529 7.756546370619152 9.955023149580061 1.0680367674187927 -1.0705695611429755 1.2614176637092211
P 2.4838303887416653 8.561149075561264 5.853077063916883 0.12456583439924356 -0.7020052654067522 0.38429996130392524
P 6.6892497288079245 3.792901711693153 1.390528435187884 1.3181894212826266 0.7266266634998583 0.2967713821636373
Ni 5.238700785358443 2.4341415232383565 0.504318100314127 -1.5909477283611182 1.9555334990655677 -0.3174250538582469
Ni 1.4604993348000437 1.0043225617692149 6.991871413578301 0.4035593237541695 0.2442843680085148 0.14801043857542898
Ni 7.029293537570636 0.8449576707328821 9.07391058766634 -1.3436932219806859 -0.2826596253526035 0.561190316138498
Ni 2.6402426093011457 1.4878899501210223 9.114870328148797 0.16989772556682353 -0.7593282674979375 0.11306991794450204
Ni 6.380490166764238 2.027509407140538 2.611373856134613 -0.1030143334807129 0.031591401653035915 -0.3513772424339755
Ni 4.05099900038402 6.509376576468085 10.409667706551474 -0.10646038304778441 0.9005952167019458 -0.040230051164640394
Ni 8.301132010278305 6.951961691748327 0.5356591291577067 -1.5145430270481337 0.1067663443239774 -0.6553238021898133
Ni 7.5077325086412205 3.727638320597659 8.108043043774218 1.130411987221905 0.35448570615597014 0.41437184098864116
Ni 3.022115916485925 8.249694615860133 12.389024069462378 0.31016194453793033 -0.44546007775301344 0.001230015752359172
Ni 0.23878055069944767 4.661487956669365 10.175241353371463 -0.5535464264399951 0.23331578481215304 -0.009368585699093542
Ni 8.724402190174256 2.3865707211113 5.863471797924677 -0.045768978704998596 0.4614250857227021 -0.4220447841528667
Ni 3.634407479899995 2.1633628933969087 11.342134742955448 0.2820181351138627 0.6896189759272575 0.5513766724821859
Ni 1.2990938924939943 2.9501648529428603 12.652511153468133 -0.5008472962740664 0.3805574635423575 0.251790703687889
Ni 3.079664149070475 8.158122173720896 8.135481428184107 0.09075171406327595 -0.03917409909630028 -0.5238121326003559
Ni 5.753155846860956 7.786722013954011 3.5632982338860453 -0.5305054854601315 0.7464282716068177 -0.39302037189605865
Ni 3.2801681399985725 8.573451869214813 3.7346955275066183 -0.45121189263512607 -0.9860717984092116 0.7599257918726203
Ni 3.106522995288479 4.46417458035911 9.419804757865329 0.10995194114081064 -0.8651263343713747 -0.3544641088894153
Ni 7.2554125757979175 6.073542224884919 11.354771920231375 0.4639694494111106 0.05875999164802783 -0.6637876166864504
Ni 0.5413103025062601 -0.18186863843133735 0.31796367404295717 0.6085266393306165 1.6129334886035898 0.4113315115004206
Ni 4.618991493609669 0.2771247082381246 1.7527533246695584 0.4922852656366683 0.35214600227919995 -0.0754744761892313
Ni 6.191973513242162 5.479069432938298 0.18172713377173244 -1.1587242039030368 0.037185865021677894 0.6428637220495896
Ni 7.579854819861513 -0.17793625098002347 11.405862312777268 0.43843042459974174 -0.8670253511663004 -0.24255221580875647
Ni 0.13615091643261024 5.010842231251941 5.756580800405534 -0.5414385874328675 -1.0046691017954246 0.048782054499709536
Ni 7.831345553425601 9.05242260938837 2.3453144517561673 0.6790579125819596 -0.8382660196454208 0.7663185827728415
P 8.55957179432363 1.730565934825645 3.686677678811638 -0.0008374082996308159 -0.6622148728826919 -0.5733711744754061
P 1.7533148367901565 3.172128881738431 1.6499785805288587 -1.1167892542321476 0.7023719047175516 -0.9873036139337834
P 4.684047584885359 1.2562909862224156 8.205026912513889 0.4103727471315771 -0.9226483398472431 -0.42158841334173847
P 8.47237067447155 1.5841401577593015 12.387638765883953 0.10267443364279093 -0.24146438206121643 0.05229623830055509
P 6.219328076420566 7.719619963587217 1.1797594979652608 1.6195890462468945 -0.37637864957431955 1.3334664020463551
P 1.8331162543788186 3.372028999278406 5.958688210374633 -0.02320934823692777 0.811191532026132 -0.7905376032212063
P 7.067734134590699 4.023950880417498 5.889880893664065 -0.5028663835866242 0.025706403627168632 -0.12496512672019124
P 2.2801718353382983 8.456003001742726 10.214407499760839 1.2318636042011883 -1.0221340913494075 -0.542077506568447
