# total energy = -340871.43631951674 ev
CRYSTAL
PRIMVEC
9.22897005266923 0.00000000000000 0.00000000000000
0.00000000000000 9.22897005266923 0.00000000000000
0.00000000000000 0.00000000000000 13.50753055066967
PRIMCOORD
 96 1
Ni 7.935936021820549 2.386796249262386 4.414017979672261 1.9284664676454462 -0.7249163656769709 -2.5627149372221996
Ni 2.8817459161402064 2.299259467790521 9.028635930709235 -0.024107691681481063 -0.20926774272401383 -1.0301744451553807
Ni 5.715611935361483 6.756390581321066 1.5736815295084507 0.1353644676766443 0.5205038941627294 1.229108152943238
Ni 3.181770505372558 6.230809962655673 1.379982981990301 1.130778626532704 -0.7990181298883917 0.005187971958842678
Ni 1.1775888988366432 4.25416760292124 4.081759366544624 -0.9126418634538347 -0.007969905579354016 0.5257707989886236
Ni 4.455119198047059 6.192186722754803 10.996899308482858 0.08418665925124857 -0.787172029183083 -0.6237357429708871
Ni 3.3997864662275785 4.81026842573291 3.7994525541251005 1.05507455083117 0.31237669280106206 -0.6361498003645238
Ni 1.5399644101168521 6.638361282613245 3.086781330538697 0.09896047512631342 -0.1329892825762484 1.552851692820345
Ni -0.047170189117643584 8.604925606990033 3.9957702833598256 2.193557230876351 -1.1167321757419673 -0.8658580703310766
Ni 0.7331576914315532 7.369231112355091 8.852889575844653 0.566423025292347 -0.39979162918162114 0.2371755248778754
Ni 7.371067677406529 4.885724485333751 0.6296769412015655 -0.6887553423753816 -0.7011663144452247 0.8708182425498293
Ni 6.17704198280801 6.069081490487728 4.250428024233585 -0.7750289660626458 -0.5032942151526623 -0.19733011074616338
Ni 2.4634428460071245 5.794491942872293 12.746516386743101 -0.939813281662304 1.9394823591399761 -1.6916411270181384
Ni 1.5170765642496697 0.4866952760134618 7.775056614902515 -0.3884291529809504 0.7810985692954936 1.0384935065440373
Ni -0.09193069414015759 5.902729304295808 12.997189058324341 0.8858882495090743 0.5604141000941057 0.3802633293407064
Ni 8.726978736664826 6.184019084209458 4.4633477477951145 0.7613517256858694 1.3045543469976952 -0.09947572419983514
Ni 1.9358779987685693 8.091351878434804 10.820572451398498 0.4640874630462137 -0.8518715262439974 0.9667216760173737
Ni 5.587809157309572 3.509371257286822 4.101183579930373 -0.18371149152146424 -0.6011403741688743 -0.4109106219129181
Ni 1.5028270344033272 4.513030985473095 1.1883535695703051 -0.14174825971580104 -0.48020262344052145 -0.19820351449005222
Ni 6.587306619977255 2.2349520040798247 1.9950486177173004 1.5434969910783223 0.7757581309191866 0.32986045140812226
Ni 1.6293654435504796 0.9114189406504949 2.817278791246646 -1.7313029643841342 0.9594387692027153 -1.7966899744303768
Ni 7.796264788210089 2.9852765028087753 9.629072725918464 -0.5821903154289328 -0.8412497848640931 -0.6485314618583283
Ni 9.053038250571097 5.8782263886597725 7.040908654978401 0.04553115166257966 0.9442690034408124 -0.04561394118437306
Ni 5.064295827948312 5.63857772187222 13.317263585115748 0.6080579272243142 -0.21699313639272952 -1.490998406958974
P 1.9710865197295777 7.921409622870974 13.284534888422687 -0.19453377894794882 -0.0015478041030941086 -0.3660140185105438
P 1.5616709478102444 6.555392841344708 5.595751608984288 -1.5708008210995978 -0.2534045851422281 -3.0103316563068994
P 6.833738579793991 7.367597584646021 5.792704291362425 -0.33038289957049555 -0.2858375088599529 0.9147149439327794
P 5.403617371899399 4.453559502098852 2.120182377614056 0.4511429870704037 0.20111965969558268 -0.507084792543346
P 9.110091743777115 5.699710419865857 2.0514699264709377 -1.0000819966453742 -0.6568914037872493 0.2585133671237032
P 1.6303990882025459 3.6357066290916045 12.471246664030726 -0.05969947274316171 0.2851104008859412 -0.6416840999191916
P 1.7675969578241322 2.624460687476774 6.993942426100139 0.5491076739423512 -1.2205885455080012 -0.29169525319231054
P 8.644960879317386 1.1900572374521932 6.985216434863276 -1.2653730488125434 -0.07212638565260482 0.9544711407847948
Ni 7.429154815264613 0.07271505547884287 5.229400257381667 0.2510594819488192 1.4243852378151147 0.0683949436346306
Ni 5.959339806936653 2.4198913360687233 13.2594108630984 0.2883317360367163 1.194867486592813 -0.8741015412867914
Ni 3.1169369903657205 8.93056058827135 6.314770518210792 0.8505571783079481 0.9611287553106286 0.8899264241341899
Ni 3.547348469280151 4.020508537733609 13.450515147119265 1.3488035466240575 -2.0578837165997204 0.7661684303482224
Ni 7.63789566116136 4.54352350270905 11.549776452035896 0.5285187940474059 -1.4020449224467015 0.9453061864560751
Ni 4.410727851828854 6.92590830425994 5.99699215918219 0.7728440425961851 -0.5663944860472567 -0.33720737869149664
Ni -0.006732533693592571 3.029289461252563 2.436731437824307 0.4240733845471213 -1.9771379647092207 -1.7880181576879914
Ni 2.8937251193400457 1.8538324545108065 4.59973254515021 0.4792099205099489 0.9897883280288502 0.5164958014446008
Ni 3.5556083975265738 2.2028351881049075 11.672586357259526 -0.6500836368367965 1.8112244206011257 0.9084203691733193
Ni 6.179349225334945 8.414107421042507 9.826580069400077 1.7399105035474876 -0.23864002523854386 1.1655275999781152
Ni 5.553265122196319 9.136182042271681 6.557987104841993 -0.9678889568525976 -1.8495402854621887 -0.1762244391157997
Ni 0.6544659549109413 2.644422949819804 10.466647908045942 0.9930119771724705 1.011104315897807 0.8136369082428309
Ni 4.044919163668568 4.683526979243387 8.374156132343133 -1.2569143765222288 0.7261363541270011 -0.18618746386578258
Ni 5.1970268760377545 8.465577387333344 4.280725810200268 -0.5548034387755477 -0.3811974111192016 -0.9868313022830553
Ni 6.408089249455152 1.0290209380423276 8.257706833317757 0.27307506698796197 2.1621082683384505 0.2847761574749741
Ni 3.2518829912810197 8.547087651324858 1.622983610720981 -0.6299148751984054 1.2450027126863075 -0.20945928990952958
Ni 4.671049411657731 4.56442712000307 5.859580177454104 -0.35641120531345716 -0.10726102457220882 1.1342344462917886
Ni 2.534090612181834 1.9747411918922406 0.7773829161878186 0.3569971597239142 -0.27032347238475374 -0.7808584282602294
Ni 0.17633331736343585 0.8476938249535966 0.4403778437337729 -0.8946107169837366 0.5783552579535588 2.256607879479933
Ni 6.299648850689268 -0.08465549700423021 13.04045354729239 1.143205025221515 -0.5124799954169884 -0.7778913752121054
Ni 7.331779951657903 7.871739305751145 2.939495273692346 -0.3131673070231574 0.1627667709489971 -0.6478562901681746
Ni 4.909046092795997 6.9960669350189395 8.601500736183052 -0.8138191994569661 -0.9214417211336519 -0.9668371185493156
Ni 7.726567605956475 7.861605896572852 7.936998276279948 -2.005258119984205 -1.1606695005548657 -0.7054965663894625
Ni 6.541097166647827 5.491661746727189 7.095991763066417 0.37729679051321474 0.3657599935182088 -0.09021383928193497
P 8.367178108044675 7.599457000662644 10.19938800849007 -0.9105937226755543 -0.02411000567432622 0.5963102997700828
P 1.7285953301488446 0.8926241430260928 10.10151201180651 -0.06410145846559927 -1.2522395967543787 -0.32532605387287844
P 8.303341321809473 2.8749626231110206 0.13413569733983982 -0.5276286781329688 -0.5100065941758313 -0.066750208942356
P 8.260398923898183 0.8333889212866076 2.765220939559946 0.03608568997896366 0.36398670366786995 -0.47841107875773736
P 4.421008924528871 0.9398321709211781 13.255844789048771 -1.407548368763434 -0.7891584634854925 1.5352265235394142
P 2.852084006213946 6.2275982810581825 9.514164664901081 -1.096861147849653 0.4643018930498649 0.25703266881311865
P 5.250813313825634 1.3656291647817407 4.422676599427338 0.1790130576045304 0.03304510338042696 0.7980781345726254
P 8.641896861241618 4.9934450244312325 9.130699111130676 -0.01699216368262235 -0.1048920101194 0.0023625866949056086
Ni 0.9962488651897613 5.313025801321874 10.787019607674816 -1.9956054273857888 1.0003856439287224 -0.6257802842047416
Ni 1.7608505806753778 0.8367777991101678 12.346787541848846 0.11121460990331813 -1.209816908813794 -1.1548683204920562
Ni 8.432556132287868 1.2532110798994225 11.868486014148369 -1.2570593867405253 2.0797422072357086 -0.5946059154844663
Ni 8.85155137517903 3.667011295697041 7.1497117522695195 -1.0305377420320703 -3.262718598817891 -0.8195381042186144
Ni 2.8713725537391124 4.132880477765388 10.550205157607351 1.4067906646618031 0.4276531314785797 -0.0010253559407208145
Ni 0.7000542985521191 1.1625087616806045 5.26103439821995 0.2666624785933988 0.940681028979238 0.799870707696674
Ni 4.643224066782909 0.42583021815295047 11.084239512891427 0.6877916929105317 -1.16154187585749 -1.2318962572113366
Ni 8.431439426904833 0.3575146127244649 9.218848696217695 1.8624055714606311 1.5931822741185917 0.9663156988282067
Ni 6.802027838503814 2.4562257913828756 6.13967203704777 -0.9689464515828345 0.03879537560064286 2.9895031495973226
Ni 2.290491946188173 8.700343928933902 4.302459111906973 1.252967990279971 -2.140563452288139 0.06204971814289314
Ni 2.3103988347105573 4.5646024704351165 6.327156718992382 0.9281474152886016 0.4454616204149102 -2.0256670226578595
Ni 7.596494501258061 4.376949821234544 3.2267460453985826 -0.049772443437436864 1.719975455186457 -1.4717899523513231
Ni 4.19573899316917 7.796800068476338 12.65600233951448 -0.7255789389616343 0.8536237330484139 0.8062701834651147
Ni 4.513990798364299 1.9720463326207822 6.451209766489521 -1.3746181936943165 0.6051541233139578 0.5553189449593856
Ni 2.5120241446542404 6.846437642662234 7.316394335591298 0.9204788429997502 0.004964285983810805 2.2667711931661803
Ni 0.34623865704683443 7.7857437622872725 1.3617483828514383 -0.5555410882725206 0.5062638393039475 -0.6105423842090647
Ni 5.094133088306619 2.9213474268724964 9.750046066090654 0.4759299642070965 -1.1458964560107492 0.8656063593315866
Ni 0.2455708969056842 8.159221724607086 6.47572652558072 0.8496668052831947 0.5232140940050408 -1.2863617352490686
Ni 4.321917472482121 2.0221873272161055 2.5611896371091762 -0.6735950896951753 -0.007501964803999984 -0.38744133514638435
Ni 8.873257912872424 8.325823092991916 12.217832065430478 0.5406420596735011 -1.4246449192344044 0.46558358797576593
Ni 5.549499702392364 -0.0025942634972842657 1.8494643829588158 0.2158101718282219 0.11341958797443692 -0.07058320953520102
Ni 6.434816346887152 4.876901589910756 9.549824482500357 -0.5170776420899998 1.5570783293071828 -0.43247215013377777
Ni 1.4088668897364784 4.367416295113254 8.330904563933235 0.7569435693158447 0.511879385718512 2.734938739819038
Ni 6.7172136032137315 6.662402749743894 11.551816054429706 0.8527644703719119 1.2621334588293232 0.5608977245987438
P 7.812452401779057 4.512698742549216 5.386357352003914 -0.6565335062271983 -0.7183824212131951 0.46064192769977447
P 3.6783998448099857 7.062487832884307 3.3479085794579793 1.1553686571672426 0.3256641539385875 0.3187604848402188
P 6.701570498881121 1.3108275402820113 10.510250177319936 -0.28272570270384856 -0.4811801568624423 0.46300014351930585
P 5.384153473942187 4.090205719987222 11.710002447870304 -0.22646867998333256 0.2998425648897933 -0.3534762910548493
P 7.4666521208123395 7.3262887144438 0.1817996363582472 -0.35114507181851135 -0.3644865261224239 0.5338882858894354
P 2.336959810680618 3.0239366585900767 2.6257831988932128 -0.3260012255630321 0.25709848905404753 1.2001130512624685
P 4.5595080789356475 9.1406211768935 8.602351647226985 -1.2978951898099647 0.3716686456931599 -0.6584767459964982
P 5.615689876005039 3.519504666465115 7.677666984943632 0.7172472791674874 -0.6096427552129307 -0.014951736213825863
