# total energy = -381165.366636124 ev
CRYSTAL
PRIMVEC
9.29006848482327 0.00000000000000 0.00000000000000
0.00000000000000 9.29006848482327 0.00000000000000
0.00000000000000 0.00000000000000 13.59695428205016
PRIMCOORD
 96 1
Ni 4.262459883600065 1.3203138080967112 3.6045660402088426 -0.9879404761868339 -1.224489166113988 0.834007244369067
Ni 7.057395535569245 3.9699435005494172 11.614627430822388 0.5356937145292903 -0.3426532322974163 0.12041864500008939
Ni 3.0413082653811645 6.048614880495064 8.56643429576552 1.5642851314682673 0.9755703846572554 1.76306971527277
Ni 0.7580519285992657 5.478994337834586 0.5312683533713117 -1.1631626992903645 1.1219779975219386 -0.4596656798294341
Ni 7.910911277824628 5.251322632069597 7.927826634329172 -0.2552552651977217 -1.0332895937455946 -0.3659469127180343
Ni 7.855616790832617 1.1870849374729826 0.8818327996815166 1.1153941736568338 -0.17283238271511525 -0.48608916412828546
Ni 9.145189762663103 2.6607406142340313 8.244132095478014 -0.3318340301947253 -0.904522833891126 0.5050849885044979
Ni 4.754740607005084 8.449865304765915 1.9273686812905075 0.4179387324042931 0.40883342766891523 -0.5712839529290742
Ni 7.158229937755282 3.0568877100528047 2.2821536056653073 -0.7921098328043326 0.9301315355981657 1.0373298252532392
Ni 2.301168517623515 8.39834258553579 13.24283547215756 0.6151243471527922 -0.8377253166506025 0.7188866145431232
Ni 9.217299273421167 1.3860596220151358 12.37350060146636 0.34550509992391465 -0.3479101098209815 0.5033394665683009
Ni 6.691617673281534 0.7390351586273828 2.7752063337526245 -1.2911696981606733 -1.2347368119839253 1.133795816092473
Ni 0.8216099314144277 7.914534404492451 11.608943766988094 -0.9493996397991584 0.35770626997579685 -1.8890033765538177
Ni 8.697315566109868 7.70361269201486 13.261856887163635 0.5571660254704534 0.22416779976429782 3.0249226667471967
Ni 7.3598987421273545 9.284531498280236 12.066494498764932 -0.6043822781449397 0.0776462870295695 -0.1789392669438015
Ni 1.4812549526950987 5.275216687940472 7.577215737677072 -4.219402173872972 -0.8573189225118139 -2.3906538854554698
Ni -0.040807554361745366 3.217299320753588 1.2794040629827963 0.8084859601695108 -0.17213201421398097 -0.38778406319778375
Ni 8.736092311523956 4.470761796794768 9.870028767800484 -0.02252106392065154 -1.6115273522846827 0.8614100618620519
Ni 4.1634370447479405 4.017694452017653 2.9510283098805488 -0.4989063704976118 -1.718483444021963 0.6406731421561741
Ni 8.819786537550675 1.4836796605420264 3.275125351378885 1.4760273874714385 0.11229498745169048 -1.169694072650979
Ni 5.399099749774893 8.677592750941178 7.397395316118812 1.2260899349422045 0.33435885349910804 -0.22424030487344607
Ni 6.343202948794238 7.633872148693451 0.004044895772231465 -0.1099452562725913 1.0085514675689662 -0.16369545341085356
Ni 1.115700052048484 2.1724546202319965 10.510703469451167 -0.04721985221891223 3.0613184317674116 -1.6496426710991654
Ni 0.13724868321133668 3.7805097162325323 12.395880376191455 -1.191240431363187 0.9638857492304754 -0.04320815995635784
P 1.8003873816516793 8.23270995640599 5.661118696350846 0.6092609463934797 -0.5208417371181224 0.4030582157480349
Ni 2.624676568786621 2.6657386710219515 4.762374256192137 0.4822672192790339 1.6339949372595794 1.441597487928343
P 2.1332505316724726 0.5583749148876574 9.385569352963774 -0.02199861575827824 0.012799465757513439 -0.3338981118126056
Ni 1.9351026632160535 2.6271477269754437 2.6557982978563848 0.024655336654834957 -2.923110066884069 -1.061924740983784
P 4.408862071185265 3.8580446269239514 8.444823584656612 -0.5474351713359347 1.0238181639200497 -0.9858738234657923
P 1.7155040268724444 2.003784138742253 0.21291907717908345 -0.1508749046074176 0.04732166790409915 0.15184266783732558
P 7.938242658995746 2.333860268249336 10.471096191923992 1.2194788573835902 -0.4103652909324094 0.7611020715689086
Ni 2.4440126090195435 0.7975876725999212 11.695175110689126 0.5769270101474644 -0.6543943483970085 -0.12933291677058373
Ni 7.863225356835046 9.097160109143497 6.782963199625224 0.9166962360288664 -0.6598512577465216 0.6568595221080494
Ni 7.455790827935745 5.9138624386571745 4.442805194021742 -1.1163544806875743 -0.1880170608753536 0.5957595694729352
Ni 1.6687656928575239 7.61444661571289 1.9002695518288648 0.3485343736685417 -0.9743509104278575 -0.01809645249039464
Ni 2.1829709776370634 6.081473852351708 12.099603373460972 0.9555420052514704 -0.07867344274250321 1.4431280656402565
Ni 5.9447612060858415 0.34648982231916053 5.133638832864506 -1.007381358520265 -0.24618544168596956 -0.662885159476839
Ni 2.3513813372121946 3.3437650215973793 12.190308814093349 -0.7924690159159643 -0.6124691689181323 -1.6184083956752322
Ni 0.7118988688922242 0.2534191302774828 1.049288140227283 -0.08919131155469155 0.3734691892370084 0.1260925554564151
Ni 7.540228259432786 3.6463146784973843 5.034870541885966 -1.8932276990478103 -1.312488000022475 1.1041612810554917
Ni 5.192274957452455 6.265695908307955 8.11331585561232 1.97772443334031 -0.08263911225847058 1.6302048740895279
Ni 4.527356893359845 8.813710832830786 12.183115514147463 0.7340419821273229 -0.4447761643121115 0.6040953430321403
Ni 5.96930556674325 4.397491027489327 6.816207709319598 -0.4802357906713019 -0.6523487787218893 0.35182718548720054
Ni 6.282966145424579 3.3235684129413587 9.132938020484833 0.8382171686853565 0.044168981207730384 0.10007659100862765
Ni 6.672628773514787 7.368389864625792 2.6628550337970993 -0.45991224862260144 -0.7231101657061675 -1.6193527618663726
Ni 3.7051579716101863 0.747257798149666 5.8860674830739415 1.0956671275415517 -1.2976342228390942 -0.8401418965118951
Ni 2.336879540472522 3.3357755627914103 8.490794559023424 -0.31854914016036107 -0.799972523381861 -0.15953849381968652
Ni 4.032326309714632 6.677951982695975 6.332441333583964 -2.808320852255615 1.690314694897231 0.06578758791877057
Ni 7.701345915330376 6.860241704429383 11.35782114161391 -0.6547599592665433 1.8761239494879882 0.9717600097722296
Ni 5.771417820201443 5.57947571742222 0.7952019830401854 1.5061368052623092 -1.8644652822031371 -0.8660835560783213
Ni 7.3084596335126415 7.329919691468211 8.576033723421576 0.5376994321054095 1.6441847333083879 0.46227277843497805
Ni 7.0250939678153435 1.0989221885559486 9.039132484034374 -0.7900305816778007 -1.894196747829299 -0.3674435518682188
Ni 0.769630140820056 7.918826416083564 8.478965514956402 -0.19905943473244428 -0.4839677469099084 -0.35859252923549206
Ni 3.7185356700759957 2.5238050063270676 10.3036083361389 -0.08156490535768532 -1.5030993039875662 0.4084606177105288
Ni 2.6671693415523228 7.755414113296354 10.21435864922152 1.033448230810646 -0.09261653518615662 0.6539387489168286
Ni 5.111163370435108 5.532774543680815 4.872006353133118 0.4522537036360792 -3.05498143380579 -1.3799426912310233
P 7.804762956525783 1.2321046088377818 5.050411897277253 -1.0983642147577406 0.13276791059406168 0.0776894815626791
Ni 5.033767810769375 2.7380154030108375 5.234568922754846 0.0845728389460737 0.9567511950682234 0.01260997545452667
P 8.589578643118209 8.166471768863477 2.0187402198256597 0.547289904007322 -0.10734869919000867 0.3131629361477832
Ni 4.172030357998548 1.9942618186537429 13.13620778333036 -1.196079247512727 0.4018271715544112 -1.062204734118048
P 5.955955738482578 0.9873020169818533 0.12321975095215723 -0.17653297149515404 -2.208985906726596 -1.8396641639990576
P 7.863643409912102 5.636479576995972 13.141293166761042 0.0158729624765146 -0.9733962598240719 0.8062002494591277
P 6.07711681028194 4.99793601703144 2.7636076833814007 0.11457889838986074 -0.2712092174238168 1.8563853334084803
Ni 0.3499689529271088 1.8781266738474371 5.64477560805845 -0.347787211089872 1.9384865708856098 1.3345727477366565
Ni 6.532190809828928 1.7327835540574479 6.832347345114494 -0.03980016271607339 1.9725488026766416 0.7832876065270122
Ni 4.9267369329745225 1.9257847246318822 1.6938265813168063 1.3066706220097497 1.8092498133732584 -0.20023828553189385
Ni 1.9846280177446847 1.1947956942275808 7.093068469137898 -1.2819754332559148 0.0014596152646620022 2.017369815646074
Ni 3.224805696003847 8.451602547552794 8.012182313224478 -0.8594956184481584 0.04113790769089044 -0.891968137154567
Ni 3.909390834854873 6.657662473356164 0.36296482958253967 -1.765225071052876 0.6174144287385496 -1.2662032580233225
Ni 4.063122886391129 6.262007751161479 2.639495156858018 -0.41232909952699953 0.3193595518767984 0.34169318237699214
Ni 2.0132507184204886 5.532644482723508 4.774189365156593 0.1495117057113038 0.7939378871520069 0.08602782622504539
Ni 3.156932456426624 8.320900575528162 3.70495266109901 -2.320168634950714 0.17264623484623814 -0.4149094586596661
Ni 3.1289043201270776 0.6133033731855347 1.4886349830154033 -2.2379969492469654 0.04725610477348635 -0.21851985744990104
Ni 2.605093104643617 4.051909773857636 0.793983126068856 1.3210849976628667 -0.8245358145435219 -0.4945213540560386
Ni 4.998372650245255 7.698373093449085 4.457312564802441 2.116261642317981 0.2269564182530285 0.11483832269883448
Ni 4.321795550336956 1.6384800699418725 8.061675152513782 0.1263884894302791 0.488471548317533 -0.5969098810272946
Ni 9.156021982393057 0.4060902560048541 9.970143189687144 -0.7171758024996037 -1.3525722696378706 -0.1468156469363794
Ni 0.25512107080452184 6.76119099537212 3.727333364830941 0.9603692514367846 0.18383696135573502 -0.5023915008327346
Ni 1.6934772747457545 0.700405196293683 4.338054099007104 0.09611323548550543 -1.349662037969611 -1.0329975164264726
Ni 4.627215838366083 0.18714006643410164 9.835533814902293 -0.1893578911739642 -0.3231336742072499 -0.40827781227576143
Ni 0.16386008408307998 3.8225008253057666 4.020130307946636 1.386767941682973 0.4218025862350736 -0.4806631080167077
Ni 6.643959622497088 3.067915021218718 -0.08975135060984883 -0.5964082588005276 -0.18967465108343462 1.5302812637189969
Ni 1.6712089808412096 4.732927526451113 2.5659085252276883 -0.7689313378053403 3.773169479619992 1.6724889795697195
Ni 5.790007247027891 1.6306578323667256 11.309171840533422 0.8129658503177354 0.7734847615039775 0.08108847994189906
Ni 1.7004912763719253 4.908110345874559 10.287578323150877 -0.832701638183766 -0.3326444419111626 -0.8894083468471908
Ni 3.2514681922516755 4.385079496134937 6.246481259879599 1.4483831433916088 -0.9679905154274684 1.2008578998482933
Ni 6.520011530184014 5.48433612715253 10.216805653232557 -2.57006674960158 1.3752203460546897 -2.723370832475781
Ni 8.19884765716441 5.34400964428722 2.37054767728498 0.7434043971788294 -0.49231586176428765 -1.8238246258636397
P 4.0356521541943255 4.2561240569655645 12.835661065172875 3.0488987179468197 2.2972462218265854 -0.19726403339491833
Ni 4.043437231495957 4.739216902743718 10.446117985073283 0.7734847615039775 1.6678378539509533 0.9102198842759035
P 9.11127172301125 6.5341695943936635 9.91908683188965 1.7730458526488755 1.05411887178612 -1.2827177107385779
Ni 7.869301061554934 8.329902651787446 4.311852390150876 0.7919838487494296 1.1846612354837727 0.7692676380988365
P 5.07584253045802 7.469149946264795 10.398936514796684 0.19437642743447814 -1.1285785335575917 0.02899947255614361
P 9.088343834251793 3.905907059212735 6.576710675514937 0.47022134385809344 1.3341436306190377 -0.9194216053798295
P 6.7455279400850685 7.291811830977414 6.098002742011686 0.049670884862566066 -0.16568831547116625 0.5518111889164433
Ni 8.963206613186204 6.315156232357933 6.115461567516405 0.9840719943703633 0.7114795234457746 0.20983775629487084
