# total energy = -340858.13400254067 ev
CRYSTAL
PRIMVEC
9.40183303173539 0.00000000000000 0.00000000000000

0.00000000000000 9.40183303173539 0.00000000000000

0.00000000000000 0.00000000000000 13.76053299378687

PRIMCOORD
 96 1
Ni 6.474393469284976 5.267038316604994 9.330274433115706 1.014507685152401 0.6901679064521921 0.006140565680099101
Ni 3.3132528604482987 4.545504066176527 12.163718863338303 -0.0821284911706392 1.2526769414021137 -1.5939428064337002
Ni 3.9785547493656033 9.394405274296744 12.439961632013889 -0.018584704980722833 0.08298672540587644 0.9488645932312949
Ni 6.598676296039041 2.839926993884518 5.335068097815907 -0.48453441804665587 0.31316653569220904 -0.38750535561510036
Ni 2.3990938612084776 7.645485753155636 3.123874564475903 1.7618319862109273 -0.27686281616516834 -0.07154094546278
Ni 2.2969711541805147 1.122362584871771 1.3922497146271853 -0.04703987499762221 0.5190183107561384 0.5850756073965278
Ni 3.9973866203080646 2.9997863556591873 5.5312110124318865 0.5841368976323424 -1.7910196635184767 1.0239014676624754
Ni 8.877436100236755 8.97828955984723 8.119154786613777 0.49578093749475266 1.9503671243732796 1.123882156523187
Ni 6.704127251850644 7.0062739500422895 5.490122182886287 -0.7069489825652728 0.7451337211651103 1.5234462430750344
Ni 5.455469848022269 9.236153625917561 7.126332533354294 -0.022145425748787664 0.3511299023098598 0.4721123902332192
Ni 9.067879623856571 7.690417111734778 5.185587419183215 1.546431648226614 -0.216394326466466 -2.13481935071551
Ni 4.95640176346525 1.1862480382187617 9.45973296878331 0.3050559907699327 0.23979290789606444 -0.03459470725573397
Ni 2.9972572626569294 6.81663898403658 10.746054114496609 0.4299820367220724 2.1680747703345307 -0.9992404745806855
Ni 6.420690200776072 2.66321954787176 13.652099496999627 -0.5135092080124511 0.28656410261333226 -0.018747198700516103
Ni 7.185651516548138 4.685581971903798 6.888151204087777 -1.0264239769740129 0.5130325254863487 0.09563243919434497
Ni 5.88698576447066 4.872349378929253 12.499132066250723 1.1569457718463751 0.747304503564184 1.6209285909939244
Ni 9.209179767837721 5.327783557822788 5.293607895877782 0.171848164424975 0.9174372279599491 2.332460050723557
Ni 8.205374293592227 1.8054245358012124 7.2245130519218606 0.38285294444475354 0.03058687164792152 -1.0154458806959543
Ni 8.529436663859197 6.904094832017994 12.182722787819579 -0.06940872961112562 -3.6255357076576913 0.09410520391654115
Ni 2.99625126655566 0.8392517773926568 6.14588027140734 3.5292160125883347 -0.5592439910454046 -0.576108370900911
Ni 1.0481257136976965 7.029139207222553 8.702986034260586 0.8689814464514066 0.49048857874756174 1.9379399543535205
Ni 2.2294753970682195 3.7181521884602913 6.7886760531543695 -0.29536447451378167 1.0834721281372568 0.19208068942176595
Ni 0.5481136851353731 9.030939823091254 3.043457868653561 -1.6347742386277653 0.3435816576489567 -1.0573044686029534
Ni 3.3762357378539622 8.638225270287164 8.113044535527651 -0.5469847140620773 0.12944681664062865 0.5985659285734788
P 7.165230735875633 0.4812337480663787 9.634464149557875 0.4447422257503824 0.3406516284863553 0.2985431293520794
P 6.536210519433094 6.917774498628718 7.60847355827836 0.5297835196924424 -0.24357834308042564 1.6787372744722766
P 4.568538556345787 1.2761765682061 0.7302939379756924 -0.07362045369962805 -0.14492125812714396 0.20869104428493737
P 1.3709564438780664 0.8528684517241426 7.331556678196596 -3.0995543353201587 -0.825453698372101 1.1734617672235272
P 6.803053335753077 6.730678027457988 13.680570126848833 0.46760087551611085 -1.9066923091931485 1.1692767826079022
P 7.438250556294067 3.3527405578813165 1.5705310274376303 1.529283675692418 0.2848417206055869 0.8965698975926366
P 5.704825255479059 2.199107477375684 7.20740923783373 -0.4875883743816312 -0.16250374709559756 0.016747137551351803
P 6.407283187314289 5.865568389529609 3.9428738540017823 -0.24100261193344943 -2.17491596162608 -3.304409036578141
Ni 1.043678646820121 3.173287776713692 11.733028427802914 1.1781185492692483 -1.2985706186104344 0.08746173045809454
Ni 0.5840738149310419 6.186189689020275 3.3325115745963445 -0.05234226104714211 0.06299177034118829 -0.9884760369753299
Ni 4.346448463783225 5.344744464053541 6.277486185668685 -0.6008475255188039 0.9835325769271256 -0.2672263215166688
Ni 6.609413189007732 8.022301806826576 11.992083706079145 -1.1661901732627789 0.6177116482639943 -1.167186475737777
Ni 0.22995378545136608 8.616901913673335 13.062130732951799 1.8865006647366218 0.5923963094276572 1.64053453815031
Ni 2.580408205255087 8.303708062033165 0.6391422295512027 -0.6307592254765717 0.5282267167282838 -0.48178565165692505
Ni 9.36347324464088 4.285317747423823 7.676023846020443 -0.2818762102193597 -0.015131713435115875 0.09630401134007284
Ni 3.8959784525669843 2.5382691909944235 12.707453174791699 0.6444994578807997 -2.197566094925428 0.2757826957271121
Ni 0.14126535720007893 2.418508645779712 0.5646280043118247 4.2357950134086995 4.766154203098953 -6.112615731853396
Ni 1.4919674328448234 3.7462448646340674 4.5802071709372445 -0.7129201125470432 0.47027302303163526 -0.16150615906901863
Ni 6.292966303245701 1.2090380807372465 2.2617359056877233 1.0382585077150956 -3.0981579691932644 -0.2516773180384762
Ni 2.66969741061732 5.029030921243836 2.318223056865656 0.46693650245923457 1.054225058346681 0.2756507981349382
Ni 7.940581076805673 2.70074226226585 11.078178556322822 -0.09795388823867 -0.8782934678809519 0.23866522204952445
Ni 2.9298179165409675 1.9478246942108546 8.202928876901197 0.5572377592486533 0.8548817738252309 1.799102440526611
Ni 9.394198433976857 0.7349995552531271 11.209990370720782 -0.4052161426313022 0.21737648787407723 0.25701107154656383
Ni 5.8366201465781185 8.076888847611363 9.799480416580641 -1.3529921307841086 1.30719924081971 -0.5967054783259723
Ni 0.1640008690887754 2.33425882275655 9.226175460849547 0.40357372193187263 -0.41352209139383617 -0.06274931531307902
Ni 7.622761523466207 8.943361751284453 6.162902289550789 -0.2829077368076676 2.1693261262431283 0.4524593918889821
Ni 5.308904677716716 2.990140075286264 2.2929170839107247 -1.9045917179103777 3.0784491779104273 -0.5881082235752646
Ni 8.519846794482609 4.110547078951829 12.640535630391817 -0.5776039816098311 1.3544517460487706 0.5087462394061689
Ni 7.970544717691155 7.343470680622101 9.783256614035302 1.6798850149234745 -0.8048648184771557 -0.301365686402539
Ni 2.2636416571805027 7.502220626135557 5.80812789251365 0.7909253255779283 -0.512073246896873 0.12442879460074699
Ni 5.768080786033665 0.45968286710067285 4.743682477576851 0.26079316429681537 -0.030590214082031185 -0.9407244806226638
Ni 8.595522146063171 1.2117082012303364 1.6146058790557842 -3.9263334373719023 -5.025562828343416 4.456896258432531
P 0.98973093066044 1.8586013016776772 3.3657028646553413 5.051621987324313 -0.9454596813148038 -2.5110558182850107
P 1.5207652464727606 1.1191095507499083 13.073207972265033 0.3332468513818519 0.2455213257394094 -0.887658968256252
P 1.7251610898522414 4.195370413771041 0.4641713020422259 0.13722183260035722 0.748696241705388 -1.4762647002932252
P 2.6803026779279016 5.722528906494862 4.4636282059157075 -0.1584707146768045 -0.6128813167548864 0.16204300540909514
P 7.460974785983497 9.065181297865314 3.183237736283541 -0.08052643679084195 -0.2818204172807598 0.5061967335114379
P 3.8686473248437023 6.74386879876716 1.1564790152706268 0.5899627602855001 -0.9327319493354904 1.3475591326939955
P 3.372305771776105 9.352661137010411 10.416034743016885 2.1884867583319796 -0.7410366682776012 -0.13204543060574034
P 2.5922075053213818 5.891037954373907 7.891555220076036 1.3339310003875995 -0.6426631760030094 -0.9819197239140508
Ni 1.8787118218703502 4.156014341996133 9.075952037431806 -0.3618935685842671 0.2565940386138032 0.8466071925212644
Ni 9.26399245260784 5.589257927658424 0.5067493818910142 0.35973332770815464 0.8257941124306551 0.6403648668871359
Ni 1.3391688474444865 5.431833640558791 11.087590731060962 -3.3953654104530555 -0.7170655021739843 -1.672647616634771
Ni 4.407823627793403 7.039960716685743 12.816600931229651 0.38120255332552416 -0.28138101575049607 0.08442011541829332
Ni 0.4214333910371612 3.909864959497596 2.22284898536565 1.1353122527369996 -0.43467532843268364 0.5222471021060812
Ni 2.0285770354613772 6.281712309477291 12.9888556692652 -0.5778981158114821 1.1563929846666987 2.1462131943747487
Ni 1.6043475393726492 0.20574688674165356 9.528191473566356 -2.2865892563333716 -0.4237154869870703 -0.8113481122086543
Ni 3.1257615123032383 0.7086020295191543 3.7975487854322805 0.2344982351560284 -0.9384282283893193 -0.26258882274465745
Ni 6.170197171559902 5.236397743763516 1.674271789877075 0.8628308534689786 0.7807193315792038 0.6700508239873428
Ni 6.135222353833515 8.737452212836706 0.38314442727621656 -0.49597197045963615 1.045015109712639 0.5591851127830112
Ni 4.579209636485424 6.56982207141477 8.598351157529265 -0.7163484215023018 0.13776356403644016 -0.09596231172993795
Ni 7.054712192226792 2.7171954695296074 9.034904575950183 -1.0201132042646366 0.048142106922865475 -1.5448722741592942
Ni 4.371711188307635 4.267228621266412 8.428463800973153 -0.1354634551483538 -2.022367011750349 0.1069244671683965
Ni 5.5212826770773 3.5710323100241315 10.665334679660614 -1.102521945679856 -1.1767471228430186 0.3055738109466157
Ni 7.886341903831605 7.153910929278168 2.0127396482409203 -0.5259302073846233 0.3409257080833483 0.3948916207768425
Ni 4.803339926748692 4.455406303200189 4.098629315793234 0.305742475313996 1.3266925736576314 -0.9588674700802777
Ni 4.261230251989683 4.578758348514762 0.5358283103173433 -0.8763908515416003 -0.012206312258204786 0.24586353957017656
Ni 6.080813947870449 1.1422568629118348 11.93234916187898 -0.16742175322250522 -0.31175911382172117 -1.6165173493001064
Ni 4.849258477763659 8.449436469226447 2.3285575513938404 -0.6241440341528992 0.005620431510570965 0.5479650756974757
Ni 3.180226329262637 2.907338134502313 3.2468806223463003 -0.1847777280024495 -0.7335889537503043 -0.6104469962817809
Ni 1.165516997066427 0.13556596620391329 5.132774504233098 -1.3322119608139638 0.6471350957314338 0.8236390137608655
Ni 8.68322244169536 2.089613733493557 4.21809840419356 -3.5477793774128195 -2.9004715035489466 -1.7979009640193422
Ni 8.8219276798452 6.8762372016622715 7.270735282133753 -2.046303982181921 -1.4901093194858013 -0.6599687571609925
Ni 8.144309390061881 4.609633967174292 3.4623565255888313 -2.6641223312271087 -0.3593916280980198 -0.46068975021857433
P 7.775569510699265 0.23709635777038132 12.880491085493002 -0.0651890351028232 1.0889187530741244 0.46384835045221406
P 3.3183110464528136 3.2018035353599648 10.324816281580068 0.7246939652535197 -0.5802594169548071 0.21546127312923538
P 0.5522796372145565 7.825963334089975 10.948499077586243 1.3348321720456302 0.32950358228933574 -1.899734904038709
P 8.473900037969473 4.872358780761975 10.299359879301583 0.45090670268988153 -0.5436672196530702 0.5211878076036315
P 4.551540042784144 8.177460252240172 5.362617348058343 -0.8128424373659936 0.5181341083789721 0.04910601349803156
P 4.902557467465512 5.907886038611995 10.925270909662908 0.5523282377621778 0.1613200112001415 -1.3077710541627798
P 8.828922643390475 3.297796247453088 5.680857163320487 -0.12138255157525547 2.7933323492665827 3.872833151460917
P 0.6321397445397474 7.54637163259876 1.4185043325037814 0.3037485848124188 -0.7094581221403717 -0.4403399829176287
