# total energy = -340861.5833533425 ev
CRYSTAL
PRIMVEC
9.35658314628281 0.00000000000000 0.00000000000000
0.00000000000000 9.35658314628281 0.00000000000000
0.00000000000000 0.00000000000000 13.69430521250458
PRIMCOORD
 96 1
Ni 0.512799711766292 6.12033763016804 2.2858123665442465 0.7254591255543184 -0.7700543956661899 -0.7482139027523308
Ni 1.2228867252201086 4.56357994276007 9.767545967277567 0.9347368955806613 -0.9841756098277632 0.6318743129176214
Ni 1.6148246434188958 1.7843940027140954 6.849960253911127 0.6857499798901544 1.0316867680348492 0.23726165683377845
Ni 8.390488011912627 5.654623052583795 4.137994815326528 -0.36214785068691824 0.16648715722337779 0.6020466880332277
Ni 6.216532663160037 8.348701510858035 7.808123038907915 -1.7380078872081357 -0.3649572951112553 0.5128548622579039
Ni 5.264734226129511 2.981362992170384 3.8650941569501382 0.8962145711357468 0.6188758437754245 -1.1957804853253857
Ni 5.368367742851557 9.116839574131154 5.519284753321784 -1.2430674433368076 -0.023091591712140876 0.756250142793246
Ni 7.556573167982595 5.82777598328605 12.258855101703986 -2.679834856866359 0.5204681558287876 0.7068931896266729
Ni 1.5485706770132615 1.955011299339818 9.23027691884357 -0.6409994151473412 0.23587917466395505 1.0625065816291832
Ni 3.0460731223301596 3.3704939353767003 4.69128514135922 0.7287048861851257 0.16539315282825062 0.7618420350587267
Ni 0.48897036539687105 2.275652052729831 13.711423491341401 0.321656318330775 0.4869777373808259 -0.6665410110618715
Ni 4.633492333239225 8.628425925441123 11.399742043266539 0.12433494933536005 -1.149203151786479 1.9534244231423645
Ni 8.564988290611268 1.7882021321205486 7.10943982919018 0.016021315128920792 0.15932997735330623 0.060734855986211526
Ni 1.422350368185129 4.740381940952537 5.617157421700948 -0.9141199906612579 0.2561086143369525 -0.5667786088595529
Ni 9.559434034360741 9.112488762892824 10.312044847633839 -0.10504344809559975 -0.29507316852560794 -1.221245976586342
Ni 5.664428751890829 4.636046680482375 5.62077280549125 1.881500383308553 -1.7043382628698325 -0.45464688645860407
Ni 2.9453401464336677 5.7501537681609065 7.304870784749349 -0.9075253681628758 -0.07774758849412416 -2.188817145088205
Ni 8.514116547164377 8.601591244513097 7.232633283318097 0.28259560488388746 -0.35824003099207985 0.1739243302277134
Ni 8.437224145537277 4.764447073221326 9.78047302277623 -1.3879622191013903 0.5243353520936777 -0.03530433172824887
Ni 5.956167019441693 3.1445137353161328 12.539491783159628 -0.18124040427315238 0.7180121823579698 0.8894772524119133
Ni 3.9535962071461013 4.301211990213765 1.9912072418677371 0.03885965317967501 0.6866120707801336 -0.26295726182766965
Ni 4.249385875269433 3.3260595212458774 7.369686644300508 -0.5212865379650248 0.1036195711648796 -0.13042794960697537
Ni 1.8699973834011665 7.799470070664457 6.828692740051502 -0.1184476373166476 0.5345511162844149 -0.035120754962533064
Ni 5.52862730175506 1.1706863469434479 0.10581827892451924 0.5850776642790568 1.2855826909911987 0.9574618479820027
P 5.396269074276724 6.869940301907539 3.0263868710496262 0.007120927315497413 -0.568734189924027 -0.08650682274399295
P 3.2034695667413415 6.868087698412507 13.146177323157442 -1.2329797200835024 0.49396368178035577 -1.3583639366189832
P 9.147351392299319 8.482781349665087 1.2993580805983387 -0.6101194377390332 -0.012249506791314388 0.3277418624032227
P 3.1773366295614323 2.670677643420337 0.4547580185302983 -0.9945613239374612 1.742397274525083 0.8403208452919206
P 8.59939244743566 2.590660142968284 9.275057526556798 -0.4401188680457581 0.48650773972294276 -1.9019272837043375
P 5.051273134535367 1.3161531476366262 2.5131923114677264 3.4239907874992315 1.018132426389182 -1.9318150724027052
P 4.213615657282039 7.708411801908683 7.119176289780732 -1.2272798414852477 1.36277594964375 -2.1432831652121473
P 8.967386868948667 7.55335450332456 8.994296402543158 -0.9429654541380406 -1.9346360867912684 1.137538570964357
Ni 7.425066389585307 6.3022951057633465 7.8450974491670795 1.4807420193382888 -0.13265915293033928 1.394909854063817
Ni 3.8469124442655698 7.211221678075525 9.205010401278004 2.0468369718672554 1.2911432157981118 0.7769179555552426
Ni 4.870765929352837 2.6175416068128525 9.718588580775544 -1.3255111517550202 -2.394350360470451 -1.2149310901119075
Ni 7.508012500612838 0.5505245200067773 8.87981205615855 0.6409852740799541 1.0024152727642415 2.7532686484764777
Ni 1.80295746399764 4.601436678825202 0.4231804855233254 0.05849491091209926 -0.060787563601017884 -0.20082449705266703
Ni 6.792870125197581 3.803423045048879 8.005827644210987 -0.9948888824802091 -0.15828173859444997 1.0426466094804625
Ni 0.5773442304015111 9.050389119476046 12.875290201508987 0.2539650856313884 0.5154892145569574 -0.39318723649122606
Ni 4.8292133428809505 6.941658512965184 0.7386068150356572 2.040402529095821 -1.5667364212222372 0.20226740014678066
Ni 4.177583454962014 4.884454610732789 13.27075461595665 -0.12285425102477551 -1.4191563853160076 1.2723278828638216
Ni 7.446942081359968 6.7189905433957335 1.8592485404966623 0.6695684850342856 0.35312225014954024 0.5051024720059947
Ni 6.336175293922478 5.1042688223932275 0.7405370781721465 -0.708429166655225 -1.3756435496350372 -0.9556649039825799
Ni 6.434073225076573 8.606597016583002 3.5445385484682306 1.5807867286677162 -0.09471224137292077 2.5962349233565156
Ni 6.484973038273389 3.837200310791619 10.46021757221976 0.9440198635444838 0.5837517463787818 0.530218550347332
Ni 0.08638746236830108 6.559984766655534 11.201914866722129 1.829903485067868 2.2550166237334133 -2.8035368006034105
Ni 4.063199224018803 9.160544174763935 3.228925087289734 -1.0903387733501029 -3.1126183675929684 0.5891418070461014
Ni 2.22313355062069 2.983842486747067 11.723695027147668 -0.6501877665148286 -0.021991930890058898 -0.170754417140164
Ni 3.522996886717674 4.875341298590564 9.200478072323493 1.6063828319692657 -1.514200041886418 2.6933444613170194
Ni 7.045507231103319 7.233303214682967 5.750389554060273 -0.5665919467700435 -0.04747850519693758 -1.1469652635948955
Ni 6.374125595820692 1.0170980319387186 11.648718853782093 -0.006381735156627719 -0.24426894138954705 -1.425629651745177
Ni 8.668518884916923 4.348200751587736 0.5461840010100856 0.6406196632104193 0.904478610916752 -0.9093544509518146
Ni 3.613147566892548 0.5456983943363881 7.549588478542995 1.768695803210296 0.20923920347892352 0.44156408513271694
Ni 6.133567838965889 1.297683252186164 7.151536033152274 -0.25342489685720226 1.4402718271383839 0.11991496589079348
Ni 5.270357532697762 5.963268666172646 7.368097896454769 -0.305864345603841 -0.8727013185051552 0.6168220465701894
Ni 3.262921297081886 6.847971044299795 2.5556038322873085 0.2128839993203624 0.817403831484431 -0.2756235444414285
P 4.758608565236987 2.0962769941275976 5.679398349525679 -0.9252289560902259 -0.6868486122709719 0.3840647053646676
P 5.463262210763709 -0.01262670917446737 9.726723194303725 1.1164051314198515 1.1590998420749006 -1.260345770801281
P 9.212800692540444 4.703077243302593 12.01584966265575 2.4871193620740715 -2.7956815662250496 0.6790193460345403
P 7.008791998201792 7.74342413664811 13.155639635857064 -0.4095474230168043 0.564091548945693 0.17992142835141273
P 6.035407923479162 5.6629504117281275 9.396265513706709 -0.18279335058256907 0.006890556472246198 0.5759546189318661
P 7.624763947133034 0.13490134682151583 5.444280510206285 -0.6815097165565618 0.27979953019598913 -1.1323863373394565
P 7.25606778187191 2.637246571260002 0.49083232547521044 0.5669732413688623 1.1334985965670286 1.1927360420721071
P 9.10384327991601 3.649086203379491 3.8933182904994386 0.33038675622523744 -0.8661419201200824 -0.16287424306113885
Ni 8.987307034811904 8.099778968525667 3.48676164653986 -2.0918688152959137 1.8424440407370397 -1.0861720435669229
Ni 3.9337602505326363 5.980802903292284 5.146949812812087 -0.8103045014354884 1.0142539172703822 -1.131576182733335
Ni 1.6618134047928677 6.736347005432514 9.010058502784217 -1.3253157479147626 0.7155575501698903 1.2002182093817653
Ni 1.8702874374837217 7.920198065090654 0.8808091038125911 1.3748809604373997 -0.6208892746610275 0.9562809403000242
Ni 4.014208153816868 9.00178166918975 0.6335632612090599 -1.7835349251056574 -0.019023078069722078 0.0037733509995031794
Ni 7.55861290314379 2.2496220379663123 4.730683842353549 0.18621163223549864 0.2872595860184601 0.36812232310279824
Ni 0.19122049307046285 5.462597893348824 7.561379644828036 0.4901209109954978 -0.2785085792987075 -0.5883697047667673
Ni 3.4766724427585864 1.2513120253105359 12.71097175676637 -0.3365617746876978 -1.0644500785087991 -1.452662487493253
Ni 7.4765650241138495 8.250953285036871 10.8744559710754 -1.0630511412787433 -0.6701302710750265 0.737173328667453
Ni 7.273938855990646 1.1886697000618813 2.466768687725572 -0.5383092977752665 1.5229901293742223 -0.8652798292301034
Ni 1.352849667371536 7.109197493682496 4.306913892081805 3.505612514236782 -0.48814450399541737 0.48186278475176375
Ni 3.202870745409614 2.17353430250372 2.659173724242858 -1.0959964858565125 -0.07903262585413486 0.19423141721618162
Ni 1.9402653240460348 0.8306877583470211 1.2308697620986973 -0.7143229064318408 0.31598755008077195 0.021254024282769846
Ni 2.8631238489041793 0.2234904132422454 5.370482330679219 0.8236156167220977 0.5373819008649906 -0.9269505667670228
Ni 2.4805425140136297 5.331091114951536 11.648650550723945 -0.48305911905271004 1.5488718822369907 -0.4047566864963804
Ni 7.420734291513593 3.8926380668929297 2.476163633025374 0.014520819323994348 -0.6794242947824428 0.8583717892563605
Ni 6.172603504527859 8.757294147345487 1.4385456782333583 0.4149297703746402 -0.8461701049838459 -2.4287730609246947
Ni 0.1195481292710279 1.337729428745423 3.1307651718030076 0.9982454576572678 0.5266663142196993 0.47349564373399095
Ni 8.626039996697521 1.8516304103670949 11.147671010650948 0.3687257610147521 -0.2908835559242926 1.9142919759172774
Ni 0.5425835877530756 9.429938921374728 5.631660125828717 -0.33721329222876767 0.30787854782039237 -2.010435807530402
Ni 2.43779228487829 8.106281793924893 11.014384610108435 -0.8617250219993094 -0.21496453599847495 0.7998699363657257
Ni 8.038334285940469 0.7269391556502842 0.027722620683978783 -0.734985834097831 -1.2096029930307748 0.10012081398300177
Ni 5.230189720555496 6.016535694946446 11.545655152983521 0.16991032397231381 0.822356547504016 -1.2937850242963331
Ni 0.27738807573102037 6.859358006185921 13.456845830057535 -1.6646417156111588 -2.302349347381106 0.5994946110353353
P 1.9371870081376243 9.225151382507319 8.601530426721592 -0.6164564357006544 -0.7835573152486313 0.36595051226246006
P 1.9343145370619954 0.006917322039780457 3.4052536423668047 -1.2405397918189474 -0.004445951586495568 0.18267430850620153
P 8.04055179618452 3.753589882349203 6.400348356200359 0.894915135598033 1.0260100293650458 -1.8600447845379384
P 9.243359293625149 7.093497146891273 5.773477859031682 -0.2944332209487639 -1.1545646732087085 0.5646597627443372
P 2.4397758805396363 5.185914368340914 3.436229547067058 -0.8559811775369969 -1.3289584868736724 1.1030603346818293
P 4.325997579397288 3.959369219047284 11.26163513100362 -1.360081433530722 0.18837727242824978 -0.0461045076675464
P 1.5660207048831256 0.7990690563734919 11.37925580411315 2.3284681559553446 2.4677021338897243 1.2199552827993763
P 1.9819114763510028 3.8228847383300146 7.898738741273209 0.18229044280422155 -0.5952862293809426 -1.2286731222883485
