# total energy = -381173.45146657573 ev
CRYSTAL
PRIMVEC
9.21192512349031 0.00000000000000 0.00000000000000
0.00000000000000 9.21192512349031 0.00000000000000
0.00000000000000 0.00000000000000 13.48258357388604
PRIMCOORD
 96 1
Ni 1.587306850140905 6.459862623534964 11.476941529537726 1.2555676326863474 -0.45365983995498643 -0.8687330778860264
Ni 4.293402029163551 6.226533767361677 10.968283886125937 -0.6971952456126186 -1.0607476899565473 0.3194590535691402
Ni 2.6811308614329428 2.6151826881397 12.371794402484639 -0.02820294479677723 1.0691132883124232 0.8659321181021215
Ni 4.120356012217949 3.5200516874760166 3.253387637183963 -0.016493369669332885 1.232341315168555 1.2563875574844814
Ni 5.340042559018518 5.704595291230672 2.932300453353823 -1.2080672731125388 -0.2119666297124156 0.15186735042767394
Ni 5.416335724434727 6.7582645200970575 5.018662435963526 0.3943537459955015 2.113317472087993 -0.11110868045307316
Ni 2.625942216901609 6.727386146458428 8.773818117620038 0.3681806871445595 1.6241848931476932 0.6568019293972366
Ni 1.7090516550359325 8.723499818000024 10.198105210322584 1.2611484692082344 -0.3463754183440099 -0.23231948233715474
Ni 2.844983376919312 1.5555349197472195 3.2694587620795335 -0.19687116883187383 -0.9787451828408111 0.2335135026452559
Ni 0.38711089491092343 7.2434197784658165 8.923407809149161 -1.65708987140583 0.04722910819029285 -0.31204579182420455
Ni 3.3373239370297574 5.741627230976285 4.613376412416261 -0.3825685804351153 0.06697698024118143 -1.0930592576050595
Ni 2.161863843641795 3.6065885138367832 4.996457090004123 0.3486495590901673 -0.6825708108312245 -1.402413875750346
Ni 6.388359659279879 8.551476324763815 1.0169790515497688 -0.7650492291421146 0.0911530632667527 1.1865867346412595
Ni 2.1709652258479304 2.3896563327038596 9.761889226354954 3.58398410946815 -0.40628932109082283 0.4426611748516377
Ni 7.811685026980077 9.040684830268908 4.670259130012077 -1.1486642485638736 -1.458142536771218 0.06616425453189895
Ni 4.745550959147105 2.4898360204485197 8.04176760067417 -0.48685535287034865 -0.6381539752787461 -0.03703648392800719
Ni 6.184665566828392 8.050642369517684 6.835926577614311 -0.7585890753390677 2.1384615754537877 -0.2653836118809752
Ni 5.690427350104117 4.578630872532554 8.729298724982575 0.3691867598115706 0.3700730190712659 -0.04444743168009765
Ni 8.528105670252716 4.928066835311238 13.01845958373347 -1.1982477159189557 -1.0536822984693337 0.7113170297259814
Ni 5.228283481159372 1.279112676974437 2.257833681519852 -1.3939330919728443 -0.2238286712573242 -0.03621475935766021
Ni 8.231859364213127 0.6903297072175395 12.806446201534657 0.7061987346628096 -0.7110709751534463 0.49933600183586263
Ni 7.642554078291161 0.8807171735589425 2.585932982895852 0.3260459627580385 -0.22061607785729748 -0.4758839414605095
Ni 8.863005214892448 7.274896927249587 2.6862563766753453 -1.8489862127309318 -0.6847055977860401 0.7696473900357583
Ni 8.501059457542985 8.175878494105145 6.961691466714559 0.19540615425057317 0.5714225353894674 0.051521050697427406
P 4.779570599316395 7.398364362177557 -0.31673454912123356 0.9493597877001585 -0.9670479490085411 0.34245345758178447
Ni 1.9919775170774716 7.520284193653472 3.118656781179634 1.0089047371433268 -1.5705056584566823 -2.1375390636395184
P 7.340163418069901 4.2434826059094535 10.729264823688753 -0.19525060250931534 0.12577271022315115 -0.17484761337293112
Ni 6.037302397646662 4.853441028376112 12.421734091974418 -0.004756540848378905 0.8425746743231036 0.0661197744472087
P 6.4317570394146 1.5819362976852602 0.48920574192750194 -0.6449774259584827 -0.5185429137816167 0.1301988643153048
P 2.1673725749770876 1.0500028825930634 0.7978209000806303 0.012209911802630586 0.5291119475467145 0.569151994187736
P 6.609593257521327 7.797590781256 3.3161899379838906 -0.17810957195365454 -0.3949756958502166 -0.2855924827286823
Ni 3.820157790220433 1.2127960266687994 11.127041285723424 -0.3435155802977116 -0.617411343414756 -0.6488510499812761
Ni 0.8083814512558468 3.8644487271102106 11.482266943559353 -1.4034700849290023 -0.29519375326387226 -2.1858524060329256
Ni 4.6819518268078735 8.421652661372045 10.416752099937025 -0.8240614460102647 -0.4785157226564017 -0.533157578370998
Ni 6.2635749190325996 1.424688732646056 6.260394962415638 1.6433912908728148 -0.23377524094707483 0.3790381986843537
Ni 7.3691349231693914 2.776068963676296 12.452838157783141 0.05007660494141698 1.191612212880309 -0.5971302245682167
Ni 1.1285253339342571 1.3551110607807306 11.510162495782652 -2.0051784157862045 -1.8635839080394485 -0.1951305319916833
Ni 0.1862734204980223 3.9954699407922605 6.035155097856934 -1.9452948520566948 -0.15868463045982348 0.09899724190151983
Ni 4.278248412028842 0.28565996147350375 0.3000471464224334 -1.2812565528120192 0.561806352455942 -0.34375854954645313
Ni 1.1404639891358277 5.108860081442428 9.484350498234617 0.06056593450851505 -1.233682916798114 -0.5740838842717145
Ni 0.6317777887555779 5.317049593445124 3.8206404951066695 0.7245759516184166 -0.9764085642878347 0.01035126132733701
Ni 3.00515112228174 8.394670932139482 4.904370999836701 0.6983548131383586 0.9020869707561239 0.03596459102006709
Ni 6.635239257583961 6.7453586127379515 10.907059588131586 -2.5143278041680635 0.35279751982026986 -0.7460096960121604
Ni 6.9663066412947945 3.647609217241562 6.614919592735484 0.6305792482552817 -0.6442138083195809 1.228278200842775
Ni 5.52834352427724 2.8921576464310736 10.411587894608322 0.2871199751168023 -0.37679054030075754 0.3532214947315659
Ni 8.673525123194066 6.092979274219417 10.986014078769811 0.40575556007453994 -0.7558361951842789 -0.3865175377805343
Ni 3.7383651053942417 7.0502549166434925 6.764899869897746 0.16836303408985198 -0.019339066648244113 -1.1228560292515177
Ni 0.8861586578394732 7.301187762083909 5.036230498721948 -0.9375432546812047 -0.21609762116165365 2.1920942731775797
Ni 0.805531281564978 0.07921242454690167 3.781257672021983 -0.06259479201308575 1.251020122524981 0.3128968269705901
Ni 3.288095408173899 3.0179188507611974 1.2853767861851373 -1.1806636842886054 -0.7638058436533168 -1.262505497456761
Ni 8.054410046969414 2.8961003504636906 1.2940949522983831 -0.7767480056362815 0.748700355470446 0.4218979741623572
Ni 0.8300847472858622 6.41163819453788 0.33488756913683143 -0.8699985748620114 3.3538886313655074 0.8724956302522522
Ni 6.819892300419979 5.952561896721316 1.2682379991461545 0.6641825381320239 0.23422261289713855 -0.9846003560700075
Ni 3.034334501663357 8.044691465767519 12.140878149550003 -0.1922681228422237 1.618746495740941 -0.17984378103594187
Ni 1.985289659302518 5.475817126160454 6.614070253221916 -0.8497729918437559 0.30389359503071534 0.7347909444782056
Ni 2.005261113374281 4.7924765066755 13.16096991066197 1.9992944462016018 -1.382040968520949 0.7123264448271023
P 9.192009127333877 6.182030956189774 6.790408612273262 -0.4975290305341109 -0.7230728847103288 -0.03321839573349763
Ni 2.838599512679583 7.406940664641031 0.9349790984041053 0.6368511973069225 0.26026197438369375 0.5240669289236394
P 3.559091826939177 0.5918330382269898 8.914104685778739 0.036364654671963176 0.11735800379689465 0.0099887357815957
Ni 4.186433152465529 2.4356883234771987 5.48681800736548 0.21052064129450837 -0.291898113231736 -0.06341394548027143
P 0.6155555882849254 8.216797866331516 12.382607360413346 -0.7523346097889237 0.874708321632855 -0.20587131544795512
P 2.9597639662800903 4.5028167272324575 11.12294290015307 -0.22529342872830876 -0.518299944532875 -0.41522287613502684
P 2.259602371179344 1.201106093450595 5.659301175674652 -0.04844961086095527 0.17635787936987046 -0.49253723374647435
Ni 4.294350857470467 0.22927468784441976 6.648248338506535 -1.5156342032297834 0.6260021704075606 1.8679306150439183
Ni 8.079742841571512 8.616208523916157 10.725314750115889 0.6677939096323661 -0.2550701457701091 -0.3551415945724142
Ni 2.1013967659079147 2.952394426032207 7.4121988316078955 0.5886823509111797 -0.6509488130505692 -1.3616930009922161
Ni 2.3882008485049027 5.1131896863380595 2.1903802796309786 -0.09973746250165404 0.3247982063938665 0.10826349769479418
Ni 4.43902414446172 8.081023299189582 2.759804388349218 -0.10037098232059488 -0.05696407608986964 -0.2654088086919558
Ni 5.005972087656671 6.872022585748441 8.553041430873957 0.9272182186061128 -0.4827259040830074 1.31935207413216
Ni 6.310961062826487 2.6974267573060744 3.5639188758015403 0.7336635157419816 -0.47666709948343716 2.281763295699638
Ni 4.792669957107006 2.8466046757738463 12.820615985046272 1.6642773902932047 -0.3391303067458224 0.47702653970538494
Ni 0.47823802365359 2.248078252616717 2.8795695504951584 0.8117026673345956 0.6195484443624169 -0.43476994502901894
Ni 6.976448971060944 5.977369611580753 6.937935753725507 -0.053026688708676425 -0.7490937342541227 0.6575141249729127
Ni 4.197699337119481 5.366959804773911 0.5729743847326573 0.7487445784448201 0.2106121725670502 -0.2250345186399673
Ni 7.512592236019744 4.565328852385125 3.090881905177894 0.4404649385312673 -0.6756193192140558 -0.08344566732016596
Ni 5.3363117292680275 9.428958270153936 4.563153916819469 -0.04223833984392081 -0.6341710793715981 -1.1486519072686991
Ni 9.123905363518128 1.1024371614567512 5.941504822771899 1.157140918576317 1.3445332013834779 1.79202959284023
Ni 5.6141341846879085 4.505055225082752 5.0762065697965895 -0.713615595952171 -0.13986621220173975 -0.19155284194275396
Ni 6.194301240702498 0.3295391253019303 9.168521481371343 0.8593727197170491 1.0761452554585402 -0.9444860045476251
Ni 0.5908492046038976 2.6531081846403675 13.406178465714845 0.5547221919156511 -0.6846451768617499 1.3541254730576033
Ni 5.68201686229622 3.6719194881342663 1.4688866290902036 0.5206902991419226 0.08355133966009481 -0.666844144124587
Ni 7.707267853592884 7.481253266115622 13.141757519235739 1.850320358161323 -1.0614943383145847 -1.8422836038997756
Ni 8.032817294043117 1.8102078068634369 10.362996830983906 -0.7790517140687938 0.2529896090919965 -0.07010087058214379
Ni 0.26838668032499696 0.5301352472717132 8.681691494981251 -1.056761965835922 0.22775577422587226 -0.10450145954920068
Ni 0.35295123347692364 -0.3395967053552286 1.3249797742847298 1.2799494039648214 1.446572058324799 -1.4881200569699145
Ni 5.899906531650192 0.6292739874563597 11.907049085832393 1.5059226323689743 0.13661916601935178 0.10711395747138326
Ni 7.773750318554099 6.014917419143717 4.773670361155434 0.09775745595714777 1.3575460687033782 0.5171131233136255
Ni 0.3445757509852046 2.8250579824740982 8.923084470570785 -2.984204105981912 1.6383966658717006 -1.4972976097041246
P 7.717926051176384 1.9207877582829218 7.888822004754668 0.2663171794388381 -0.4625154905734034 0.6497861602010357
Ni 3.2914577609119955 4.54549557719301 8.78239349889098 0.9975031801746047 -0.5954664637125487 0.22338978394769268
P 7.124014802599492 7.430237623749651 8.787395574334232 0.5355286497063358 0.7350475405737018 0.5712770109505386
Ni 8.065022184926365 4.7400514397371225 8.712432610932765 0.4809045346035524 0.142318016176342 0.2423861225445374
P 9.034779986145292 5.23603071034496 1.7302197382054454 -0.07769616643089845 -0.8138081437133727 0.39622036689059503
P 3.846513108531925 4.460699804715806 6.466544032962201 0.9595601252719281 -0.7453715482075292 0.2660896368090643
P 8.320726807677286 2.471476653305981 4.474680743758571 -0.5407119936794882 0.40765174865598824 0.17892615431767894
Ni 1.790991730667082 8.82903163434971 7.18536806754818 0.8398292503674826 -0.44544542246499413 -0.0893185811611752
