# total energy = -340862.94551480986 ev
CRYSTAL
PRIMVEC
9.34762170068962 0.00000000000000 0.00000000000000
0.00000000000000 9.34762170068962 0.00000000000000
0.00000000000000 0.00000000000000 13.68118923103930
PRIMCOORD
 96 1
Ni 1.1733041271850932 8.128542261602803 12.070803560266572 1.1841290171293863 0.1555939073496417 0.5431841093690645
Ni 1.5671194290780974 8.181814357626735 0.6104641950912943 0.5081294317577765 -0.17740637523904285 1.5514653539957797
Ni 8.231711962219777 5.831897045177503 8.085281468411234 1.6738447222666657 -0.17327769778264998 0.8847168549087924
Ni 8.731884503726798 8.539809573195171 11.037066903043598 -1.825402768984037 0.936364146771439 -1.3066950474897818
Ni 1.0421663424650138 6.53569817762773 6.820633316811987 0.16685842451986746 -0.6186305605338378 1.2560211752839983
Ni 4.504254336232254 7.4297981924880645 13.693502078402238 0.5140195719899663 -0.18536728195733237 -0.9595051036642765
Ni 6.684437533994251 8.443042993437365 13.003025980674265 0.017560891701898788 0.3680410762429016 -0.6899920429959601
Ni 3.0273207612406434 0.12166770918369695 8.349766815619432 -0.21450276587070802 0.05479920722806692 -0.1720764783856972
Ni 2.810194204573881 7.753693284123302 4.505092817898046 0.3860747938161609 0.18128694124037167 0.05520441308628557
Ni 1.763569046561681 2.9386211790032184 5.319971738916859 -1.802711240923792 0.5745443688479008 -0.2687833815911435
Ni 8.722134934301819 1.7284874223507993 6.025031996009028 0.696446283261736 0.2607689959270993 0.20974493947074846
Ni 6.613432999620188 8.888709552857085 1.8055753889221553 -0.5183822198340363 0.19015107649922092 -0.8102386811945594
Ni 5.060232179241798 2.356619557202549 8.71323506368866 -1.901712853700686 -0.056984130694527665 -1.35721388217494
Ni 1.1199946406743932 4.8420960794322765 9.403765377622452 0.699063409169609 1.2690885499909175 -0.8349287277420717
Ni 6.238537284032226 2.5506855311546173 10.627438229533874 0.37950408257717866 0.25313461931029313 0.26391011265924225
Ni 6.01227810097217 6.044387181484927 8.000116221935635 -0.2728248986503688 -2.376157234501192 -2.232253619005285
Ni 0.6233872820807811 0.3542327978373211 4.634406881625974 0.7812083554004804 -1.2836057697704861 -0.4467237749567855
Ni 1.30535797883101 2.0848748469881757 8.217031522352153 0.2150082447522168 -0.5279909465683938 -1.478017421318274
Ni 3.910269063422165 4.080227521030012 11.073158070397238 0.07567090847075356 -0.02920644636062712 0.9648221450018158
Ni 6.428976380767716 4.257093871068405 2.331684776338566 0.1137998541319911 0.2677441416933518 -2.7956638256132367
Ni 8.324290807459471 1.8617751600600883 1.4651873535731734 -1.6821807529361867 0.747782471641867 -0.6972793206859927
Ni 5.062550389421467 4.288015803626252 6.4531025923553225 -0.6688156660286612 0.423469175304219 0.9541458962348921
Ni 4.141669438412939 5.465778746358532 3.4294498378667035 -0.5324790642467345 -0.06265495582705985 -0.6132872939440535
Ni 0.3775083758509356 8.14684490487616 8.430089059296295 -0.3855847415536198 0.29487853601629865 0.37794368006859425
P 8.20404300201082 3.832337941374171 4.226515930988834 -1.2502331078473112 1.7771148805119263 0.9343872255507263
P 5.8908711904336855 6.865482270929064 1.8258915099080149 -1.7097026125055392 -1.1481502850419323 0.3148693773159287
P 1.5498450241908848 9.44334133834295 6.697325100021307 -1.054990475757796 0.5179032233150886 -0.07774913115602093
P 8.271009363813846 5.323779025232098 0.6257737298988035 -0.2450834668710424 -0.7851714538132863 -1.5742784952355533
P 6.476677294263087 3.9457152448790427 8.93210682132536 0.947734850502226 0.8082393913763435 -1.761068368572025
P 4.708172703447917 6.199221187194771 5.516584005017888 0.013602935495415282 0.23914344723752362 -0.3535508530465266
P 1.51593185269153 3.3044216586846553 13.460525694394159 -0.8860193757702998 1.1795897344981363 0.4499805913311863
P 5.317525466320007 7.512281606300166 11.120959938206887 0.39255963020955614 -0.11302852318360533 2.7270457102242065
Ni 7.06987736685103 3.4243890354825384 6.493297365631845 0.7754405996787678 -0.038792033166533194 -0.5691265402664392
Ni 8.573928392371755 3.298504614153483 8.417461357152282 -1.6778322461595037 -0.3927954003694461 1.1219052353024743
Ni 4.693319332578987 0.7593633957887511 3.366817968242357 -0.5138102841926377 0.39773011866690217 -0.9264504872021528
Ni 4.832813891091907 7.474152657417623 9.088933739979984 -1.9393787436825762 2.28010416282966 0.07440978237014281
Ni 3.3618160558748533 9.02548395345757 11.18301786385933 1.4848102758703912 -2.716118264678425 1.8216003645188115
Ni 0.09754617140693697 2.390327081024675 3.609042889152716 0.40334129420609244 -1.3425830196356425 -0.06752025433916113
Ni 5.6547035283798825 5.367666109077046 10.293521552682414 0.1031716849941836 0.2024095821515998 1.0991034069166103
Ni 4.152568765306062 8.148004009965994 6.616236351365683 0.15642848743579513 -0.39806924717387576 -0.2277948549939238
Ni 3.2172924768915223 0.6522602159636938 5.264713273283332 -0.5031841719373592 -0.029127770603891767 -0.44549350209411015
Ni 2.592067452386052 5.592495106018194 5.3610564057784815 0.2834013886146345 -1.4561188214729697 -0.885999578275958
Ni 3.110720241978583 4.7338880107231995 7.53605073873913 -1.7100419981228292 -0.2569416517612091 1.5173283031027547
Ni 4.082106392990147 3.26805941030194 4.6750540797924005 -0.11930278622809132 -0.5327397741072889 -1.0795403971830182
Ni 6.315262562881925 2.47687671027289 3.90084946504292 0.9106921959266315 -0.6995642600654275 0.3444961990434261
Ni 7.632351806936663 6.3097755089485945 12.134626316894506 1.6358960109370344 1.422653085615356 -0.5820653598152944
Ni 2.395823482579697 2.9899583173368613 2.886812920536288 1.498581875733187 0.26581838542554864 1.0588052215181958
Ni 6.616377500453236 0.32693493820954656 5.085380085880364 0.7144378347431503 -0.0690757717517391 -0.012139206465695223
Ni 4.435315626252171 4.982216928598575 0.9133420941137572 0.030674546265721366 0.9145097699005089 0.4261469792466983
Ni 9.027933030340929 8.427376379481215 2.2166809866592487 0.9004900585826491 1.1831692243192782 2.339673794863177
Ni 6.464646905145207 7.468497346293833 5.9057180179674305 0.4326611262161323 -1.5823430174112425 -0.2298903040703718
Ni 3.296279880190736 2.413555920929828 6.788373739589986 1.2209793531885167 -0.16309201549889976 2.037930156295929
Ni 5.289996720436434 7.8096201047078235 3.934149432559266 0.09022309525331558 -0.5730762689428066 -1.0547739888716157
Ni 8.213596271380265 5.559956034907594 5.817693334016183 0.6383542642150103 -0.2748653261191653 -1.1120738510343493
Ni 7.126598735279389 8.199042024405486 7.942162836968243 -0.6240329624963317 1.8941571528406156 -0.44301547286726284
Ni 3.223116045205772 0.23482347405446322 1.0070351758591634 2.2452253486746043 1.2709364018329339 -0.20966009306642602
P 3.0037273640894937 6.852479729155193 8.045620444333336 -1.0302325520868256 -0.08603322554168409 0.4150303005082465
P 5.237846339015569 1.7334042713609041 5.9994475554374365 0.24831714331699167 1.1921153777689728 -0.7318136070174364
P 7.726426271647113 0.7518983851053485 3.1582201816075717 0.024511869098435203 0.5816863792093208 1.6238555348327324
P 8.683968594932507 1.2108161330359508 9.457422595660102 -0.1854510999203903 -1.268755592131531 0.25835601561023247
P 4.524379765735592 3.0530547637593104 2.424731002662871 0.5133091761865031 0.11962520256451656 -0.2041407059100936
P -0.19281993598049657 6.589820907225653 10.263559620872357 2.0313432471070305 -1.17321854086447 0.04300529991693238
P 2.1245181105848583 -0.1369277015962374 3.0898142860639446 0.8373165112479579 0.5768354788749227 -1.347697972264705
P 2.7023974312192616 3.316339876342229 9.521656647642494 0.0047470277666821475 0.7308378733677284 -1.4739939019811774
Ni 5.6424394487196965 1.586085753491601 0.38353198326939875 -0.2643767678830156 -0.8405828407040556 2.0603218937275676
Ni 1.2802222241006447 1.556603354674356 1.412131187610332 0.2664580758920766 -0.7353594153871658 -0.5536916937686077
Ni 6.383761934642473 -0.09650671587476271 10.30944616099727 -0.37167481634074695 1.3865031180573604 -0.3899180788216511
Ni 7.118475652028854 1.4238484314015234 7.72185434987745 -0.5173206113387414 -1.4178124696936032 0.8145900161847196
Ni 8.90409573816247 4.507423179985914 11.102244130054734 -2.6632098467151684 1.0846610062390352 -0.464629965813245
Ni 7.228824326105449 7.143405759081991 9.787372141865387 -0.8010688417698333 -1.0123266183406823 1.7465092398109276
Ni 8.792531873265888 7.442305310312247 0.2895790376409491 -1.5748382243937653 -0.8983025640130271 -1.979666130447713
Ni 8.658945011662448 8.350660448253208 6.237445481818575 0.8951869012021808 0.12355230553306465 -0.5998550796985477
Ni 6.2618689477759935 4.847003580820689 4.407518603626031 0.06656174708063375 1.4057383121378886 2.1764313698293423
Ni 6.002070498084271 5.0947903366379155 12.7250520153642 -1.2431018961191687 -2.264295477932178 0.710632344954131
Ni 1.4753725221690104 1.6275331080748807 12.131397648362015 0.5969253076462623 -1.2482744414590439 1.4924659926434363
Ni 1.5052007829888674 0.2745172148082836 9.994984689173815 -2.2936955283608493 0.9628105138884258 0.6644926131732749
Ni 3.5525916669912623 1.6933871028965333 10.532176616868513 0.5733261801700836 1.2973771125229656 0.08450573315356415
Ni 1.575635112439705 4.972523444903747 11.917451152594944 1.3744001641462396 0.05035454119315198 -0.08384341697921689
Ni 0.5998004282648158 2.71914836929171 10.388413934290929 0.498101100987497 -0.9350731958741574 0.24381822700537362
Ni 7.9714648266868275 1.1739117225950872 11.963378822255303 0.7480478094881117 0.27147275549784855 0.2795046246633896
Ni 8.177804227920774 6.0027715697111885 2.6000549951220493 0.06945012437202233 0.10775596193075636 1.076464586471172
Ni 3.532746666138691 7.486454127564577 2.168961377920493 -0.7553456287011056 -0.29353847704863634 0.24736609225763204
Ni 8.67996781284824 3.480689760934747 13.162890876378858 -0.4889178918263322 -0.12301031698666556 0.6374914019940827
Ni 0.5820633161038385 6.886785500765622 4.5598857719713 0.35366526713720375 -0.43658720074341584 -0.9309512032859839
Ni 2.130210812195417 7.291911424906206 10.12480539399746 -0.04332411670893184 -1.3166791552856874 -1.2815244617614252
Ni 0.6269300307021305 3.873579648280222 1.8762518217748212 -1.6752991953250052 0.8819914855578295 -0.45752857888177334
Ni 1.266658825025241 5.629296692620443 0.5454496166976028 -0.3049230647364942 0.35272861425554736 1.0431849984824357
Ni 3.4505997667075086 2.9160373249948277 0.3771382100319239 0.7619443649645458 -1.273828121558432 0.34169575348015346
P 6.594251679907764 2.6796266247770264 12.65737149526389 0.8239292913077746 2.214988918387566 0.2830751156234673
P 0.6129628143696233 4.264095239715874 7.28806487857986 1.4062077955751395 1.1018516590857086 -2.4181749736938745
P -0.238515784622888 0.2942294794328259 0.23787453777480208 0.22940745089668232 -0.389911908174064 -1.6562555484299928
P 8.043235866039652 7.680183587135726 4.078581404850013 -1.5854805345989598 0.5030034233851208 1.6336673787168317
P 5.097501146928658 0.2234707875092685 8.096364008689523 2.3210893469927703 -0.49320752034062154 0.6350282851655709
P 4.090855766894061 1.2417754560805658 12.688208364464337 -1.3237635729362942 -0.6688408628396416 -0.27629794480063385
P 1.6196343677449596 5.8831594025376095 2.899632248924991 1.0221590310500719 -0.6683484965842554 -0.15473284490092706
P 2.5463295394460452 6.697299861442738 12.933403024786312 1.2038043840711268 0.32990441727218023 -0.5607689123303633
