# total energy = -340893.7403386053 ev
CRYSTAL
PRIMVEC
9.03416359971326 0.00000000000000 0.00000000000000

0.00000000000000 9.03416359971326 0.00000000000000

0.00000000000000 0.00000000000000 13.22241161543517

PRIMCOORD
 96 1
Ni 6.607867296250653 1.8428428905706562 11.360695581107304 -0.32864149139935656 0.530206466162474 0.40109826380818664
Ni 4.752403679168729 0.29784101491867365 6.07580384629329 -0.2027196571928509 0.36559390025398975 -0.633795184089418
Ni 2.8836237049804314 1.5863720209011183 4.855084175504988 0.2775107341618124 0.17571330380733607 0.08982431715300014
Ni 3.6221304404063375 4.202756133233178 4.934300238793492 -0.045955383684191824 0.11749812891918474 -0.28121826492038665
Ni 4.759856864116328 4.390404744804773 2.73026968174772 2.2321332913773366 0.519435343688899 -0.8003103663372539
Ni 7.054218215894277 6.132028866705257 2.5149955013867196 -0.08087147883508652 -0.21127757406519096 0.1068041395404483
Ni 5.051199605177053 4.725156641833025 11.425075740976482 0.25131864914747687 -0.12361452622956774 -0.01470233920718113
Ni 5.460365907554841 7.792815292955911 12.296829161771013 0.1472992714410173 0.4114808925940913 0.8362423043471728
Ni 1.670281332165716 6.4812896304315 0.5478271619756223 0.4633636975063116 -0.3246076876496151 0.09128521796924277
Ni 2.770136542178334 1.379923314934431 0.24361886857080653 0.14652305539662508 1.2510494331010196 0.1059019394411531
Ni 0.5509385279101107 0.12681887798654662 4.671556949355327 -0.03792891383528951 0.11932438349464612 0.2162647428671372
Ni 8.59604277621769 2.250464350977488 1.2569728657897772 0.16013858929753066 0.7903496555801163 0.5827222766730029
Ni 7.0104928642017 0.6500803423748849 4.81527152005581 -0.8830240405874018 -0.7980855907717933 0.4415797688620008
Ni 0.7521645839153352 7.391689396157956 2.6548615184051707 -0.04016705913718889 -0.732358423777313 0.07775273070044673
Ni 7.748909257991878 3.7991548756162636 3.919810647213414 -0.2827460144188227 0.4818288461900347 -0.40118928086009614
Ni 7.742079430330806 3.8815374132370506 12.846564339093222 -1.749521287164374 -0.17286940660063776 -0.3912743357392294
Ni 7.670944426358212 -0.2835498715627879 7.219277804868325 0.1914201730196316 -0.26705868559055296 -1.3875498141543199
Ni 6.94333289220116 0.6462444365218543 0.2428834876559768 -1.1034544847964545 -0.45070204287824317 0.32480000616607935
Ni 1.9373763781969213 6.465732800759058 9.098976469150765 0.2713732538055068 0.7202184459806693 0.07939977938556649
Ni -0.03979007004024491 4.869052799221323 1.792893000176388 -0.0784520707603165 -0.6261669781201991 -0.38102900386213734
Ni 6.349038509888602 1.919633280939851 7.217598353860133 -0.7130741216264042 0.19915893642478602 -1.4294022314137318
Ni 3.4180757877864547 4.395563252204868 0.5726431058938742 -0.3905330866978306 -1.2191422999797779 -0.3608013639613528
Ni 6.036610031048852 5.581541143557431 4.658784448896036 -0.2562739362702232 0.6832084444152233 0.7860237745112528
Ni 5.537065956288308 2.7038890206986514 9.443882766034896 -1.2354232965279885 0.24102112387621075 -0.4146428352618407
P 0.10457767068655595 5.4259547785058695 12.544630848076048 1.3252684396165948 0.2046623827415185 0.3768249930831188
P 3.670815547900407 6.193000436658398 12.73742712605145 1.2053953827073307 -0.0841933441194679 -1.4043738276901943
P 2.321554184132217 8.531123276783214 1.3298839863207919 -0.35932503652614245 -0.009952997447653827 0.27122541537373285
P 6.261452294049855 7.611571903357465 5.928612026033617 0.4028736105410545 1.0753196742334512 -1.5031679524419723
P 4.825652677417368 1.207777328053842 12.428167831793054 -0.689432056727432 -1.1216159861968296 0.5332285408182493
P 4.083188978346556 6.317870645562282 8.268052950623712 -0.7797873066832376 -1.4728561888323086 -0.48054637993318533
P 4.71930250383782 1.0805763049481638 3.6614706091006544 -0.7716245683667873 -0.6060226419618402 1.262241702272413
P 0.16414713845319087 5.599699812338853 3.886489941707685 0.1762339521974965 0.3100907249803627 -0.7086266273780117
Ni 1.415048142905658 1.2635632881161687 2.421327486630733 -0.4266884535724651 -0.512783128479704 0.2654016096031042
Ni 2.0612889657620834 6.455217034360266 4.812442020024796 -0.18739665368253533 0.052983494175566824 0.26371239482613934
Ni 6.21614596373203 5.558937666298169 9.066118312819965 -1.272478806619389 1.4036909426905568 1.1118447657426787
Ni 8.625683866900198 2.4228723286016893 10.13122361264963 0.6186336458576314 0.056995700658753444 -0.29907946147152364
Ni 2.517974968533044 5.225549927969417 6.956852517987924 -0.235583240690091 0.5441498157164434 0.6655863604580861
Ni 0.6666977828507786 9.12125290968869 8.853157781749971 -0.27414233191021176 -0.09338272392821982 1.413889223379797
Ni 1.528950877232106 1.1173814873439405 11.34969468012465 -0.41790273696003516 0.31113459286384476 -0.8089153343974455
Ni 3.8964799197865383 6.793438050200491 1.6256688256102856 0.6943896578430234 1.0889220955082342 0.2761691325322534
Ni 5.518807911707586 7.982460454677104 8.11370787964706 -0.5457341294844279 -0.5057295640670323 -0.0510389688546863
Ni 5.616729210673668 2.70359992746432 4.679133902343873 -0.5955739358246903 0.5885093156684251 0.32224175852059983
Ni 0.5929112518695553 7.501806815947381 6.890291511032263 1.0159454460401922 -0.5805664066722647 -0.6150137897168569
Ni 4.96943139067922 4.738265213177225 6.9441721659970765 0.2710906895680815 -0.021845892230497863 0.6452720743807661
Ni 8.262302705509596 7.211909541058312 9.044433609996062 -0.47976682145468336 0.06676203601689792 1.484006291911857
Ni 4.475163267445218 0.15485730805123288 10.282699433275546 0.6688609174442997 0.9941414627912234 0.4114621235410139
Ni 8.07908986825227 7.405565871405848 4.531003432488982 -0.7711265456844462 -0.844644669478255 0.4294207649019637
Ni 7.342091838143029 6.119588823465447 6.985572123986003 -0.04477833265695514 -1.169953754070269 -0.3739754394494656
Ni 2.328411114284007 5.20397634535746 2.6664577707672765 -0.7229533284133292 -0.02361532542609481 0.21957426685634443
Ni 2.364186402032479 5.0674610996081775 11.333126927548408 0.5490930186543318 0.2682920437770218 0.8799469443239749
Ni 1.2655959749200592 3.248296751761951 3.845434185350884 -1.0908380815840246 0.47592096534603195 0.3972940595707481
Ni 3.468350908069345 2.6045764605423503 2.5265249009383863 0.14451810915145435 -0.9298649122003405 0.2504863830541686
Ni 1.0439969766417088 3.2961055453894543 7.8977859497578855 -0.9225249268955014 0.7789684103263681 2.058721124899351
Ni 3.48588621956424 2.9186310888252116 7.3625695767136 1.418179366114719 -0.46653438192480945 -1.5040678385484225
Ni 4.197407908398054 6.92137084055557 6.095743148714919 -0.4162562024955476 -0.018374131631813517 -0.7051394401603598
Ni 0.9644782688735143 7.096127700708712 11.552566760732848 -0.5087228423674013 1.062494497444325 -1.387416116789933
P 0.20820765761432028 5.586130498652437 8.027233769344132 0.4413339713997818 -0.39684154541436173 -0.6119624044850429
P 8.361832085591645 1.6141249713969024 7.923226154379022 1.1194107510153948 0.42232323462523397 1.0261018177479038
P 1.786063172515316 3.251802007228216 10.171339815994855 0.12089969840156597 -0.3961476046711307 0.6632638829724965
P 4.029959686575345 6.090824046649504 3.759765922438653 -0.14927824954425906 0.8853616875816429 0.7585461379162743
P 6.9539570685628265 4.0155682640038 10.485795561140351 0.3335402142525546 0.2490558212552291 0.5766585869774262
P 6.305195714069577 7.692355394025858 10.24242422865144 0.2500079007558533 -1.095130024091159 0.33211299488772483
P 2.3563357138876753 8.481308898842538 5.7578582037596036 0.5349797191814013 -0.05619428780338064 0.519971161587711
P 6.825536433374815 3.8714372183626082 1.7679550950499028 0.6166703514836736 1.6692414191666993 0.36667762023647177
Ni 5.516224140925751 3.003190859867054 0.3749819308344949 -1.353286522096076 -0.32375870938575857 -1.0248311785655964
Ni 1.403647028476726 1.1133612845540237 6.889325758946327 0.10756544318650507 0.2943242061747254 -0.8523510369835773
Ni 6.890519171954299 0.501396078292978 9.305787445076724 0.4400880148078227 1.0443265682860465 0.5278505643357877
Ni 2.7700642688697514 1.6649150390034453 9.086216616520476 -1.217620721128929 -0.939269236233376 1.7527709044499233
Ni 6.3260194611049885 1.8420749866669641 2.3892769845233457 0.7643961689391481 0.1235708174758259 0.8405324470820943
Ni 4.01286704909552 6.807730096972734 10.35880774429499 0.6105043318822776 -0.2048906967022407 0.7398889278264031
Ni 8.328505056171414 7.117330882614182 0.5220951538710839 -1.577793193257031 -0.3955696206804736 0.1468022771999407
Ni 7.4666458513218625 3.7369817619079346 8.305432705822723 1.3574367968190235 0.3678125051718633 -0.868006227022331
Ni 2.9999114584901108 8.251362333422879 12.349838019951047 0.159617426686738 0.39208011946997634 -0.05506531640526
Ni 0.40014569005030143 4.952907905504484 10.09783695774982 -1.8822642580577713 -0.6139652938476845 0.12629747237836958
Ni 8.606079731947121 2.5517446719683443 5.963466732514016 -0.5760029556712983 -0.5060874616270833 -0.6697042392812015
Ni 3.5963017667515693 2.7977539802205262 11.489746800912702 -0.004494802546560001 -0.294373314245106 -0.014302018444968919
Ni 1.0114739877794614 3.3285381926159734 12.524321144947933 1.2440390632214575 0.14644103720578006 0.25874168108442536
Ni 2.965337714496828 8.47864382058855 7.893462199071921 0.6745970485971285 -0.41595975430105137 0.2276950961912659
Ni 5.457149745322908 8.03164244116768 3.3521986670132584 -0.09907231811382937 -0.7601083401970716 2.897472825931939
Ni 2.6390417945727593 8.54986916619687 3.5894484502652078 1.689941113607896 -0.30451605910606266 -0.5878439141702845
Ni 3.635401626694849 4.21107659788377 9.36300080298356 -0.03321531040970409 1.245021738849701 -0.35365703960708766
Ni 7.334981951411199 6.050811736185367 11.589219265764244 -0.7428505815578884 -0.15835141549012086 -1.0793604199617282
Ni 0.5021558514494544 9.010223039378408 0.07211972780203323 0.6768279948101763 0.8034792509835388 0.33788949236018584
Ni 4.472751145771268 0.3668855134405099 1.6616600298681488 -0.16084281445340687 -0.35126308545361445 -1.564894482917492
Ni 5.759667746723244 5.595381482151032 0.3887274107105808 0.4347393489013997 0.16764389653564032 0.4527684384889686
Ni 7.910647888436547 -0.49093722712469373 11.498592150466877 0.34140881836735393 0.2907899677692218 -0.3841863185441964
Ni 0.33723990567621426 4.834641670172351 5.924671323883142 -0.6156781627737332 0.4946213699690127 -0.31309814434811883
Ni 8.161490474200201 9.01711610618449 2.27100171502764 -0.7436345109117645 -0.088820301368518 0.6419725776938879
P 8.467396286940355 1.7053700234826517 3.724343870485879 0.6955795643860666 0.4238018760532895 -1.1050262001589486
P 1.6748435847700034 3.364512231963048 1.5873901711357778 -0.16964575745701752 -0.6590084501302521 -1.1267918739708143
P 4.6013253617400185 1.100117200756231 8.225900446809169 0.8764263327652262 -0.4706232072822024 -0.8146568648669131
P 8.532668118754172 1.7760352509494566 12.31913541504873 0.5062388996032829 -1.7042860694756583 -0.1939586231707692
P 6.189549386173571 7.887574634671498 1.447417550987167 1.386163989550387 -0.8204104795212387 -2.1754731196811306
P 1.9228946139896486 3.2826988466473503 5.972629181209596 -0.06528545147137144 -0.6834185035435004 -1.022361376868865
P 6.716223054143373 3.934107211067444 6.080352547652218 1.4154550252050202 0.3240302178795903 0.0008122114886502141
P 2.4011090285547025 8.490044935017481 10.129914562347924 -1.0970424106225234 -0.2062382118690706 0.2817306857804309
