# total energy = -381172.048644498 ev
CRYSTAL
PRIMVEC
9.26214768614057 0.00000000000000 0.00000000000000
0.00000000000000 9.26214768614057 0.00000000000000
0.00000000000000 0.00000000000000 13.55608937089954
PRIMCOORD
 96 1
Ni 5.143492743862574 2.339998181786101 9.4830533223862 -0.07657387990099715 0.6998761348788916 -0.5778945162670563
Ni 2.161738892887405 2.219970013603715 10.21307633010149 0.8178028666950624 -0.47061112309734443 -0.6822391385234186
Ni 7.127991184065503 0.19087248123072503 6.358077033704583 0.031978866899441696 1.5685832446229888 -1.5856160317355594
Ni 0.4566720300845866 3.0688087744064707 0.1874315934708858 -0.5365799737889856 0.5826952800898094 0.917681225649955
Ni 8.644028732970591 6.638310713069704 0.7742831052904389 0.8052080607491875 -0.7378168757887229 1.7620307324852946
Ni 6.684491780016026 0.6431134999981998 13.13343696323731 0.2423059041259053 0.8745797664747906 -0.26214042235332924
Ni 1.5810856101092639 2.537541261575739 3.7965319909218467 1.2756770018417125 -0.8140243734892368 -0.8038399767570672
Ni 6.89081537554275 6.7058780783672205 2.8607003630753827 0.2637617600068361 0.45788313400771463 1.1771651842170436
Ni 6.461385173396896 5.8056807102204315 11.918879533622766 0.06190985013091919 0.9912124620698864 0.22317432550277694
Ni 5.322455955963821 0.40222357036724954 1.9473461145440676 0.7214662023448414 -0.13112060479862578 -1.506014420751832
Ni 6.145082839618945 5.570329544735872 0.9228933341406248 -1.3375287450411868 -1.0918441542510358 0.6202272155969962
Ni 3.5848215304661255 9.050822246865984 9.367732177513506 -0.08997729779109666 -0.4140743643528804 1.2248902582071486
Ni 1.523734393396143 6.53741814141983 9.785259594033063 0.26297345977758585 0.1882803418390693 0.012678109688300748
Ni 7.603926628316748 4.527522893040645 7.9768632885989055 0.315093834621909 -0.44024973719666766 -1.140497653592681
Ni 5.537958339565917 4.637140407543194 5.551733931396896 0.302929174234917 1.7210694595815843 -0.6783310617182641
Ni 8.185552436572099 2.2521281893834235 9.33530539945914 1.3353175963224808 1.4838049745343285 0.4222630708112599
Ni 3.5280075183023203 4.227753492375246 9.40983697338821 -0.5021855554695158 -0.04171512035059913 0.5409922439240683
Ni 1.435957022467486 0.6559397217204752 7.942811003675491 -1.4995992612541078 -0.26771791644110665 1.3572583622596301
Ni 7.926434600854032 5.561780582683835 5.147938574615528 0.289158859923702 -0.1684728201948389 -0.859708762900229
Ni 0.29466503123216276 2.5394400017931464 11.49813907816946 -0.01746061867860864 -0.16561452481043734 -0.07122649954615476
Ni 2.7474493081470333 8.416272528355664 5.730470220886794 0.69435469084003 0.36548257148710606 -1.2834013670691637
Ni 4.613466358783708 8.065339025441673 7.353581898617846 1.1701902955611072 1.4392331014612245 -0.16110275298301285
Ni 6.688502289841088 7.824365736484104 0.4784454861971842 -0.5337761857916032 -0.22778148525748515 -0.495917720182933
Ni 8.758416253385166 1.3117608879542049 4.616282051593913 0.7170148514417071 -0.7960220233745452 0.4499348256949154
P 6.75181832948109 2.5811011408072964 7.895486061525024 -1.2081300080296742 -0.5640722656719833 -1.453895845679722
Ni 6.47834416528994 1.1387532366324378 3.813693823842994 0.9014233690301959 -0.041161047619342014 0.34352920714446644
P 2.314230887713765 2.9365360473586546 8.083550259663465 0.09652564043257571 0.028488080137363838 -0.8578675959264322
Ni 8.807338915962475 3.4185752467478108 3.7959484756355217 -2.2521678414307083 1.3100133132297374 -1.1762858669358838
P 3.699598061071583 6.099161112799879 11.093422137721594 -0.4546114052349784 -0.5090411449387685 -1.195326685617419
P 8.224647960755897 5.022918108983471 2.276961858997639 -0.615879737261578 -0.08105891225554428 0.04731266904303465
P 0.9508983630252811 6.2781335870485275 5.4966148922076545 0.0798659203887076 0.04342670372506714 -0.06932336898617093
Ni 2.1034985100236936 0.1478386919716001 -0.40829861284821456 -0.20933202030304593 0.12875159034581696 0.6675450268463535
Ni 3.21468759598781 3.2183831928012037 5.99717282911235 0.242071419517596 -1.1673757089304475 2.0651331990732817
Ni 5.9982222304129955 7.217343120052498 9.743669773553908 -0.8845476763207798 0.4658931487963847 0.3305340804363791
Ni 5.0008093631349215 3.8645569063010208 7.492341833706016 0.010514269267762538 -0.25755897363023383 1.9295296188026383
Ni 8.332727958789715 6.825776576485978 10.275094742890472 -0.273391055566484 0.18637309751402742 -0.9823652960919017
Ni -0.05205419461392278 8.487368771813337 6.430480166160677 2.076145491023386 0.0779519911954464 0.959592006951128
Ni 2.1182808972772693 7.617190023396398 7.68311706238902 -0.5927493218917018 -0.36881986339045514 1.0006016165942704
Ni 0.7107336595359066 4.210618519681565 8.823481912669404 -0.6380449605047076 -0.1630007413366741 -0.021134467985770053
Ni 2.8542140812497694 7.126981609998686 3.625210050427242 0.14189866925073627 0.04748776116831822 1.0217450834411048
Ni 4.24792644941678 1.3848484931033065 0.019556098024561226 1.347088363705164 0.2616819946596719 0.3971271949755805
Ni 2.3827707784884895 1.9494504744337995 1.543320130292391 -0.47670309492769514 -0.02580487687824588 0.25546866676010843
Ni 5.052112397594542 2.3332275520352463 5.034867205346778 1.1057111420411152 0.20272248540632828 1.308880999397507
Ni 9.019562499384268 5.920309046467457 12.246421483273032 0.9882898891064528 -1.8141955874143076 -0.8914739711269679
Ni 1.2997108341842163 9.113137974586571 10.818938399463626 -0.23853126757482146 -0.04185061748719889 -0.59244593171867
Ni 0.516558296541632 6.740842684809731 3.33897357333089 -0.4035073874703115 -0.8167553992671547 -0.3903045156267923
Ni 3.608949424448309 1.1454034584670665 3.6774957987262145 0.18114218813239125 0.6320504334841696 0.32630075908132194
Ni 1.67700440860427 4.444487741581807 11.08185834669021 0.12882846633033943 0.5197539033705824 -0.628162154173357
Ni 4.585013041964796 8.383428953668208 12.824222950866101 -0.1132666073363404 -0.49434343371727774 -0.1501889342839865
Ni 3.956122495517092 6.474667092771349 8.788494150858387 -0.44330857862764944 -0.8471255269185798 1.0642564744407543
Ni 2.321010779612022 5.209133582500476 7.322470345494562 -0.4019747528758689 -0.38163192755345887 -0.38117144297727257
Ni 8.920911367405674 6.11200771124644 7.248712160873557 2.912515322087358 0.49087373000112233 -0.06879217907304926
Ni 6.658205805689179 2.331560365502888 1.388739521226882 0.3301327312329024 0.2674476934988555 -0.16489358748401278
Ni 2.543144860753942 4.759502636870882 4.739465833396157 -0.9107040230011736 2.243566987135575 -2.3239252737796687
Ni 1.7375788526132832 4.902639862821232 13.20973112381698 0.017100664236028615 1.2812298133391418 2.195915446695883
Ni 3.960336772584997 6.038521833759052 13.263209836701328 0.6155668340068495 -0.9145578495296249 0.6028560713084004
P 4.771636049967488 3.7487985880709522 13.745467622769173 0.8238228476368973 -0.8050828480252328 -0.8619597637179349
Ni 7.268886970344571 2.545238106066792 11.424068759181006 -1.5468569086894908 0.8310080525314268 0.9972918354947469
P 5.0734709095035315 0.23492325427458843 5.757338784285226 -0.9497907045899902 0.09846939442250784 -0.466137660707023
Ni 3.5583503131912386 1.2330604214794978 7.630546039950066 2.071731164005774 0.5988549205688074 -1.3671481105695165
P 9.135580157741591 1.8318767753129412 2.0089718122832063 0.10965806404947565 -0.4584773159482878 0.3947003307016428
P 5.85371420664715 6.070883776781605 7.259122814553394 -0.657738582278893 -0.40961761413310743 0.17117067874197617
P 0.08669833075632537 8.10801900067004 8.795732519053042 0.9809684157443752 0.38813784699277676 -0.22857878434779988
Ni 0.814734607853889 3.5197642071145494 5.752417805370549 -1.2327300659665414 0.4124766808484574 1.7111504006956595
Ni 6.314154078294867 4.7252234293361175 9.722590052281719 -0.9590911560553096 -0.12109587357277209 1.0320899170105386
Ni 3.191837878347101 8.922402573137395 2.021524800657123 -0.9701476709797874 -1.3260644531553292 -1.6586091362638338
Ni 2.2371512970344063 6.613664138833011 1.5286794538940653 -0.38792804497481576 0.1505144359442053 -1.4175507313917846
Ni 7.341983837641075 3.2102139787926487 5.7281389383857135 0.194778033748271 -0.8734335686854893 0.1071088152650607
Ni 1.5348952810155407 9.17504616782147 3.7589813929247002 -1.3496376124895788 -0.013615791011221711 -0.6419962318429717
Ni 7.656924635750934 9.129105916707601 2.1839402602099747 -0.530988338633821 0.863823299289235 0.4040524613405041
Ni 6.286330587499289 7.460437440765122 5.448707360985603 0.5032294233529978 -1.6677440086855666 0.9661051254792975
Ni 2.0963573943767595 7.16717006757592 12.299914089378483 -0.6074508897679345 -0.16337380840537669 -0.27696591740193593
Ni 0.4268775543218659 8.753748131094563 1.4293132841360388 2.270460211981993 -0.6350786787875321 0.5192425109518025
Ni 6.303965716152677 3.930623803719414 3.434421854737875 1.0884847508604996 -0.42313107523850996 -0.8067314393722493
Ni 4.8651189036957705 4.079346104553164 11.467895388257743 -0.8290740687335076 -0.4605475682137552 0.9958404477602011
Ni 1.9965299696781136 1.2293463003712999 5.637977490715784 -1.0030891589028144 0.6344621282494557 0.9293095539175028
Ni 7.322801930371554 7.575621505856267 7.836761268352188 -0.2079017156144226 0.5006120403348088 0.10866407556732254
Ni 9.074570392804684 0.9846866767477398 13.367985100542116 -0.6558128260110899 0.5851213730327988 -0.5966802815149918
Ni 8.691719529943438 8.215126473226652 12.502319796554167 0.6173059281851433 -0.3926323924290206 -0.19701077973353168
Ni 8.81109008566028 1.896637709947654 7.109233483146992 0.3812346921150402 -0.3482806057865227 -0.6334671113260381
Ni 5.320233040587342 0.8896477822559226 11.198563256384762 1.2037892145624751 -0.9886572997482006 -0.1563287286331372
Ni 8.334765631218152 8.216173095883077 4.402814561776035 -0.9266443483805138 0.17663915805571515 -0.953585909966364
Ni 4.66490832545436 5.59648584899909 3.68203702959741 -0.18556731378328042 1.2996268277890908 -1.643237796014086
Ni 8.114335785198199 0.37715464220902395 10.564490538465645 -0.30340945630544525 -1.3574442530181912 0.6318146633242796
Ni 3.8718647406011906 6.409054040575653 5.79831915546533 0.4225579763438594 -0.4256155322232605 0.7110141537735819
Ni 7.600860857526689 4.290319298075687 13.393592159464399 1.0079099773302254 -1.1116267361946017 -0.10237978522050754
Ni 5.064736704503455 8.3526693621462 3.85212525205807 -1.1464692977950837 -0.41842929888746644 -0.9488962178001787
Ni 2.6418052548799373 2.798317021678761 12.841493150911852 -0.05543298415732389 0.22463779742218087 -1.3774975721246405
P 8.432073751823458 4.432502522843633 10.45949854037565 0.05877773225984071 -0.2813002831112317 0.6001993504118437
Ni 3.4085536032588575 4.458084573967928 1.6623563224880233 -0.07550815764064416 -0.03784483876191547 0.329326176171207
P 6.708703033324827 8.031522925277008 11.567465325258613 -0.3139674343269496 0.9633021088128636 1.0326182787101827
Ni 6.58810987415092 0.5501011633579379 8.507218479910541 -0.8170413059386897 -0.330989679916559 1.6334429214108515
P 3.2757714581039323 0.8120235773093266 11.4908729235326 -0.68609296505187 -0.18409175767901845 0.02181143944813663
P 4.021263178195286 3.4834102785617396 3.551450939591496 -0.7820622187603434 -0.31218643116712685 -0.33166253761386755
P 4.8442327613042835 7.282317084077456 1.5742010559453647 -0.8211715260569794 0.3856739588333164 0.2523056956510945
Ni 1.0266627287735575 4.234839035137768 2.1881693567137233 0.4954634062543338 1.1280082628764185 -0.6519708265571804
