# total energy = -340872.15494019125 ev
CRYSTAL
PRIMVEC
9.25228589581555 0.00000000000000 0.00000000000000
0.00000000000000 9.25228589581555 0.00000000000000
0.00000000000000 0.00000000000000 13.54165564391805
PRIMCOORD
 96 1
Ni 1.866056484722213 0.6745406614024689 10.27114272577958 -1.2649259339727956 0.34554726601575975 0.006874872742962354
Ni 2.687909262646412 7.215496743611107 7.982846157195681 -0.3968142917208521 0.09505522653463629 0.12186077676325464
Ni 8.042910145214282 1.5406443459313948 7.135612509261218 0.2763223702806661 -1.2084010023028737 0.2472534779391677
Ni 5.535309425422935 3.990140711805983 2.9806673096731506 0.05405795818666819 -0.041717434343444285 -0.0561588065797549
Ni 4.265738544627402 5.4113010407818 13.1631250269873 -0.9786922181156887 0.24129366081130704 -0.8578125743187808
Ni 4.666834380080495 7.821826779475275 12.126051131515439 0.8026855514376499 -0.10133206068228355 -0.18579408508210582
Ni 4.998547325402733 7.181503846112671 8.696126138637874 1.528852244581954 -1.2646942775779637 0.42598859929196314
Ni 7.358361286418221 9.075381953801077 4.206485056832225 -1.27462387798685 0.7170804145723199 -0.03379432284162567
Ni 7.353309538450299 8.40941168460133 1.7653444301331498 2.187120731222388 1.0890449942393439 0.49100742736550923
Ni 4.204580936444316 2.634828899840608 8.842362214337866 1.253669130112054 0.46028557280162014 0.6832626946919266
Ni 3.6193183550178 8.192427081407727 10.143986713558434 -1.1186144803663445 1.1401053032502688 0.251366985886909
Ni 8.035128972977978 7.663455405909485 8.437683893878948 -0.1182380924090028 2.1007704886609173 0.18038319847917966
Ni 4.506862361096297 1.2336350033094357 5.489462499542627 0.695354335749138 -0.7470718187280876 0.37857848543911576
Ni 7.55770178086672 8.252326378741659 12.562607276971937 -1.5329755227217081 0.46482099877812855 0.053809332510971836
Ni 6.705205432851391 6.024126181176155 0.4580815880340987 1.3353309660589197 -1.8245260228060383 0.09757413630174809
Ni 8.918962812508605 1.691965477827668 0.5527037882046886 -0.6413758246501534 1.2740708336968574 -0.5681968293633182
Ni 7.419324596602541 5.580442074850633 8.536726836135752 -1.396987305418136 -1.2525954374319008 1.2190381703017457
Ni 1.8061109259600021 1.3458559760254185 1.2778377980287534 1.1181629946512226 0.2879437565696783 0.48545307320618336
Ni 3.6922726274116924 0.4811197793163806 8.213392760703169 0.3011569128258426 -1.0750458517467745 0.22824659781936177
Ni 7.088462861560613 2.3290963726391127 11.100745218168857 0.6397742844909885 -0.40482816316426407 1.1624636163408109
Ni 0.5918566854132157 7.354355046729375 6.693368983812265 -0.349248883237063 1.3354070707124934 -0.49262516547459034
Ni 4.287111324491687 8.190030739422943 5.2154597607682245 0.9207567792514852 -1.8214710380297985 -1.0001305904951225
Ni 7.241153331733906 2.3177623227110824 2.342367851183412 0.8247646427248764 -0.4063322585136164 0.16317120547626734
Ni 8.214327241554377 4.021950069889712 6.831317787250592 0.3005347058608115 0.007488852177877425 -0.36863577240410705
P 1.3914327351645832 3.520263384789643 0.33589035229571146 -1.7493793622698712 0.03774970794494789 0.43099248026445774
P 2.57121018367315 9.188565164225237 4.295493895295602 -0.5325680244161151 -0.07582208933663716 -0.9948045502965189
P 5.354020140288384 3.9811752470057695 0.7905754262656632 1.0008512707112311 0.3365897997121558 -0.5806314555822452
P 3.2682958895324608 7.636383218081389 0.49003065563122633 0.5733660322690834 -0.12868577010488808 0.8155672924963244
P 7.791284984526355 8.396976612680291 6.362790368711395 1.4689249720987025 1.4123920700089803 -0.9993188932271047
P 0.3240539032565856 5.715951050561598 5.248569990215121 1.234126432093436 -0.7627118392581896 0.580271244029349
P 3.0772269384600097 2.214608589937524 6.888436772745038 -0.7964819937300993 0.6736495970821946 0.7469098392289266
P 6.469309157777872 8.13386011320819 10.24273173221713 0.35765304814035825 -1.5783264400526817 1.11963752231422
Ni 6.051744253857927 6.0202309689151745 11.752396650088096 1.0406048964600854 0.2552429239025475 -1.7182109070868665
Ni 0.8860007248311537 7.751833238491154 9.948729252769722 2.6607762975730114 0.13426146442045264 -0.7472852202904743
Ni 1.2886953552455236 5.313596904259351 3.004365188922672 -0.41319119041697877 1.4632402630090995 0.6444637195468579
Ni 3.3073590395701293 3.892584611854023 1.4489838023991415 -0.7643174931824127 0.432492718959068 1.622852804599831
Ni 7.033541293909357 3.281628433162087 9.018688573446788 -0.7636569767802784 -0.8369838104988875 -1.1123733845526391
Ni 0.2084521453620703 2.4168450497962057 11.815676732600563 0.708157143940761 -0.11893331870381453 -0.31242451531986193
Ni 1.435381092028374 5.161433814368424 11.728739480895461 -0.08443657047852555 -1.8255405801134819 0.04668120610662283
Ni 5.771446259923496 8.47849850159121 6.997271408911095 0.2459152187437184 1.417839723387113 -0.12744007062324506
Ni 5.205909551514581 0.9531982250901726 12.038789124583827 1.4667860713788288 0.47251888164301853 -0.346441495695255
Ni 1.8127818239176428 7.845050016470668 2.5052737699489804 0.8854735305691589 0.7975101778842975 0.09341563404868428
Ni 5.592719857915529 7.94956383523559 0.6775300748977723 -2.1201640626961806 0.7365722047483444 -0.7649643827377922
Ni -0.012040924552113126 6.667909469373929 12.889678350580791 -0.689352352529432 -0.8737302739903016 0.2781756214393209
Ni 4.426552521606253 3.533725460418446 5.326312320435753 0.8505242681874836 0.22262925163258435 -0.6714371628119081
Ni 3.527720727028004 2.1594464628592247 3.062635158752666 -0.6499111158146742 -0.7332837638050597 -0.7405640995165569
Ni 8.546262241732347 4.3956406352311115 1.5799859897672948 1.218638877980798 1.0617470777553393 -0.9134353058894076
Ni 2.098945766957682 2.1735561984839156 4.835671013951262 -1.138452598138194 -0.5078854340677704 1.8100314287342893
Ni 4.943209404896979 3.7328161431542464 11.261145617978906 0.40911779167855344 -1.6571826882299523 0.35109904907192435
Ni 3.1670943890322203 3.120370346471769 12.822796353262627 0.3276757850519776 -1.1197143982987425 -1.685372520400607
Ni 0.2849056321908863 8.66003759843846 0.5969306388667109 0.8314343414355682 0.37162416560846967 -0.9109089399231279
Ni 2.439291094796533 7.14609534890894 12.122828560421617 -0.7834830103672701 1.2752275730091198 -0.12835126958360477
Ni 3.9502633606306277 9.38209522328206 1.6980960423030254 -2.4058887001273535 -2.7187415612338857 1.7627449849434995
Ni 4.4817979192554525 6.169340804539775 1.8366684497945374 -0.12034151190525083 0.1836896371445933 0.8845852144269346
Ni 7.074704712790832 6.445484522214869 2.966760199104316 0.06502088495607512 -0.9074150678372566 -0.13347753506657656
Ni 2.479603303397699 4.407862904582073 6.0961959350613775 -1.4797817123075483 0.8073212504374483 0.3630868175614198
P 0.7558969344001529 9.306874140902561 12.080253242749107 0.2718090557913448 0.1777053945367004 0.5065741714555146
P 7.868273253466061 4.920957657895417 11.99969451677493 1.3822875373141161 0.2103594331262958 -0.22050243509756862
P 9.236020137352474 6.8692762143809905 1.644078422960316 -1.5078141929647322 -1.886587053802841 1.2419973502010804
P 5.476714700366432 7.865238503771045 3.1601079881337255 -0.7053189031610175 0.36922172681456417 0.13781035811397557
P 8.922413915058119 2.1975658797600284 9.275627321786688 -0.7357445666407265 -1.6332092081334906 2.519861589502099
P 4.23397544797195 6.11139373947916 6.846525769182596 -0.29995826453205116 0.38058240324302195 -1.68222703279309
P 2.865756697517104 4.129609665777516 3.7773224128430662 0.3212917359025047 0.4581574707150239 0.3210048007897052
P -0.2174296381336358 2.6042315911777543 5.336847898111711 1.295473981962982 -0.5527794663669835 -0.593153756418972
Ni 4.551856226239162 5.80152544058964 4.2924341644293165 0.05017276419964908 0.679024745351179 0.7312626196099729
Ni 5.176394760273424 1.6492661795273744 1.0459949493009255 1.7589140412331836 2.8246195894156383 -1.121674864459223
Ni 3.1452867517421246 0.36570584282067264 12.85472784151701 -1.7605500341747098 -0.02198756001468471 -0.03988346645849906
Ni 6.844230277111458 2.5963578960848936 5.263126611236975 -0.945249622186527 0.2210174270607742 -0.9215090840364775
Ni 0.8541173484621803 2.6832368583903667 7.740789710332708 2.4188701999886857 1.3477123704424079 -2.6136855147327953
Ni 3.355396906693666 4.7600326534886985 8.354483640350118 -0.3590779535123429 0.7671855587588271 0.25777417496483346
Ni 3.9206652988185713 5.746141258655609 10.628371624482654 -1.5488299732554616 0.9583221390997689 0.3867476515134694
Ni 0.538326661524553 5.5193307280958255 8.09666407441581 0.6215153382808005 -0.39276069047676876 -0.48538956695809954
Ni 0.307567255446988 0.3780557937136807 5.217518394326581 -0.1369662649461254 0.42144751688849996 0.24344258883350978
Ni 8.296922395601337 4.5808621417692645 3.8147516092339666 1.194769270452052 -1.4991814569903987 1.0073083391904847
Ni 2.345583945677276 6.756500104525676 4.813137997465772 -0.45456615381933974 0.1498588046380774 0.44520168188530423
Ni 8.503868268858687 9.20186069871224 10.53894180702195 -1.1140217187893395 1.8254176813823724 -0.793132617641892
Ni 8.51629408849407 6.5035703715603175 10.589425053244243 -2.3068017267255048 -0.5618755151309808 0.5053485265785297
Ni 1.7837851606731965 5.957139633030081 0.784906550844517 0.8705860719343651 -0.9457052216667068 -0.7579344724742043
Ni 7.380030139423484 3.423937838829869 13.390557311143132 -1.4956353915103533 -0.9032892185943412 -0.0591716252641497
Ni 0.6433854399145863 0.3134109990670238 8.227855933639901 -0.18635587112284677 -0.7325108901947772 -0.17131363207774367
Ni 5.609845838663923 4.25291487670883 7.304572198531203 0.25279806190648074 0.36682340178571665 -0.3303268495215795
Ni -0.1043861372228759 7.512661654295576 4.143651859716922 0.0803927394264551 -0.46057353635568415 -0.8124588287743298
Ni 1.9346159214297265 3.369414119461802 9.816779631350443 1.5425109730159692 -0.7982845941564767 0.79399213742871
Ni 0.839495036212173 3.0613685208464227 2.9920291164581476 -0.24356420201303858 -1.5112882675562618 -0.6403322138769876
Ni 9.105655432465989 4.235862914245679 9.97558216142778 -1.3919659409441445 0.3287769885359563 1.0726989487811525
Ni 7.602880691722698 6.234837734695306 6.291249845565669 -0.26970306519193554 0.2691587626526913 -0.9315836946636602
Ni 6.173892929082298 0.7562152130267032 9.421566399117136 -0.44634813678492163 0.8323907918115664 -1.0271546844924504
Ni 2.4066397787181506 -0.21584102068658048 6.435414334507385 -0.7468103375365848 0.714681318212524 0.07343970514738965
P 5.50711771103052 4.917599078202458 9.583172371748104 1.03338421034193 -0.4023583614675329 -1.5162679801590404
P 1.9089500810212727 5.8772739032515044 9.725047845218642 0.2162125494729631 -0.8170469623656444 0.1815083132225584
P 6.568530669147829 4.90474765342692 4.819691391395588 -2.5693473549370527 0.06784395622716702 0.9588132198035746
P 5.953966099050233 1.8340158194970957 7.2323812397038925 -1.35499836258086 0.1477607844584681 0.66734602346167
P -0.2118403323691272 0.5533893825717637 2.411132688632479 0.1968976511944351 0.6922206752161627 1.8829360873138152
P 5.464649719871614 1.751309638022269 3.5097537135135206 2.0305305213977483 -0.6108640292145415 0.1531027654966718
P 3.6512109836724282 1.5149785055229408 10.76048408612947 0.8572947541420977 1.598661037844976 -0.4554850660891833
P 6.947754101311237 1.0360801999924543 13.384843099522275 0.16423049997871714 0.2631122993482953 -0.21124234995188132
