# total energy = -340863.39634009235 ev
CRYSTAL
PRIMVEC
9.31742265617467 0.00000000000000 0.00000000000000

0.00000000000000 9.31742265617467 0.00000000000000

0.00000000000000 0.00000000000000 13.63698987682950

PRIMCOORD
 96 1
Ni 6.3081373581220035 3.3326836704427194 2.909696909370607 -0.06509339006522338 1.1818420208674227 1.5982897705484862
Ni 7.490481017296466 3.6946469038906575 12.962367583764951 2.0871886362114247 -2.4394536805669924 -1.5530746074644286
Ni 0.11291132238190243 0.7246755876735017 4.85521854165867 1.9186731357041087 -0.4454029992628329 -0.4819892830272989
Ni 7.707362663326317 0.5540968732905702 3.1730687672417845 -3.3663443406303575 -0.22180264196623092 0.18543258797762904
Ni 8.22242046763461 5.7890730620925765 2.9534040070791363 -0.8397505746107473 0.969245470880492 -0.8113609677244608
Ni 0.8977122381402358 7.186388295662396 6.518317913812693 -1.8105217381071463 1.0956113346029517 1.458484493491669
Ni 4.880177121596813 8.890442398886755 5.651441685791278 0.0038738811331094575 0.5103511219994437 -1.4123285637608967
Ni 5.729981967917155 0.3012695425840616 7.799634962890815 2.4774512428566884 0.3302761987893022 -2.147005094148425
Ni 1.1905243562236618 2.953865219498197 12.480613974824148 1.5854784777164306 1.6793525394587723 -1.6187788916407733
Ni 3.520830385151693 4.975196197345939 1.8294843146214144 -0.4996697310261975 -0.9150455877993209 0.6795412799762813
Ni 2.4246822025172547 6.728231991216814 3.0610677570486136 -0.25316470121728013 -0.40360046140475003 0.6125388458138031
Ni 1.7466440419622742 2.4952430439222497 3.1551765206090083 -1.748471505743621 -0.17802755376280952 -1.45749487588489
Ni 8.910092843165527 8.690658223341279 13.055263218901876 0.31404868118684626 -0.07400714761508545 1.4113865115626016
Ni 6.401777455325251 7.726463379671259 3.4796958278250365 0.43303445039515104 1.2766280529010723 0.5581363598035226
Ni 5.941422239144349 7.1906649926391415 11.093350376763073 0.1894136841125641 0.5670694006270943 -0.7420640811008511
Ni 2.585668630325983 3.2173898831001333 9.30784522859032 2.4808371286097857 1.2728169066850983 -0.9573276363969837
Ni 2.68903611673124 1.0766188648495618 11.714883027916153 -0.5129895880635552 -1.7393338051084108 -2.1565408015530023
Ni 8.417191869817366 7.1278748816886255 11.371135355665464 -0.4767383190410048 0.4398954391810424 0.23319520007388872
Ni 1.1028194572212566 1.8096205013649365 9.81471860888037 -2.14773991543192 -1.2054097808850337 0.9051843787345248
Ni 4.804873712084708 3.8924185161529596 4.9412817107976705 0.06247137906134402 1.3446720409541875 0.2514495182983863
Ni 6.525540779817862 4.732784813372119 0.9631997429355621 -2.9847224403792274 0.35102037331518904 1.95075561806095
Ni 2.811373875564936 0.42672770624893847 2.233084314474542 1.472855160391044 -0.22414620249774303 0.04371183906565375
Ni 8.095852598937206 6.173845346083157 0.42711437928714097 3.8389208149841885 -1.060450984651735 -0.24000682367908344
Ni 6.27086766769285 2.7563451776462915 10.489723016634418 1.981039870866788 -0.7744221857165824 1.1814802666526298
P 4.8802050738646345 6.390158629333963 4.963318347006168 -0.8366703930235269 -0.24045830939420523 -0.6674444967127473
P 6.759501261486873 5.469681132537339 12.283490855175314 -1.0826552886629162 2.471190606658957 -0.46865914157729616
P 0.867639324932952 2.997675740597667 8.019899765069372 -0.841081377607029 0.23348702028269464 -1.9040165621331984
P 8.897150943164004 6.195219513544276 5.037190600405793 0.4732603877947334 0.011361190649090112 0.472347903282793
P 5.405689074070483 5.917830525102695 8.746123908380206 -0.2434551872390001 0.014650402923323156 0.39615840330440805
P 8.584598001802515 2.48885129201365 3.3573860212591624 0.34309854736495105 0.6823394115467089 -0.027411302133417307
P 8.074767271576912 7.989121522970716 1.5117015039504555 -0.4064492437074549 1.5089688753944657 0.9812635783872906
P 3.7764725092278635 8.271569871888056 0.5673723370214347 -0.413419761488017 0.702890496225183 -0.6409258815969285
Ni 1.7799631452059377 2.8209055988921925 5.726458118687078 -0.8319051104243996 1.739959611617868 0.8918871474049865
Ni 6.370088901037864 7.330510188551933 13.577027704002894 -0.05560730495165907 2.163111255681668 -0.16244975392921054
Ni 0.9262151656381917 5.736243275909253 12.877573447585062 -0.10965832115979181 -0.5501008910935559 1.2047420653940477
Ni 1.7750714983371112 5.284823468008739 5.885765546941973 0.6847063691169885 -1.1247514465020179 -0.2982070861688993
Ni 1.9721256690586524 0.9677540991060046 0.12653059900697583 -0.9798430438906801 -0.43016535637747205 1.1165611973817415
Ni 4.7893602034435725 4.86513880150865 10.769622118726403 0.48321724189712906 -0.15091295693420462 -0.18446919562309522
Ni 8.740599608516344 1.247137015985546 11.50123266404651 0.007583211663896618 0.9119782617279067 0.07322321826120938
Ni 6.1198042949608835 4.611704906590406 7.014062564540598 0.6585813898951626 1.0471596668594674 0.4747305445823566
Ni 4.575702385635844 0.8681983702893894 13.129843596419656 -0.8022677471739409 -0.874144735819901 -0.34216600824835264
Ni 3.5949691168378863 6.80156942455878 10.371571575778177 0.001754006576629237 1.9214134174534068 0.5445527075818171
Ni 0.2718889138764992 0.3977849964039187 2.156280799922664 1.7514478147631254 2.0991208688726366 -1.9382636562415265
Ni 4.559685736173915 2.6826164125548186 1.2215131720732422 1.346136798425172 0.10963081035596603 -1.1429638557449866
Ni 8.572988493233835 2.6692365936907527 5.628177013283139 -0.5489400380162353 1.1655705374009089 -1.0906964137998376
Ni 6.956825637464026 7.865199802293781 8.607108894821724 0.920760121685595 -3.4469237421463212 -1.0125811575536496
Ni 1.2658557180035883 7.90028921583283 1.1554051269322705 0.5456757654426667 -0.24737072024332235 -0.3779475367233362
Ni 1.5150315507903005 0.881820442141245 6.946259680227361 0.406019612369204 -1.1184841254360671 1.3254605010227432
Ni 2.815697159654718 1.1031455670125117 4.803411808477625 0.5762107008067302 -2.57493744743032 0.34538014431027614
Ni 7.3974558699853 2.2002627615981076 1.342243675507181 0.4837499744721475 -0.5637886729932935 -1.1485884010206155
Ni 0.26997232004618 5.174505184338445 10.723092773710128 0.8330793332381589 -0.6259224662095607 -0.3561841769043156
Ni 5.102490825006713 3.2702942086643167 8.603181601192752 -1.020905875369261 -0.3084850710561397 0.7815711380565378
Ni 8.964366829852981 9.057913752830157 9.176248746911762 1.9015511313118412 -0.43171984534878555 0.5726260687792655
Ni 4.821458724325682 6.99000497936858 1.920428881464374 -0.5321641041094771 -0.1866911429750785 -0.7498069582710636
Ni 4.158058234686751 1.9676533062071542 6.620704275617403 0.4419176118173937 0.37268346011091946 0.13866139326036117
Ni 2.2232302083250737 9.115914708560528 9.47931748380129 0.3596456530903548 -1.1445612821390934 -0.4113091429029174
P 6.520285753467352 2.467747329808142 7.051646252111617 -0.5457225595202021 -0.8547429342545216 -0.4993277743057465
P 2.655139333285925 4.173739456934817 4.1549862804531275 1.1667293335957003 1.1549408256012046 0.005133721682139545
P 2.7088822268847643 5.37635782770274 11.64963032217053 -1.058799307980925 0.31598986407361707 -1.0218443280231304
P 5.502208254859383 2.7729581421550864 12.719643134391525 -0.1972105544491636 0.14457698741384778 0.3371094196610517
P 9.148600227066893 2.1793171955769237 0.053970238710457044 -1.384642153589222 -2.2326056030280643 1.1731138969658055
P 5.017748866393425 0.3738504012103164 3.655831453050955 0.8277977731242454 0.34996185014368764 -1.0411468850064844
P 8.449756261829839 3.3836033849915506 10.521210314593489 1.1429381447133735 -2.370821167000259 2.003822673089259
P 2.4446308043194596 2.924114689113125 1.0058325418174707 -0.7701896356924736 -0.3748760968868641 0.3562911347958251
Ni 7.479001952644287 8.930088032080768 5.334367930980734 -1.2215884475274252 -0.4533824179238837 0.9413304896377788
Ni 4.069356371465366 2.6544218917451636 11.02686963471781 -0.3451677711891539 0.25336524726386045 0.6154153960306499
Ni 9.32580828763491 4.076484199759942 1.5507573442934264 -0.5381946265742731 -1.7161375694976058 -0.5075321644934099
Ni 3.4600528374843513 4.2409273913559735 13.231657868476276 0.10680362531981605 -1.8648581467661818 -0.891401980238452
Ni 3.7964024761848534 4.530401076919208 6.9921209660426955 -1.0518426741574338 0.4541635190642824 0.4517798493234542
Ni 6.77084988222255 0.15616279812493494 12.430157336178901 -0.8599946695717641 0.26851547264173753 -0.014445228891052542
Ni 2.386900053844701 7.517482908012388 12.624498273437199 0.5243880597084839 1.3377637438701284 -0.654043392815493
Ni 2.8222100380572126 7.368105988772341 5.497165665744318 2.3891634169528726 0.5439940068648695 -0.44847572465088564
Ni 6.3125351815926445 1.8830417915103685 4.917143995791229 -0.37884279484409594 -0.4278629334965406 0.09029045815614127
Ni 3.4110897816830508 6.953657713777549 8.131123702217096 0.003816031311980525 0.8710840946167062 -1.778887399031317
Ni 7.2762175670192635 4.714476077948797 5.125012898933051 -0.7822362824443625 0.31003596048302734 -2.4929097435036036
Ni 6.949613952365985 0.12014723277872258 10.037533589626543 -1.9219327802919868 2.11605852516824 1.6986041885995324
Ni 4.591653813139522 6.192237938309944 13.042485305538241 -1.0172567086524482 0.05475215604021539 -0.173699615811417
Ni 5.8652709441749815 9.270136687556363 1.2261634976965397 0.26103561932492464 0.2803782855175945 1.6603346035953728
Ni 4.3651659044015565 0.8835842302408046 9.296499403081425 -2.1733663577507727 2.8021877427746835 0.26435234240298344
Ni 8.4564834409523 1.3522282255731513 7.436413877390894 -0.8230540877916729 1.5396336514681743 1.235588361350943
Ni 9.260213632479601 7.951339374298163 3.525312065425799 -0.22010957053452415 -1.6541986659009642 0.8842355443969996
Ni 0.42840391057598964 4.397115346521948 4.035866759387989 -0.08255529429541265 -0.9839164426291055 0.2911185547532341
Ni 2.018871178279418 5.433781103231457 9.130128436747945 -0.579011403480319 0.09155569802181006 -0.14652614072041864
Ni 7.77885524699204 3.461403863762408 8.579357883328177 0.22385078274451126 -0.6325386859744977 -1.787337329570883
Ni 5.477013944129276 7.049384913644828 6.804639515307882 0.685710899122103 -0.34974947702256537 1.4049847218013156
Ni 7.234270530441251 5.076113201605479 10.065393614964595 -1.0770862792155709 2.6478652459382976 0.2623677078727869
Ni 8.839550636605747 4.6376446111290965 6.740259852060562 1.4656198189848695 0.6414128485356759 1.429112468087455
Ni 4.066542509837965 2.370529342323695 3.4190114543837677 1.168700084168826 -0.011290485312154748 -0.3165457365770871
P 1.9759458123276408 8.697450624421991 3.876846307749399 -1.1095364293244763 -0.3454994434969598 0.4194597970345099
P 8.83482670334385 8.762588725869545 6.96829724817812 0.4965340136106932 -1.4002958009660786 -0.11918477259298829
P 4.816809330444644 9.164542337147966 10.906482944178078 0.6439734101740006 -1.4897838178255827 2.748920398810111
P 1.0067754649853282 8.918301492482549 11.401205473645966 0.0872437009100175 0.26800819398801584 -0.8464308148444003
P 3.599842128861498 9.2510080189436 7.329664166579191 -1.5067302158719342 -0.6226142277719341 0.7616761989048237
P 9.003285704083625 6.847886332339611 9.256584496374062 0.06459845270667584 -0.9942882727817327 0.09507373847739756
P 1.1246967655031697 5.824022714292515 1.5099423745621996 0.7787917755391878 0.0591212316421885 0.07434370501889777
P 6.033562231307823 5.635447398143606 3.138948365653894 -0.04607699686372064 -2.1996787703930565 -0.35141195232665284
