# total energy = -340860.75270789047 ev
CRYSTAL
PRIMVEC
9.45977890713772 0.00000000000000 0.00000000000000
0.00000000000000 9.45977890713772 0.00000000000000
0.00000000000000 0.00000000000000 13.84534263970415
PRIMCOORD
 96 1
Ni 2.644017602184861 0.031126455784519794 7.736057543939609 0.41860259124053706 -0.35685883437383703 -0.452975155183136
Ni 8.38861956499856 0.17140078401231937 13.093816993083639 0.6819326630265934 -0.7323075159347195 1.499121807397057
Ni 8.779582758263336 8.491286543064872 6.68430988998304 0.06225617772674439 -0.32267421807232816 0.3078546365609924
Ni 6.027827736637102 2.2418067320638384 5.221396739402402 -1.2532405272150675 -0.5715444056793124 0.06294806158744642
Ni 7.0163367700856725 6.113646848865756 7.0259989880343445 -0.09448675562567599 0.27505893018721017 0.776342799778063
Ni 6.899215250188962 8.637014433704469 8.913479303701832 -2.7961019415919197 0.7512748010658415 -0.6716150831506691
Ni 3.5431695661766573 8.425323506295648 5.184706987773342 -0.15846377269826903 1.0824395731076841 0.16989155491923644
Ni 3.5673582202737326 3.193015858158179 6.182527281381378 -1.9656973269724467 -1.3296377723288841 -0.24527887071130014
Ni 1.9664609538848883 1.7143294725984775 1.776759282028923 -0.3878467981149191 0.22931849072730182 -0.40807263824349077
Ni 8.421132824338274 4.927674395150327 0.3479609313193376 0.13224494821105612 -1.1162112702414906 1.4825333069107565
Ni 1.8561693941986142 6.805109371832409 6.367583255925229 -0.6395619113698663 0.3410007842956579 -1.3418286579681213
Ni 2.2917732830770388 8.940030064536506 0.29033858141651564 0.6116875535571014 0.14089259658372508 -0.07436838760924612
Ni 3.56621358705287 2.0790417800128878 0.1744288591693291 1.4266390668462976 0.8854671028112556 -0.9584391242936073
Ni 9.462332825061273 1.3580742073282928 11.346396268667805 0.2822135389541204 0.951466035409884 -0.8947289877291558
Ni 5.173042134677095 6.6861148157561034 5.4144840660496625 0.4436423078179843 0.4813619338559451 -0.6568307257526429
Ni 0.6375578660869636 7.42326806977042 1.5831043686605732 2.035244639043966 0.4649912058074056 0.3422832505525073
Ni 4.715188846331982 0.2799593122435351 12.433477141990032 0.7783140645718208 -0.9076788630216046 1.3153223841474766
Ni 6.848085146397529 1.103416965133036 11.79603752313663 -0.3800260165189197 0.6078586667293144 -1.145036422003299
Ni 0.6457698999632527 6.231922461762014 8.581329446476296 -1.2991465457185625 -2.7115630412075755 -1.9522278317311024
Ni 6.873607629289164 6.378359835802972 3.3987546928185135 -0.13104450014505173 -0.09884888924911363 1.0479088863206663
Ni 3.1138185910088967 6.30713716208499 8.044919317998865 1.753380255899148 -1.7176768889602676 0.7502252767554047
Ni 3.105825078020227 7.602984945224561 2.9395874412140803 0.3627060371832334 1.0870963551534052 -0.39637977528659474
Ni 0.49053209381181057 6.392388687592555 11.169868284608315 -0.48646634496204605 -0.5182348956228946 0.9026107044700779
Ni 0.9276098162093294 4.091600235428887 5.083164777392653 1.2728495596952467 -1.426567333068098 0.9700646243476777
P 3.9389383270133194 1.793536199526445 10.139913122807958 1.071871824894167 5.379074857732207 0.9166679538940922
P 9.448881019771463 0.1559501274864088 1.4118785905539228 -0.0005502160765151814 0.5838949568248654 -0.24032358358855388
P 9.268312764235688 4.5235904888497105 6.812351778393503 -0.1915466712951669 -0.19642328266117784 3.1376254311602674
P 4.594623966993997 0.6720756525299901 6.4487869421335615 -0.02135018354100194 -0.2856169082087146 -0.060264601218012345
P 2.2920381568802135 5.619789642846232 10.272593140707588 0.13725191450734425 0.26579344572488417 -0.30609265956456316
P 1.282225701833435 6.291613665263206 13.506629437176734 -1.3088398617469266 0.5595196133042944 -0.7168443873021138
P 4.868039950321244 8.240479430794336 0.4190360324898369 -0.3489388081958119 -0.28098198053986445 -0.12464656703850792
P 1.5742396100550318 0.0008646237717922164 10.21931661313257 -0.1773510965210752 2.2652349590273113 0.9423800139482157
Ni 9.170120261487295 3.9982322198097484 12.170595568206195 0.48379805410126353 -0.14661792910327653 -1.8943031915001762
Ni 3.127081200725009 6.456790860878785 0.7735762398844642 -0.05323494806474057 0.23364771423027506 -1.3226911658077218
Ni 8.76829724229235 4.8177896059475 3.523639853081854 -0.05152182202837578 -0.001531863263494136 -1.2313311287364859
Ni 2.8694819673587744 7.672239984976102 11.561718805113728 0.7871607163291734 -0.6875116997762675 0.35817755318526057
Ni 1.556606582586534 0.3112806394689621 5.696666426284129 -1.2756307219848098 0.3921199715689763 -0.6722522025140358
Ni 5.454962459041992 4.092044845027073 6.800403131936712 1.3019878718220996 1.9157464489756164 0.38549449583265866
Ni 8.172378484042342 3.07578082091725 1.9445095374467718 -0.674069972449065 0.016610354863171393 0.014240311969098056
Ni 7.228888537354813 1.170553014459178 3.4267499618583592 0.4833565956884708 0.6037125057714249 -0.7846171239717132
Ni 1.3924510430689154 3.848862314376498 0.715509280383456 -0.717888512295912 1.3124262935466042 -1.1196061548556524
Ni 1.7429642226774167 5.959736249663793 3.9953782045805397 0.6271563386166619 -0.9900104713419855 -0.8333585550414745
Ni 3.8329320470712673 4.343883073174254 9.459303803926394 -0.22594880292412056 -1.0671479370559365 -0.17570276228437484
Ni 5.118222717198583 2.159071507686434 8.038203821110512 -0.7434571047936358 -0.8225781765965188 0.43180083509836603
Ni 6.1871777085828334 1.8353295017559637 0.23827290551315478 0.2134038763795744 -0.47316911363250763 -0.5697232933101737
Ni 7.600657839668096 3.9162726972845 5.537666466149736 0.39491270382276505 0.5897807261816811 -1.1860630009273057
Ni 4.0019782921689355 9.412337894712019 9.572490055890222 0.64344016337835 -3.1531831763892084 0.6349349541208161
Ni 1.4587451720921087 0.03920226884774753 3.210665913228309 -0.5501757101955492 -1.600243294730431 0.26392168262346805
Ni 1.8566613026902246 7.694025855287233 9.352182216077402 2.2588115719994715 1.6683014238509333 0.3997399500080793
Ni 5.9098075377653325 8.841487549976774 4.093042851678321 -1.6924142577387369 0.020312486305106955 -0.33756167670712184
Ni 0.17215094446202533 2.062789880232373 3.451200651825004 -0.1464996583578574 -0.3201733060273454 0.7036273743912076
Ni 1.9094468677515 2.3642068084666774 9.527381101231676 -0.21654010801571097 -0.695172301645319 0.2242775858692847
Ni 0.8502827473060349 8.617858381867716 12.033319043843614 -1.0143971277164658 0.26746337722813934 1.0980816505203155
Ni 7.133836681129777 1.430810445635846 9.06068291981626 1.1376010487711763 -0.7318596297640235 1.7059004651506298
Ni 7.973770430554623 8.337707036116878 11.02010296042604 0.43717932580145996 -0.44224902701488356 0.6271758790006876
Ni 8.463616690411785 7.0119474327759175 13.64512438103392 1.7511138284624745 2.8504704890404713 -3.453754649025226
P 3.665787217489247 0.4950917071378921 3.2104303647390573 0.3907161492429142 -0.24647494790193036 -0.121295648288404
P 8.343004512180375 7.310214254708178 8.98456102671741 1.6989106640963578 -1.3211621307577053 0.18027186971229597
P 6.8971813977717265 3.679683632377242 13.378255510534435 0.30000145906516074 0.38060605739210585 -1.5735627001154515
P 1.0655400112790314 7.81862060034495 4.570458016365765 -0.7567931597809096 0.9680254824304619 0.3915571570869708
P 8.47651036875919 1.413489590863947 5.25497233188842 -0.8360564135886117 -0.25222753411499144 0.6320203515771825
P 6.827614185323586 3.4859189855761485 3.447780941830443 -1.4670771202566864 0.4692720925709466 0.5683369544856083
P 5.513083339281503 5.387107466535803 8.56684747128771 0.917517189268265 0.03142427994755233 0.2464250685006014
P 5.776008428047289 8.511577768343804 11.023495237062415 0.39284450843982666 -0.2363358025853994 -0.3450523286572122
Ni 8.889647283261175 2.4270954171633368 13.841659797011797 0.0352451963555393 -1.460972550020845 -1.1921608862949276
Ni 2.729600219946395 1.0823311184445805 11.892221714870237 -1.4465589456986765 -0.45872182785892607 -1.4554763027929645
Ni 1.8774917353541904 4.129638005520533 7.9182339618518025 -0.6070217726503159 -0.08561490705734287 -1.35097175791997
Ni 4.713883396873476 6.972017706947309 9.901731977148046 -0.10109114831607105 -0.5520060785360686 -0.041851388818147275
Ni 0.4263124942541977 0.5877805106474598 8.490836257599476 -1.1210099771817146 0.2597953191599203 -0.2142160878682246
Ni 4.534582751681468 8.054519101408216 7.5697612565056165 1.3439210217207755 0.23442830115004143 -0.5970122109331137
Ni 6.243387713528013 6.449166279258822 0.3830746838195075 0.7515581366342153 0.9167648844832726 -0.15316524330349107
Ni 7.497328677093846 5.739749096348389 11.830997081244236 -0.8826080360959059 -0.313314374123983 -0.0015254355055909212
Ni 4.824969577969276 6.259932866447756 12.410036756386924 -0.3727369390566742 0.127903897633541 -0.2450742108996618
Ni 8.090579777754735 5.091158290381323 9.028519672287883 -0.7234806616717089 -0.7206524481942944 0.8679974852715826
Ni 8.300369289647909 8.381780145009438 3.6504075093034722 1.2173913787269421 -0.2718257679618931 -0.1891509173694807
Ni 2.628399507576229 2.2152625930742436 4.078823858337174 0.1948050303314645 0.4402615642712095 0.27134728566357785
Ni 4.944597939217463 2.2780660637627395 2.195220159974723 -0.14153125860898852 -0.9223107540021663 1.7973895716005628
Ni 5.865583072413816 4.366737898476771 1.3135716244834428 0.5917481343206971 -1.3895195362861812 0.502272201646051
Ni 4.795757781390563 3.7956983581678303 11.54270937984659 -0.39627461716729817 -0.549117444134364 2.4347385344795103
Ni 8.966659341534266 6.137154398897524 5.5660902631640035 -0.06004785722151594 1.9289110113820327 -1.340148699162537
Ni 7.111473764318871 9.224097758662857 1.1949876228020586 -0.2816229565579731 -0.9283209647519884 1.04564065911178
Ni 4.8895987859439405 6.203363389912553 2.203583550309969 -0.7607739988055284 0.5268930855185249 1.5759607680339827
Ni 7.602748450757439 3.1490657263885224 7.680662025939194 0.38925807664014894 0.009917259113711952 0.10205762599439842
Ni 3.442564819863635 4.151509013839829 1.7967515783014139 0.2291346568512699 0.1947250690231485 0.25314413239198985
Ni 2.3383248539850197 3.6296697824706183 11.753906506808063 -0.6241797724868412 0.15620223035760195 -0.11597320763422607
Ni 6.799092952588865 0.5802098497660013 6.873478976299051 0.2944849001223057 -0.24099695550649464 -0.9566357525362814
Ni 6.179770701872622 3.3468980780240867 10.003287431218892 1.619333992813295 0.5168269595317744 -1.7977857785977167
Ni 4.879202489169328 4.536616604098703 4.307728745018754 0.6370563713391931 -0.7662939001824931 -1.4758576946627935
P 1.3174539176556914 3.8705535869007823 2.935890559704054 0.7653665032722173 -0.07164738913365724 -0.7847374515996614
P 8.605759324929835 2.970455645040504 9.841103309579188 -0.5003328185314931 -0.07841119022005205 0.6759882725177003
P 3.687289294439835 4.461619478685479 13.268808709084714 -0.15832441890692736 0.45411543943516625 1.627449679941894
P 1.753663232369944 1.9290380694077547 7.185746270684839 0.31522881753787646 1.2351343045326597 0.20194189848656188
P 3.650566433585378 5.359882223480902 5.870688514970012 -2.184315400563109 -0.39961525150475696 1.048204563184214
P 7.01420831988159 7.778255724696838 5.538981375386926 1.388915584153595 0.1602548031604208 0.18810859214789538
P 8.103189662741595 6.9691513940058085 1.768341024977305 -2.2696153474831946 -0.3883481632313699 2.1340372211338474
P 1.5071792389583685 2.0104583845479693 13.32683404555951 -0.7703066208863121 0.12436683101456002 -0.037471771693212884
