# total energy = -381168.6220552025 ev
CRYSTAL
PRIMVEC
9.22271163492879 0.00000000000000 0.00000000000000

0.00000000000000 9.22271163492879 0.00000000000000

0.00000000000000 0.00000000000000 13.49837072369418

PRIMCOORD
 96 1
Ni 6.313434845237366 0.20961839898441387 9.11790647961963 -0.6512964261979751 -0.8799328032565878 -0.8939705122965765
Ni 2.4387892777194056 6.7575452961996145 9.643330811318659 2.148428456858513 -0.6863158796959534 0.9269554518630294
Ni 2.2376880528319236 9.321117860904923 1.4176930817135553 2.90301355324451 -0.3475308721046918 1.4869468625974198
Ni 7.671220881943853 1.5102097901444789 0.832453932122748 1.3219566016345428 0.10654600078305522 2.295494015022169
Ni 4.269119385031714 8.973421636265709 6.542336089486386 -1.118833538355686 -0.7483391154762854 1.3926495972747304
Ni 3.2194088042363243 5.024450236536412 7.461049120267706 0.7773586426370871 0.11761254300986197 -0.9616812853799889
Ni 6.833208421582642 0.396909535628534 12.693313793413479 -1.2525563566638493 -1.366875316524104 -0.16906160281877333
Ni 0.968919627802299 4.795311968601099 10.555860936291008 1.5939461488678097 -1.022520785264865 -0.5167994487279487
Ni 6.28619095538102 2.45564839439422 5.802922715809403 0.8414071363775638 0.1481222815629449 -1.6664240043225622
Ni 1.5573194006340576 2.127587322600015 10.523545477364927 -0.1824141128662794 -0.3144605719132842 1.6409500284211738
Ni 5.395839607093349 0.19152436123588135 4.761780034024355 0.29365057714646847 -0.25891317366528316 -1.4614584885183282
Ni 0.9309589471493811 0.5533774480719453 3.990293758734497 0.6643722855453268 0.23729816649866875 -1.8074207305843195
Ni 3.480033409331273 6.874314046866912 12.43094609583957 0.7889342632898284 -0.47097030620897595 -1.1620386129882503
Ni 1.2050856019226275 5.488269622035902 6.217916144203788 0.5208720761354256 -0.9870076799599194 -0.7402920768020929
Ni 5.659922729011632 6.422023050778537 10.484980709106864 0.9110806896143019 -0.6514617481312458 1.8618003337764646
Ni 1.6035251853938046 7.741903743101279 7.55532183297373 0.16366460017291815 -0.9375733365881918 -0.7385979769291215
Ni 6.112490406445875 3.783755745400733 11.258613109369493 -0.33557395685313174 1.7177995305810612 -2.5563563419940234
Ni 0.3121777179991477 7.010791732071451 9.587676358597562 -3.331049521983805 -0.21591892949194424 1.0975800282935486
Ni 8.334518295101741 3.197320410124629 10.32031380611427 1.0844108379014419 0.6606714396549719 1.1902778103396017
Ni 1.884541205679133 2.808260324278334 3.3386058948491786 0.05122126006882147 0.24109260054409445 -1.3585613973417698
Ni 4.521794012788758 6.418675206493549 8.721405510111829 -1.0503349792636556 -1.70983605275961 0.503357721400746
Ni 5.95485582099406 2.6340986397667443 13.139961412317327 0.20632305827339303 -0.7384704502123218 0.8869388022607757
Ni 6.983520174080518 3.7976728170978302 1.6383916463287798 -2.523883051956666 -0.6720166894644619 -0.048866643793715844
Ni 6.028268604764037 1.5736712681747824 3.0578665559097162 0.00474651354604989 0.9482256740957153 -1.2555822879743666
P 7.631849126427014 7.648514566159721 5.332342160488084 -1.4743415151285832 -0.04795570194367225 -0.2508303966571487
Ni 3.766841292456746 2.440993505774811 11.622934193810691 0.47231422183138017 0.9402560256266775 0.5210296847592124
P 4.204173050445259 3.300882237882553 6.045893206495749 0.20010278839529408 0.3450996369553799 0.6636282082904505
Ni 2.484912058075393 3.545791342532271 8.965901437285051 -0.9519540307898959 -0.32828050851551205 -0.16784264281000771
P 3.8632370733567214 1.4698050909364047 2.789505940384333 -0.45119646601615837 0.08851279743042821 -1.311388339200393
P 2.555631810078934 4.638701104128989 12.705948908208061 -0.9706958301737734 0.17444420728692536 0.2701265258825993
P 1.438945898160733 7.869592184218784 11.553768468699767 -0.00493600384903666 0.37405642919904614 -0.6916989983847378
Ni 8.152803209847988 5.577121224905244 11.143889956119306 -2.8443124398588755 0.7655644782156363 -0.3055781818219898
Ni 2.1116320316550325 5.520106422233636 3.6900898871133094 -0.4694744383897398 0.23133269294385325 1.116864073334141
Ni 8.868089047894237 2.5482813089904077 12.473830782177762 -0.7787030724801234 2.1860994890467254 0.3913766656450486
Ni 5.641089952069636 5.908622368099725 1.6417929823406348 0.9234646651009515 -0.0985249302507916 0.6501651408070093
Ni 7.70352804042956 0.807739832038777 4.510804229730931 0.28413209613307194 -2.09428179561278 4.225404928423626
Ni 3.7783881272909183 1.6169995669375155 9.43447051922192 -0.402706488835571 -0.38777146479229346 2.0603095524323933
Ni 3.123677058566429 8.280925118407351 3.512680885872397 -0.7001754112868652 0.0024471759889119144 1.1301751886207505
Ni 4.112794424617 1.5081439027620072 0.3384541454161129 1.1900700652041698 -1.943285792046466 0.9503396351149246
Ni 6.466079943752051 6.6084324962004946 12.862246200488189 -0.35194442779135515 -0.9661879150010908 -1.6685665045868618
Ni 6.653679118961237 0.23080573417973668 6.735403410361052 0.6107917812157094 -1.5513146873505284 -0.16375947387956957
Ni 3.5467136136851596 6.742217149638597 1.5780400666260184 -0.23215518884514857 0.7081319471297804 -0.04961149237954036
Ni 6.0392159633488305 4.3860080309488865 7.1254254250198095 -0.6251675903214072 0.5987093961298786 0.0032570734847169715
Ni 4.9570598833948 3.680830284738302 9.063251768828268 -0.7519582002861115 1.1705543637687454 1.0097894537411254
Ni 8.809949074416105 7.6150176778867875 12.89338668596549 -1.3366100898816593 0.24672563046015572 -2.0841668186659654
Ni 5.306665209320496 6.881849002186017 6.887422286762925 2.1513050070753597 0.5212245743788378 -2.19275041870434
Ni 8.634708332655634 8.701259419048117 8.307869270139008 -0.5715924853084284 1.0567223708472382 -0.36087078374670756
Ni 8.344847732014099 2.276192873465046 3.286825903241369 1.4755651031230392 3.3695667042223967 -3.458128609723206
Ni 4.027807137878264 8.599320788519277 9.0750088814853 -0.8110390656086677 -0.04150043323663175 -0.7648147445338054
Ni 3.379782535012221 6.24633961886468 5.370218914466088 0.7053325300077723 1.4047288970367677 1.3542260031912094
Ni 4.958747639604587 1.8497254696575671 7.62441931001934 -0.3353924369699449 -0.4254214139345835 -1.0600794602449293
Ni 0.0784382392820706 8.575120393467467 1.4912866306294992 -2.21753225363471 0.028583210954331417 1.0304490389730059
Ni 9.021896208061564 3.795173462273501 1.1575342235508153 3.425299736118643 -2.182152331473519 0.07870455309075478
Ni 4.570065684930977 3.6716167959209396 2.187275789343849 -2.2470919695696976 -0.4700868751627581 -1.852911773037583
Ni 0.493509138453298 0.4094459674097564 6.2112481237684 -1.0424131533134176 0.6055323325889829 1.2327115540237803
Ni 8.49621087362627 6.435442096053074 3.2874742598618503 -0.48428090727495304 -0.7704948256377183 -0.6069852629854257
P 0.21834769544650984 4.501384152175321 4.090829614839793 -0.3978566169424374 0.42617937514653054 -0.3045476836749465
Ni 0.34760399752392634 5.252168206896275 12.71569454748064 2.0122980575501215 -0.9220209906758896 2.3838643733374623
P 2.3488401721781256 8.551657815337967 5.672379845473706 0.31581939993402386 0.17793885070374518 -0.5560679073102682
Ni 1.8840892928142174 5.04660318962881 1.6058880440875067 -0.7003430472129809 -0.41531363607662025 -2.763604997405479
P 5.0076280107077125 8.165991687334303 13.319786763978808 -0.40946051972995284 0.9587988216258712 0.8497099998163044
P 0.5971198465823254 1.436243643682768 1.6471384659427803 -1.000915291179947 2.3142054753887433 1.8792707226470862
P 7.153854433307617 4.48583466053761 12.957558312783519 0.906782062238948 0.27687078658496833 0.5045892798150019
Ni 8.848444672337699 3.7787109221944295 7.387225925834692 -0.1240701257097476 1.0931531028704464 -0.3345362596172367
Ni 0.3866501913237949 2.747159860399427 5.199599673452745 -2.494462175592388 -0.9709729950945599 0.19798908448640096
Ni 3.500480160790826 4.817843052866181 10.727141445720973 0.5829850434160863 -0.018531226034968085 0.18464685885154006
Ni 1.2383058088496952 1.1593225073162672 13.197410604701945 -0.7426472072978307 -0.04873603175312252 -1.937108459591161
Ni 3.0064195041881003 0.22358804013722605 12.125761959992781 -0.18949287408993173 -1.0866286714883673 -0.6297685794285283
Ni 6.558104159387333 1.573090237348462 10.864028619317395 -0.8919249426214575 0.7014293382986243 0.0158567645265985
Ni 4.992355200415869 8.81664476298608 2.028507732645132 -0.7739892119442219 -0.0020777084646351313 -0.8447369720817453
Ni 6.985134148598074 2.5617556905341186 8.758255776296668 -0.5454505368057381 0.09498992051433963 -1.1837788328788195
Ni 7.057347979869295 8.097955744385668 0.8949728490347987 -0.3626589859953819 0.2780882039318372 0.9805889209177692
Ni 2.44824255703652 0.8503911837752893 7.639281709648148 -0.15593046475345404 0.5030754142736368 -0.11837976019318967
Ni 7.47228699426566 5.214041517435836 8.919615414935004 -0.5789337561648481 -0.6862875975611794 0.20803155632406753
Ni 3.388802346887477 1.5273640335882175 4.863665172826326 -0.594617485448692 -0.41742014089666174 0.9051239578102347
Ni 7.62081876343846 4.972277357417472 5.421944492075877 0.07570793235627607 -0.4137874292400809 -1.5888489368505605
Ni 5.309810153951848 7.106873940779444 3.9667260416935672 1.1691346006030834 0.9780684684887608 0.38621337627655417
Ni 2.065241792664707 2.976989831699407 6.420850844143215 1.8711581208422805 0.5048247928645757 1.8697576409503283
Ni 8.068332394954869 5.787749510802071 1.024788047430866 -0.25265305168818425 2.0187481840508394 -0.05224841578175518
Ni 4.675813295321249 4.69552222985849 13.012402089161224 -0.0635548419335099 0.11274261651207035 0.664638908943152
Ni 8.457125022166826 6.295385998775325 7.030518189760596 -0.7606289885872319 2.1738106443770433 1.1185088080264156
Ni 0.4540442335500178 7.547830224398812 4.850261806161387 1.9125605950484676 0.02677829653510872 0.6714854995513403
Ni 8.65954509480294 0.7063351965074605 11.283841836756778 2.2022575868638263 -0.42176916189397684 -1.0227645258445546
Ni 7.41187823375142 8.111835925236653 10.87097977699672 -0.025685834801878343 -0.8180203820225074 0.23816359982275756
Ni 1.5585275758443422 8.96550854977392 9.620032397454374 0.49670961995660917 1.8822891977584355 1.0106412602184593
Ni 7.045192446074217 8.523399427213441 3.0903710804221425 0.7937689656743103 -1.2372675488255789 0.31998304439341024
Ni 1.6101009787139045 7.302008071307733 0.1497685347888244 1.1169967422572633 -0.7309862260201346 0.8304724917429311
Ni 0.22997200105752486 1.895626904936861 8.713481356366204 0.6991207447701057 -1.417689313852178 -0.4047682564606061
P 0.9347494815877555 5.327545428221907 8.455905779702707 0.6938371277736631 -0.5256445578234044 -1.2027808279026189
Ni 6.082359807880986 3.8529353045789496 3.7304908972367725 1.5880737492474328 0.6290345294759812 2.645101824260548
P 1.353580480249312 7.177363124994763 2.392626839703844 0.7309492021346121 -0.34048656366340074 0.6879269329368153
Ni 2.526469596224579 2.917318888107478 0.6850288883334149 -1.2757867879466995 1.3587223483996664 -0.18889586393588115
P 8.065307345573393 1.7919912954867057 7.069555160848937 0.7132684970253974 -0.6155588635870495 -1.280754159254304
P 7.044343956613559 7.318857965271018 8.944870888185719 -0.2550117817283479 -0.1805796307607019 -1.0316813687182103
P 4.470340505169072 5.278563607291963 3.7691229912889934 -0.8878590000822001 -1.1664076885902237 -1.1731437217624763
Ni 5.033719061622947 8.749189850863766 11.15413546635675 0.39035568057970194 0.24618029947964698 0.4214380038068032
