# total energy = -340867.51548454986 ev
CRYSTAL
PRIMVEC
9.33764714568798 0.00000000000000 0.00000000000000
0.00000000000000 9.33764714568798 0.00000000000000
0.00000000000000 0.00000000000000 13.66659046155249
PRIMCOORD
 96 1
Ni 1.4333101746662507 2.0496695930910502 3.256953612648089 -0.4048613303950446 0.7585299399663581 0.1404187422711001
Ni 0.9710872990838062 6.777917995576433 8.021332173564437 -0.015453872661224999 0.4116307879083943 -0.1596395381739251
Ni 7.934861825146351 7.357001526255023 6.310807795433276 -0.011876953943244062 -0.26030799713028074 1.4815485743999839
Ni 4.210970758828878 1.844745586959208 11.979286307962855 0.18687729084395557 0.02567606460986546 0.40640270674023554
Ni 2.898032194617634 7.039035962744521 10.224003785359274 -0.1881363600620373 1.0992376185016293 0.1551992430143843
Ni 1.1651142708970545 7.280320767193933 4.161134801792231 0.7257080083403308 -0.2509640940215355 0.4685203020065866
Ni 3.1088762690939395 5.748264973059705 4.097845162625139 -1.8419902410290727 1.6822925959237027 0.39549814401258987
Ni 6.980339512250364 1.8861767277232189 11.181020183830665 -0.40526087982630854 0.4881532457461657 0.5577476090055362
Ni 6.057471823467517 5.915240780844705 7.672041604888049 -1.1206484800772378 1.4187833182473049 0.018161758510691305
Ni 6.370451083356658 7.683398985215133 4.688460687634031 -0.4694091323694432 0.677809127776523 -1.0748463341414587
Ni 1.3852586420154507 4.9611946879575 6.040837738690187 -0.6771074737238081 1.2099732318860001 -1.4643327247423297
Ni 7.04564701698408 6.186807575264297 10.04152748317079 -0.08332379703032101 1.103417975131564 0.32893459715974316
Ni 3.9205699299443295 2.262175768774476 3.880819565681901 -0.9152139950563851 0.4329012672513964 0.5182531504553397
Ni 7.80653453925052 3.6685748441209434 12.875787282259488 1.2548880901208195 0.6356769744931633 -3.7464372058314703
Ni 5.7676686040057525 7.841037145769118 0.9032698347743947 -0.24086300103179165 -1.4287933941851392 -0.557829112975749
Ni 4.809560634573057 6.8331408413006525 2.877801248126918 0.2747424273880559 0.29362229501169435 -0.422633309666485
Ni 4.854493393048698 4.3833904149495595 3.1310429098556445 0.2566840272244482 -1.3953063181712873 0.15991387488123426
Ni 8.877469300175562 7.206852158780312 2.4661632088890477 0.5004670301165123 0.24249565153920818 -0.6833691383628038
Ni 8.884220419123587 0.7744794015759052 12.456290679111994 0.15208563708606712 0.8292602166023847 0.05417442915987444
Ni 8.314035666256153 8.288002305776084 8.37961489652429 1.7308936447608576 -0.5018379423221099 -0.8934979435355321
Ni 9.232636050254428 5.665757522126461 11.87699144878237 -0.9918799204505562 0.01341215964084787 1.2817854287322956
Ni 0.15545408486665108 3.560444889185796 8.232686083579555 -1.670406128898762 -0.9458088371241065 -1.5606783879536155
Ni 6.399276400358799 5.5936615478558 13.316015329789277 0.995288689021789 0.5980676487808216 2.4926765444468746
Ni 1.0172059387577863 2.7362294433986163 5.650164585015391 0.9853788861072448 0.15752634848566419 -1.374613051487994
P 4.664668362489406 7.182667652451984 6.023467847311054 -0.973598605642865 0.7369277883155502 0.6485862263556637
P 8.725359026782339 2.014522688913512 6.508631454610654 -2.428378139479121 0.4510954216619199 0.8128738048245613
P 9.034621903073536 1.7688118396765988 0.9193305880117395 0.9151905980176174 -0.34519811020645713 0.3991154290502029
P 6.132546507204872 1.632510203045481 13.372458606006589 0.10688512929002882 0.3584580605401569 -0.9907470923976938
P 8.955616069851922 7.378207323116658 10.276647572918286 0.7319601598976296 -1.294346553226758 0.40945717729584324
P 5.026455504455059 5.378391428591993 1.3288461800340001 -0.8496670623935109 0.7504587329224496 -2.0244688885847006
P 3.4307449691470064 9.063820725964916 13.424910971797368 0.12799414335450213 -0.3278817304151966 -0.7426353802232887
P 8.39795310192128 6.27962378874058 0.627050090739588 -0.1734155089120949 -0.6332423969097416 -1.2383407272850995
Ni 6.0130806485312736 2.2701034312736077 5.2579068326054905 -0.6172295664212532 -0.5015795464544006 -0.15402142065619925
Ni 0.8523964651303819 7.921098133127835 12.053905314515337 0.9275966849914542 0.35045910149508036 -0.8384413688810206
Ni 7.96495706217191 2.23680538124781 3.7983961535737367 2.931168418412171 -0.3204646120155191 0.7002160347168134
Ni 7.437734824214374 0.10174487175857927 0.8476211923364411 0.23444141377616398 1.4287332303711653 0.6472754779640401
Ni 2.6071831586659973 0.24627390936494348 11.114641650959552 0.21482903886187518 -0.8191485820896796 0.061956387098138464
Ni 6.347648548818521 9.255989505979194 7.889449111603035 -0.21717697026876148 0.13145433398896073 0.35229821158634805
Ni 0.2183001857902705 5.2344422588786745 9.689599029151642 -0.6604935193162109 1.3235098050542755 -0.7335573291814205
Ni 2.1875959803403644 4.153833695422301 10.440728710061673 0.13541614685018613 0.20263763900200585 0.3898645998758963
Ni 7.194442425610293 3.04785474443926 1.058901334938435 -1.2144731766388825 -1.001964558380068 3.0865193565130715
Ni 7.463151899977196 8.834992342921678 10.36375848393642 -1.9557147618384383 1.335190069605681 1.5861546778478488
Ni -0.020880846737994434 4.012639131642132 1.5061811736570871 0.6285601609427239 0.4433623146837203 0.6685698685664421
Ni 8.227699779958193 5.835170455838757 4.355364400550392 0.26837380485755075 -0.6945475235771265 0.414799415444363
Ni 5.219642088017516 6.780999419162668 11.799829800888881 -1.1300512614483764 0.15788141783223777 -0.9866832067409652
Ni 7.4989617771081365 0.4245370651227935 5.938721228571814 -0.2232396315230736 -0.2990475797923237 -1.0698475953752866
Ni 2.3747784567332793 8.433744303757758 6.177148712968536 0.6409240818247155 -1.451230897253049 1.2167285483319625
Ni 4.803323086222739 3.3048454715312388 9.726731117130493 0.2199406490568277 1.6191393603039856 1.826000550469036
Ni 4.884019033593166 0.015724597937028274 5.877139445083274 0.5619421067028579 1.4826379508094207 -0.46610500769687474
Ni 1.2360803898527641 6.272237709780847 0.4675994928580626 -1.4093386278946372 0.038429764731108006 0.5770709919244965
Ni 1.1049051215514738 3.788834402809178 12.992225875700791 0.495629756628869 0.3137031249219694 -0.5862356891428999
Ni 2.4884362988291864 4.6812146733827635 2.022286008821377 0.021159664796750653 -0.9468174808942791 -0.4500610668601346
Ni 0.5708981491158828 0.20823887089885249 5.408717305504158 -0.3690846870160676 1.2288672405770256 -0.6034224853348318
Ni 6.815296597442185 3.625705705683356 6.778451175233325 2.6658516552133897 0.727143969455909 1.3679243266139087
Ni 0.3314080404642712 0.128123725186195 10.077224374770234 1.2492051808034292 1.172555196248858 -0.12260536823876302
Ni 4.99580934624287 1.049971742891416 9.587755178332413 0.7993670285873781 -1.3404184078841561 0.19152610246987659
P 2.4618333418680263 7.52901032589754 2.2972311640091507 -0.7121472389367606 -1.381687698946588 -0.32459714612665386
P 5.453895644101976 8.156257440993702 10.076554865463772 -0.8040456650099701 0.13705676777740267 -0.42281302977745894
P 1.8488634893880853 2.2156742855640243 11.425201526451138 0.07291725698501635 0.2866551196652418 0.12641162935873068
P 3.147151285093867 2.469387498477917 1.8473265126538603 -0.1968061199218933 0.614268169800084 -0.47759758171750655
P 0.6476115899422816 4.569433698380291 3.9231181738736733 1.0779694531514725 -0.3834263004497203 -0.28480418249943207
P 8.511713658136728 8.145537821972498 4.521537170673525 0.7258748729354982 1.186055030507506 -2.2450371439231978
P 2.9379132859412964 0.7914319001238119 4.980584312432701 -1.9719415081099456 0.3061489667237953 0.5720280301839503
P 2.1233809803326777 8.865899955256335 8.767322413438517 -0.254464136754994 0.2737916334390123 0.09792612032452812
Ni 9.324611875479919 0.13599256050777084 2.6828881335914465 -0.1098498683453076 1.2751735798427328 0.9463184297706735
Ni 7.504442976032741 3.962215836594654 9.589682468720895 -1.956579680941895 -0.09080699278124361 0.22244027555022977
Ni 7.82458421134807 1.7330579884290442 8.829041460341353 0.10661233524461639 -0.7936668928788073 -0.37665684293637064
Ni 3.45139984482201 6.417914344231904 0.046781612627382216 1.7420154657056321 0.7078306138392777 0.4321080819261397
Ni 4.114643589993733 8.658071940835647 7.901571245238338 -0.7998246849500871 -1.2204437924000207 1.9134275710344533
Ni 7.013572198745544 5.750795475459309 2.2356493805206106 -0.700375186002497 -1.1140183763552298 -0.11476041827304752
Ni 7.94350848648227 7.86775215449705 12.824305098016014 -0.14042105626394524 -1.2425521942632858 -0.07956073044346298
Ni 5.984059240937281 1.9939892026525114 3.008290199356729 -0.6189743170265016 -1.1262781675591893 -2.0811074630143516
Ni 3.8959558918433754 4.419144266197113 12.162185605570903 0.4714827270690203 0.48509594697708064 -0.12146174155262307
Ni 3.625472264502581 8.328873187706234 4.055218803015557 -0.1436681024463332 0.1992509819179601 -0.1932338291896027
Ni 2.478575743353235 0.31207630940190206 1.8735531624316104 0.9339658217425916 -0.1198871979766516 0.8894582262485198
Ni 2.04847437424548 1.6016399412997477 13.595292219527519 -0.09210977075306717 -0.10700005760133831 -0.21316836333000064
Ni 2.8473474454476873 1.8660914485293068 8.929996367144188 -0.3181143666157876 -0.46555684850288853 0.6943665179145718
Ni 4.86141258964688 0.6137075266111914 1.313443730926442 -0.3555226320609167 0.8303840457941828 -0.21773824208887016
Ni 9.225968970131483 2.9586802133830723 10.70799271663721 0.7556433624471824 -0.6807101034734019 0.3540031100925967
Ni 5.941974464867099 9.038030144312856 12.241438886444138 -0.9802312804680344 0.9325306319579616 0.3030980957126135
Ni 3.1635762065732216 2.4425791132776746 6.514276062361803 1.2242058305456143 -0.39908663269479655 -0.4828459746006394
Ni 3.148906762773298 5.960350954617736 7.1521914394194 1.520725758820078 2.1594723733775005 -0.5672933437124423
Ni 0.786525900268637 1.1986737750453207 7.848436297434974 0.5432566144782128 -0.8833906798982012 0.37183113941295315
Ni 5.773943502944994 5.47483064919391 5.151252225932844 0.16635037453519738 -0.9052468565413442 0.789005482847396
Ni 4.773442615083493 3.3226710400952455 0.5072452754715037 -0.4140381117983063 -0.31768422105690447 0.7726195852902048
Ni 0.757926554329486 8.790433090335277 0.6016255448589819 -0.7414588434166844 -0.4985186481408898 -0.508907961795014
Ni 4.741816003912047 4.07099008918874 7.579955595425231 -1.5703470213916308 -0.3870363863984818 -0.8945230423659368
Ni 2.2402883236649784 4.1083126651711055 7.9681692128193795 0.868224256570408 -0.831969902224064 1.0910216583497403
P 6.925462159473692 4.075826990454406 3.844466237482116 0.3025831037494079 -0.20883142651754355 0.06031345217807677
P 3.6836364691045693 5.372172555536137 9.242838363619034 0.5069343830084109 -1.78043726001694 -1.0151144654984647
P 5.997570816480558 8.941983104894641 3.021888615019255 -0.6808615414496015 0.6828834569756368 -1.6172362297440017
P 3.888924643478422 4.255380609059582 5.216141404070609 -0.021429116408053415 -1.918945929749521 1.8052460915305037
P 5.4188888046329025 1.9228083178104882 7.404025917710412 -0.257655389998782 -0.6516167856518713 0.8525248435572801
P 2.0296496774277553 6.0537554398695725 12.035647412884536 0.7843150193502622 -1.0987161987805207 0.2147179672053076
P 6.06524074596372 4.539973421366439 11.59145553410518 0.18725575722929685 -1.1733278127488245 -2.773489860619359
P 8.083647896125333 5.745566393009941 7.601713247238218 2.1693770340857217 -1.8679583829580602 1.6319586235558408
