# total energy = -340872.506659981 ev
CRYSTAL
PRIMVEC
9.21021994722783 0.00000000000000 0.00000000000000
0.00000000000000 9.21021994722783 0.00000000000000
0.00000000000000 0.00000000000000 13.48008787606567
PRIMCOORD
 96 1
Ni 5.0287431544752605 1.616485672133043 0.22526447619849113 0.036635134724530456 0.2130434077163621 -0.8216042427190238
Ni 0.38349420983253624 3.6622320571662326 4.890117373625303 -1.077036656924558 0.8307699683786919 0.8423787562622137
Ni 4.717889026960234 4.801609924685089 1.3909292319677886 1.6678982748752438 -0.5490457103561641 0.15341052654507772
Ni 1.2100202531678816 6.219633781177298 7.02832883903461 1.1663781209038686 0.20776981802224861 -0.6603333395892628
Ni 2.850369604729429 3.790806725179322 4.939724538337717 1.0788878512006839 0.24949959366086708 -0.09143305640101672
Ni 1.862960363443808 2.0245720897780255 6.333808270577316 -0.17320365001160493 0.10685041939735147 -0.9624523592180584
Ni 5.522678030612363 7.039739380309784 7.167726436301438 -0.3639003146016507 -0.6651837257030286 0.4509095309033589
Ni 1.4210355983575584 4.487605902008137 2.4283840444269567 -0.7493428741504514 -1.859006315971095 3.3051317736767785
Ni 9.10059052576858 8.282575646524272 4.318615868614802 -0.41384090818583563 0.060184897020012486 0.5558079687806621
Ni 8.482253211174973 5.951367709886664 5.677894180337105 -0.0913626081743975 0.4924300187446487 -0.6964686518592392
Ni 4.444759959630137 8.91280335484316 8.620920438013902 -0.1531557302217943 0.30066968877677896 -0.14361693749342364
Ni 3.1592895860923957 8.73611449874265 6.1072884414239414 1.0042530973039285 -0.3054799656812287 0.8112897481668931
Ni 6.8424656830195 8.428281323312746 8.652585173589047 1.2779771107297988 -0.04061211709440748 0.5819663723435848
Ni 6.251501141587419 6.237418715556473 3.434052546409995 -0.08057503064059027 0.5099132631310767 0.09609369510147966
Ni 0.8916174295279605 5.1706726411573305 9.10706623129007 -1.1309740303729618 -0.39097043134556536 1.7526400352990137
Ni 2.11507170925486 7.7627324221693454 2.6978916533428174 -1.0341827949838254 0.9632594285003862 2.5162697583857825
Ni 9.224587714555128 1.5440933447273926 4.018077187244092 -1.4507675844633854 -0.7761304266569408 0.7839193265737402
Ni 4.349636809827903 3.73848346665623 7.084459602411328 0.40998245367169395 -1.0587260315408282 -0.2030976093575599
Ni 3.529586472014047 5.698556387372961 3.196142438464944 -0.10392810354423392 0.03183822755651936 1.6090452092927772
Ni 2.0035819989182957 3.7288219461157053 12.390599840058895 0.2375478206156296 -1.0786507954892133 -0.773647769444403
Ni 7.942377758816574 3.640827506416776 9.109816402913903 0.5042696916920542 -2.4317478272823023 -0.8284006968155668
Ni 5.3488719733004 2.077890052036462 9.02464950068489 -0.3534927461150815 0.7701479838212607 -0.44667595243798563
Ni 6.653960114951886 4.5417619942658 10.729273291945299 -0.19096971574577432 -0.16976274265085603 -0.19397353556910463
Ni 5.900849654438828 2.0711942222624278 11.427002700971059 0.23490601211740833 -0.20841645046731203 0.07626843284543638
P 8.132053024795196 7.7833541042382075 13.254134388480932 0.5790545980134285 -0.8859185885263776 0.9327417195275032
P 8.856915741268415 5.802327933540832 10.743171513580814 1.077650636359473 -0.7479117981308797 -2.0497906551789407
P 6.829534534460017 0.05323507028049108 3.3539936320663717 0.19194236407168877 0.3026180707524014 -0.23969572019656782
P 4.313523538103023 3.3622736196411407 3.205996452598698 -1.5313025058946594 0.46395196590961385 0.290240523023655
P 1.5517746680169997 5.531657994889782 4.457932415947638 0.25555454160569535 0.6325019191992913 0.912902316204073
P 0.2641592342944278 2.5714933602617833 1.8593085113043246 0.7271912777540767 -0.48147866193946753 1.5513154586814766
P 2.9977423312965805 0.7985896047237909 13.062865754481804 -0.11363196109555915 1.1931587314318226 -0.43703123025936985
P 4.720228422782249 7.199895891920071 5.12747486838405 0.34995516527546827 0.31254047207243596 -1.8412399931266097
Ni 4.619367306062238 8.582322248994616 3.3376022039386575 0.313706210245763 -1.0399361525278348 1.7972376194037307
Ni 6.854853428612452 1.8814452745256325 4.856026666162291 -9.538792728370669e-05 -0.4119267218822583 -2.24258971082397
Ni 6.743022940144334 9.252218373870262 12.675259181521199 -0.08086093731212525 0.5045625403421246 -1.1373331398217703
Ni 5.112252217145366 5.6992195231965255 12.055889401291184 -0.7265305042416262 -0.38995381715559296 -0.4692049867784371
Ni 2.4178668944696393 5.5173268929249994 11.018044075513695 -0.024933272906569964 0.27168872816339656 -0.29239947834818675
Ni 0.5437170350251797 0.46547529704251533 1.9863855975825335 1.6914297823382807 -1.447160069617785 0.9133540590295108
Ni 2.4542933136667577 4.080882596889368 8.002130901629505 -1.954204238731183 -1.3444905210710008 -1.3139221613658403
Ni 7.829561776832883 7.605606072863952 11.006721031326354 -1.1423642744877744 0.47951588178614185 -0.459429395448912
Ni 3.4607584996600487 1.080441671199676 10.774957824056942 0.6777710754497359 -0.7141411294383377 0.5791024205322284
Ni 3.8148177681241733 7.204869410596794 1.3461592746794773 1.4807600170604176 -0.3835509989530427 -0.35150065538571723
Ni 4.299966094599063 1.5154864021164574 4.636004647057858 -0.27539265937754503 0.31338096569586027 0.4392315803447984
Ni 8.032748435216606 0.8924924004062731 10.51795953563502 -0.6696790424702208 -0.02289978741630895 0.9399035273832652
Ni 4.429369682391607 8.369547751828541 12.545957827168122 -0.3206281341765768 0.27007099005431556 -0.10316294324343524
Ni 8.064413170791747 5.536235474116323 12.58553598357112 -3.9049991946705003 0.5580841664093485 0.8073173937827064
Ni 0.09416344490202157 4.170894074718302 0.5175001444450035 -0.4781238865346218 0.22406932651322053 -0.6258957267366834
Ni 5.576198617705778 1.7887628329629022 2.5340814475490925 0.24688298197362643 -0.40347576290142767 0.2613240970996209
Ni 6.595069969731564 8.165513753225822 5.351661748869252 0.9391332248761439 0.09778033877528322 -2.623888423407726
Ni 5.8377596490026065 6.449373503162864 9.52046049858949 0.3281534960193445 0.46984776256875854 0.7754280012732775
Ni 0.592841584221556 8.641672905203523 12.057291196740437 -0.1883605602577014 0.7816207603475507 -0.648094888541542
Ni 0.412610477596847 1.7583875281557984 8.911105911339233 -0.7895431005184209 1.2632675724337665 -0.35754789002106163
Ni 8.795888825061056 6.010893360271234 3.319053742340408 0.14153100149867237 -1.5736753144339155 0.24180119657534482
Ni 2.812091931358197 1.7375816416915026 8.525980571585126 0.4906464444816647 -0.7640755523749357 0.32000541299091345
Ni 3.130323444910364 7.638827335580514 10.180647209781798 0.2184553227605528 0.14697068445700495 0.6749706298864633
Ni 8.522511081797123 1.3298636328373885 6.449844145393198 0.07484198481155499 0.27405465729241185 0.8108464899818875
P 2.301652341390187 3.2495128989760795 10.080207000105355 -2.8776249379680765 -0.23863642569411803 -0.08801606029966777
P 0.8706236545803219 6.444142098332532 1.550910749402413 -0.8842252599843545 0.18275452692483365 -0.7236930347928311
P 3.2678136056624694 6.556819927019647 12.77227503148652 -1.0467135804609844 0.5324880631077991 -0.7063131487534867
P 0.4009936273987876 3.637788133892111 7.341053562185271 -0.5219218575561785 -0.186524278379911 -0.3551989301729109
P 5.983732422164458 4.537571344269671 8.306712869479997 0.03841125278834675 0.8735672660498761 1.4465288637916895
P 1.8369875436875822 0.03381992700172374 4.564276376497748 -0.6029717709506582 1.2022907756400776 -1.2436346286941873
P 7.3452884212363045 4.360090409268795 4.680408037599255 -0.4608080209639935 -0.9224444513665533 -0.21691394641536194
P 3.168776112457259 7.091675809602463 8.04838094123513 -0.26141100038647236 0.5568559504292022 -1.0494587473062893
Ni 3.4890062436998877 5.90344693641445 6.069894949150793 -3.4680204149156206 0.14213958161694873 1.3223155276358582
Ni 7.978297615926248 5.5739329036419365 7.951067601171183 -0.7403915784944346 1.1513104279374688 -0.6376204713727793
Ni 8.140655370061973 7.858362134059024 2.1392761668149176 -0.9203199488243827 0.6964231433332846 -1.4791075690586588
Ni 7.52082599986535 3.202697351876471 2.6666174310859945 0.3315913180562999 1.1089872416892257 0.1946091122705745
Ni 2.4980971189010166 5.108310243083074 0.7224791115963006 0.4241356052436244 2.6553682391835625 -1.9034671173876314
Ni 3.375646858749665 0.7117731521336634 1.8718583567652582 -0.30821561944483694 -0.5693229725479614 -0.2021167335015293
Ni 3.866754197416853 5.360016339224171 9.082559678521502 1.021369702379557 0.4904217300653683 0.323361731057656
Ni 1.0487308845256742 1.6204368564151073 11.210041237896764 1.3072141532180455 -0.17323116081543066 -1.2340629258453522
Ni 6.022000885315918 0.591372554167968 6.810625953268694 0.7068834194346599 0.683269636670462 0.7904417010732903
Ni 0.7811776842453708 6.412698408031909 12.708541231688255 3.1479208995490047 0.6089243889896674 0.6051978320676996
Ni 5.624985151836532 8.81910778910554 1.2529997437325724 0.5882388356158579 0.49135632606449575 1.3217185174818078
Ni 1.9736303642206905 8.409299060363248 0.49158350702938525 -0.17159851030801415 -0.49832144452841914 -1.0114023067542002
Ni 1.1032093344753462 9.288138230979936 7.524476930982856 0.41859976302705976 -1.810201121542934 -0.42441534126757224
Ni 0.9643560611970274 1.6735061427397075 -0.032220111827377496 -0.36545660334517704 -0.2645652297447379 0.435867806078888
Ni 6.571924687445254 3.273100271811432 6.633996042574724 1.7118458841007873 -0.32541115738751697 0.47122998762826585
Ni 4.128434961570713 3.6353474256526077 10.72225049936937 2.5605976337688805 0.06090763411864994 1.6836354831048423
Ni 6.054107711440103 6.777653366485968 0.37714192125598694 1.2159446189780867 -0.1948816492056708 -0.1624199291325396
Ni 8.98746139631265 3.5443136134290136 11.395459540296901 -0.6264940224423147 0.5798562679791176 -0.03999505233569886
Ni 7.697699060361293 1.0590463306699909 1.1971729176083217 -0.9971905340301923 0.47038949400484154 0.11144395230530484
Ni 9.36614879244633 7.390796117128329 8.805962042425376 -0.6880578020877246 1.1419238445162463 0.8673739927549706
Ni 6.630989826841239 3.8566137454481986 -0.37339704589680917 -0.3209801181993569 -0.5887499709243216 1.2067213006076056
Ni 2.929347239271853 2.9206159509282705 0.9497597049028194 0.5143052215511853 -1.2504249121431434 1.2807251057885813
Ni 2.109785043105898 2.114666459584905 3.3986539877393995 0.794823889301386 -0.12392305860892207 -0.29344900265862367
Ni 5.326988491122814 4.944828842135199 5.401134444372999 1.7723100029241154 -0.05160923953585951 -1.503822812417152
P 4.469065729607682 3.613270528859816 13.085241983417177 -0.5697538894377929 0.0789943164170317 -1.9693161546719564
P 8.133462188420268 7.913199782579793 6.774256637434161 1.284421837913878 -0.19810709812150398 1.5366357451821149
P 4.197327405463113 1.5269347052926945 6.841994119767189 -1.2684727707837895 0.4873407771471994 0.3149154000625157
P 5.631819134907142 8.821723491520705 10.737118557146845 0.0007294219668568083 0.2494265743310866 -0.9999673254443812
P 1.5127785975035744 9.051711889440108 9.774142186871618 -0.5882591473308321 0.5616307461100263 0.05474855649578959
P 6.942700504795034 5.264985291619654 1.6088347425686826 0.6369468423445224 -0.7233778175452574 -0.1872390450587485
P 7.306218668964705 1.3758963112564015 8.561998978046358 1.3097888559237572 0.4920674931989074 -1.189734793351938
P 7.901189655997481 2.095721037514495 12.72943553626236 0.06679520324767851 -0.5306980610869118 -1.1145282261121128
