# total energy = -340896.79795881483 ev
CRYSTAL
PRIMVEC
9.06924486359036 0.00000000000000 0.00000000000000

0.00000000000000 9.06924486359036 0.00000000000000

0.00000000000000 0.00000000000000 13.27375659119080

PRIMCOORD
 96 1
Ni 6.30588221888784 2.057385401207764 11.588348223823605 -0.21905850356219045 -0.16861988729566443 -0.20078670183619615
Ni 4.52251498147818 0.44642360140933046 6.044311593641826 0.530322422915048 -0.5210140010299285 -0.05830696327100926
Ni 2.7875230960808026 1.5806242688617471 4.6656321997814825 -0.22548497591382458 0.24738948929639976 0.9589147783784453
Ni 3.528616438728651 4.222604123642755 4.85398681138011 0.5888397024246504 0.797371338313588 -0.7087119880029665
Ni 5.2051479718442195 4.697487922305506 2.808952814729063 -0.3680156223216049 -0.6099577153501883 -0.4256659258452218
Ni 7.283256597526686 6.074126736075343 2.4197126159271267 0.36481974109212656 -0.1158626501982908 1.0093500522108618
Ni 4.871018853202207 4.62509720993917 11.26379169311728 0.4711410274588853 -0.16977482683571404 -0.08683155307326336
Ni 5.6926833670681125 7.906250233780846 12.409409632907206 -0.9804878765635306 -0.20841567913636364 0.4213901812880033
Ni 1.6636894824126451 6.551803862150876 0.4335298560107813 0.4309842527343416 -0.05705072226640497 -0.670511051453213
Ni 2.8500918162781654 1.6954771856003183 0.37815576775030313 -0.26073377181378965 -0.6436126844004723 0.05380650429749443
Ni 0.5852147899207586 -0.0006085463292133715 4.689366413545288 0.8825437585168736 0.2641703082991644 0.46446104433554847
Ni 8.648667686176312 2.4427920302130013 1.5358004331314317 0.33058370272739196 -0.2472730183231935 -0.2778269798506506
Ni 6.879901932969835 0.7688769742357051 4.828819656930525 -0.15670385258436884 -0.37067440010069064 -0.1677696234802272
Ni 0.8354688114470628 7.523691347657471 2.6630205028253453 -0.04633513562111375 0.08791141640100343 -0.14399540387876492
Ni 7.745552284342221 3.9834844140147414 3.835253048542386 -0.17772287803819714 -0.5225152681658034 -0.37739346399207907
Ni 7.741915517158695 3.6660427058906513 12.733209788593314 -0.22809078896778784 0.5405852382936367 -0.45284557158380717
Ni 7.9185934760172 8.958527505608563 6.885482239324007 0.7460672887229731 0.09320711758230399 0.5101132949570247
Ni 6.939568494816254 0.625933885433459 0.2441839759504098 0.13158751713271533 -0.012410457849210885 1.181280491936998
Ni 1.7950665632618985 6.4186492093116705 9.079727079890853 0.5690193252646136 0.5888553861539343 0.40445998119156795
Ni 0.09721777013416892 4.860543875404272 1.281025393049049 -0.07398375057631773 -0.19387943319340156 0.019249078037599107
Ni 6.368314900412502 2.025887913855185 7.072974365737714 1.1876223749946258 0.4990356969866244 -0.995088400085525
Ni 3.641673644987576 4.302894148270564 0.7575395112528491 -1.5253010368955862 -0.1297111260456089 -0.367571849915967
Ni 6.134645806937352 5.788173446058986 4.74550050452392 -0.4382936419115613 -0.4670424319094795 0.9471807777709687
Ni 5.427598409444005 2.750003630150017 9.477316425498659 -0.8772848241107793 0.34913086960196005 -0.8330073423496429
P 0.13192395631350917 5.653331913678294 12.222847104090285 0.3867653921252823 -0.13437407873891696 1.0613524134200818
P 3.9042554910339957 6.010442498761837 12.55885899796247 -0.6812310089738783 0.9870058801877066 0.11928530272659456
P 2.4845649719768876 8.394239091247073 1.4372558324761908 -0.019186086010147603 0.5013486613905173 -0.09876764238921701
P 6.324474170823568 7.8627450662512395 5.84764683299017 -0.695946460807182 -0.21089936479016583 0.17637587709199948
P 4.713993947926494 0.9841672430290228 12.567618981559896 -0.20580832342050362 -0.5209345539422447 0.467963143951536
P 4.105365995509502 6.163077889531747 8.259461950504793 -1.2968546643605923 0.44311394611834004 0.8557469500390037
P 4.728060346683722 1.0131978957832999 3.8080815909816814 0.675861774242165 -0.3953127674746611 -0.7181559070246858
P 0.16684780436917013 5.695757841071142 3.628739994911702 -0.08779983052380362 -0.5319386183622322 0.11090813440649286
Ni 1.5319949779937574 1.0973514187158018 2.637774445945595 0.13900180731891545 0.22888783094778647 -0.43979619459901675
Ni 1.9015576362518152 6.46222693080005 4.845465348922154 0.22180469884875995 0.5137930578014571 0.37224765812508154
Ni 6.002760848376685 5.563546389695993 9.244162465130803 -0.16866436738035467 0.6402910762264069 0.2898101203544557
Ni 8.390638601042934 2.2117711562330875 10.386263351769175 0.8376823792278089 0.9439627850543033 -0.5564142349060933
Ni 2.488963555727536 5.13257587458095 6.947444227041126 -0.5278824460149876 0.34537114544921166 0.5368512251725012
Ni 0.3111376760311507 8.965365716222973 9.171740917331988 1.0583920452401772 0.7386992783936761 -0.19499323508287064
Ni 1.5844424209422066 1.2712088424269843 11.351503987727627 -0.6936185840049538 -0.9309751145453837 0.39574291303354425
Ni 4.009676393132002 6.709445476076164 1.3803907603629157 0.7356964870116104 0.7587739376563641 0.664258899895914
Ni 5.794159147657806 7.972283405509647 8.085336984070633 -1.2921055797113812 -0.681168274056743 -0.7193399000304579
Ni 5.482975218477937 2.8068677953388073 4.752217187257384 -0.39688936793316165 0.712651946487321 0.04841387252701339
Ni 0.8745554428873576 7.566026582601853 7.011570136578668 -0.3586508932772533 -0.5102739889046051 -0.07965046194379186
Ni 5.144139161760489 4.770985082543139 7.044236649591985 -0.06104595946872712 -0.8797847077144977 -0.6315112731512479
Ni 8.139474934258507 6.9201693800891695 9.246392592438603 -0.32560836099998763 1.2229647590496615 0.663275195826406
Ni 4.613325330128157 0.37027640782749277 10.311107426649082 0.44542022565401357 -0.18397708647802508 0.28330137270166045
Ni 8.185111374327086 7.31245956593305 4.95721749084764 0.3227788619709925 -0.727207989924625 -0.876864191633593
Ni 7.2257485159537795 6.1650912618877145 7.044396268301288 0.15669073995824628 -0.19674698454918374 -0.0827247299937414
Ni 2.1919639254879013 5.318504463183086 2.642897662359494 0.26869030765670504 -0.29585529810727107 -0.20805726735568036
Ni 2.17854144311479 5.459685397711619 11.343500379150418 0.07074878857878784 -0.5222211339641522 0.10531341392753475
Ni 1.1781402518101791 3.3546592533241553 3.854048151562681 -0.8729273184730321 0.16138351744822527 -0.13275582640920364
Ni 3.7781204337061336 2.6600729982501687 2.594515054951335 0.23147333228677552 -0.09180226681497738 0.3798151860596943
Ni 1.0015892623795277 3.442984628886138 8.231003567100343 0.5732881278432964 -0.36494135427165536 -0.7345744575920252
Ni 3.7976555871059188 2.857528597052457 7.338661521219643 -0.7085703202187797 -0.4873256076385478 -1.0705587625096982
Ni 4.096786489884527 6.92129396645016 6.209224021160711 0.6579219019342927 0.13265812448907477 -1.4800285382110316
Ni 0.805676342125663 7.703425642029313 11.469653574967973 -0.45681381220293577 -0.3408837991018194 0.0038026615755418383
P 0.10687832974487062 5.556263786084095 8.002230051993442 0.6179368769009228 -0.11507589263093729 -0.7925777735796866
P 8.532399967241657 1.7643490309661356 8.069700699030443 0.42530108630663527 -0.8745257733084035 -0.18393800570997354
P 1.763777668540794 3.2314898390611626 10.325681703117723 0.09002640586147721 0.0999223248189505 0.3225466913555284
P 3.918049812445822 6.219452315498817 3.8466549031636537 0.48999981203660126 -0.24132837070398436 -0.13793428528634954
P 6.8736350847807675 3.952567358332351 10.495585843000232 0.9118533061142683 0.6660553296747045 0.791449059291882
P 6.261742204218964 7.781539047893915 10.243052720243952 0.3180773427302651 -0.7542053444490753 0.41555429133251665
P 2.4957110738934785 8.515513033337106 5.874207930372692 -0.6159828384983456 0.1764139294187865 -0.44232487455814146
P 6.90710059826508 4.0011785107106475 1.545529919002968 0.9461546504992996 -0.73009328189222 0.7643766285551222
Ni 5.400617406025081 2.74609478562109 0.5318359355265538 -0.3756980785675271 -0.23836620275186693 -0.44792216614026087
Ni 1.538896673322094 1.1463072023982726 6.9069065164253605 0.18360787606406445 0.28058268821891674 0.7970070129956339
Ni 6.981586306191002 0.5721033826458888 9.133525840321461 -0.499254754975966 1.0091412786341651 0.22559707601165666
Ni 2.7633444893195085 1.4659980832443433 9.138172014456424 -0.36700106501416146 0.6151801400913921 -0.08945587806998787
Ni 6.419918903590208 1.8482123380635431 2.54850858969301 0.08200507821889749 0.35719256356417195 0.40740466564218863
Ni 4.001668249932369 7.03680893806254 10.387909419708851 0.4441542144573964 -0.6342471840251722 -0.3956488106578412
Ni 8.14668498391163 7.134221696960913 0.30860826364340693 0.3886271279243694 0.4522125659854986 -0.26011285040033916
Ni 7.563995071756192 3.77208938588308 8.28727097597822 0.21213195164568627 0.5653904702627747 -0.17253233497619316
Ni 3.099976719539209 8.304734713855021 12.33094796804049 0.33597170651218267 0.16502368530397388 0.8601419937829058
Ni 0.0784852449033162 4.81793656311449 10.113407865160418 -0.5030286201961014 -0.744615386767795 0.9697424651215686
Ni 8.752619370609153 2.1742154133229152 5.80515832780788 -0.3200550352819262 1.291593158851337 -0.14242651672974826
Ni 3.630282673460125 2.6275869632093003 11.441421015760206 0.14933661358602024 0.09227509268633786 0.029637620360774768
Ni 1.115907093672144 3.3471045723668564 12.555128817557025 0.3509447828822472 0.8006186416062921 0.31590836010340434
Ni 3.2257852840525905 8.33227801045444 8.002840412171624 -0.1131388235092245 0.12510730872501036 0.8271503693482336
Ni 5.621199579186447 7.8706806554921 3.715656009824508 -0.17496742678024707 0.6222342187246961 -0.8301531607302993
Ni 3.2032754183430883 8.404215260578441 3.656853747011978 -0.39547628963571896 -0.49252797777509366 0.05797940472826143
Ni 3.4143711613948082 4.2405068129701355 9.313557605924274 -0.11257369503437387 0.6269161975813977 -0.2217843871337858
Ni 7.137423140391798 6.085708161744575 11.564455298274982 0.2670851679531142 -0.6633348454197479 -0.9044099624623456
Ni 0.6432561430906503 9.0965432736856 0.5649522830842681 -0.5766989532970583 0.13777333422845306 -0.7677784551478196
Ni 4.549160422837776 0.1909402533044208 1.6027795270977432 0.5483026615425525 -0.0527729208266575 -0.3798704647776619
Ni 5.762453067673752 5.268714308974719 0.24493763019717033 0.9630825366028897 1.2373390254934626 -0.03648035431422105
Ni 7.80695107195436 9.043370291149413 11.293869843651352 0.4150040752560014 -0.7226864479051875 0.47448680400266674
Ni 0.024323714678841462 4.985826423716545 5.858585249199772 0.09638063021427917 -0.830212553213325 -0.16656686142137764
Ni 7.8805752016198465 8.837380532946385 2.718451727328358 -0.0553908180654788 -0.30004002561258003 -0.6501486857467771
P 8.616335828297837 1.6607782548168555 3.6027892577073626 -0.6120680768249717 0.0023096219697831192 0.3418983564092628
P 1.8271626207743594 3.2101861829162712 1.7149425058147842 -0.020798167692273856 0.4484124755131181 -1.1267738762486852
P 4.8722613397462045 1.1191176063478747 8.15871443027629 -1.5396544774037806 -1.3054154094464099 0.7382315947286383
P 8.759448511978716 1.5976653799286906 12.543367820839828 -0.3981900890224562 -0.2077695609119325 0.5037493004122099
P 6.3596628408287526 7.694528712834703 1.4092218897305655 -0.8847189117913214 0.9868390155925393 -0.2879488987760009
P 1.9310326820035806 3.309947876229939 5.904047559767295 -0.652721845790592 -1.1724369255034388 1.3407554795086007
P 6.843216837564945 3.9940319457714497 5.976429202888784 1.3660276238118279 0.37354837921437606 -0.08851691119548626
P 2.34084464889128 8.60416490171357 10.173033615405027 0.02675927037171521 -0.4065528591648547 -0.3724767434167521
