# total energy = -340868.2143221401 ev
CRYSTAL
PRIMVEC
9.19874798976142 0.00000000000000 0.00000000000000
0.00000000000000 9.19874798976142 0.00000000000000
0.00000000000000 0.00000000000000 13.46329750671325
PRIMCOORD
 96 1
Ni 4.767361400715505 3.6107660524986507 3.762789157007422 0.6835501440253583 -0.3689340203708162 -0.12791418204618615
Ni 5.390686945006393 4.5339431768380924 13.127455628862103 -0.01216903126236614 0.0678886934221734 -0.9995577487107882
Ni 6.973754635899292 0.9419149734838071 2.3961302855477307 -0.4553115166257965 -0.3151552839874637 -0.28286839892929994
Ni 5.415045229019295 2.565116800762013 6.251453325560964 -1.939118290932338 0.9688963150711893 0.14549821367653654
Ni 6.11339575986956 5.064296977730792 7.352212275002019 -0.9496215260019775 -1.8883104642518513 0.33951057290337655
Ni 7.801908696094746 3.817866659094753 0.08341884387122452 -0.4746181873742084 -0.4167457405374565 1.3298360043826194
Ni 1.7147201685336295 4.936774737824877 6.984071951363367 -1.1378666437277372 -0.581758627208153 -1.509327544285465
Ni 0.38032866439284196 3.481799609197712 1.6062926891843547 -0.9137847188090263 -0.01696850953353852 -0.027821650197958535
Ni 1.3571004526840849 7.165778494951154 2.0684736507084676 -0.24546219036669986 0.29179784020844585 -0.621096248465511
Ni 4.84026147654717 0.5260230304571734 9.65781584430059 -0.478330346118473 0.30992000373045336 0.377145352537015
Ni 7.485876518773272 3.0944035469169875 3.4476005048536154 -0.3981129559276176 -3.1076751646550798 -3.238450470299145
Ni 8.879440807494797 0.9710934013119512 8.103167684547367 -0.8015565800395292 0.5049286654322916 -2.069921621600861
Ni 5.39266467577028 3.1034275184489575 8.756488505465624 1.0964101763551632 0.741250069839988 -0.21626602841871786
Ni 8.194474454604794 7.909892795803 2.7193568034758857 -0.08386527135608782 -0.4938757500522398 0.88576766477081
Ni 8.14240954240199 7.5936214510403115 11.610384353622742 0.16978588257930757 -0.5494743132531504 -0.1179249320439582
Ni 2.5293980632914317 4.304020477101503 4.754011258121878 0.5851172592677407 0.01835716235094903 2.329578101190072
Ni 3.014806782731322 1.8404486526304369 4.4419455808254655 -0.16576030635968225 -0.37308326665249936 0.048621360552129164
Ni 8.851752576800372 4.710365959724591 3.9992862017530824 1.5385206209096536 0.8221210344544422 -0.013544571453654093
Ni 3.557523700585253 8.432740418540666 11.674657843824763 -0.8082193367716854 2.738025092053846 3.4757314104066332
Ni 1.2423460746399182 3.1813685080416008 8.759315280645822 -2.2918430485331434 -1.2073219103060822 -0.8047046387502076
Ni 5.235724840595007 7.643570651263143 8.161854775247486 1.5024503575496577 -0.8449812268820673 -0.0394306951917966
Ni 8.82023766704652 8.36312429565183 5.6869638916835665 -0.7084237673385865 1.175560301623769 1.0724279545079531
Ni 0.31020753025313225 5.622789747957128 12.601363607796888 -3.9767412004004936 -0.7515573653032669 -1.5417424702810612
Ni 1.451911945630075 8.954842942711474 3.5712611104586927 -0.2164434345368466 0.23160934364400756 1.2780943530339537
P 3.813322477711681 7.470762976238076 10.04160047821898 0.44543051006665874 -1.826150960003971 -3.188267678797167
P 8.176858852684587 3.8451409461409214 7.158488487367988 0.2204147604797688 1.4754499177014138 -1.028351533014029
P 4.490359510050657 8.361845669716107 1.8992001345647285 0.06432617288189567 -0.950714244845524 1.1090867433815674
P 6.026495189979119 3.5219705405739745 1.5981333999398517 0.8402722514421722 -1.7293707803584282 0.5568927172044087
P 4.42994213490083 0.9732735045260968 7.493442488788609 -0.016582586949029504 0.451863410176196 0.4304690036608199
P 7.75394642538354 1.1055882920040363 0.09851490878571606 0.8120243123400726 -0.21058851841796633 1.0883088874042677
P 1.1518855893744804 2.6692466251676215 5.306477928704387 0.8404946518656233 0.3969384760035422 1.9429914007344986
P 6.098594974757491 5.1503696603247215 9.741907116631536 -0.8522116831922356 -0.8428515821335741 0.12697598650263295
Ni 2.366046700942068 4.58448109691622 10.046796850816747 -0.0807786620109641 -1.820789695692058 0.5344719263070473
Ni 7.392362049258482 4.292098900031744 11.331411171317422 -0.3911547794422296 1.0458646021971278 -0.6084911581069908
Ni 3.7038665783651847 6.57916515288666 6.631993561151803 -0.4989405661696569 -1.7106063552667312 -0.7830325530934127
Ni 4.5018855409676375 8.656223994859948 5.9408005759172635 0.47929810934838096 0.7589017214834801 0.3117246610393599
Ni 5.887446919156224 2.370434503613576 12.037076546369748 1.3723404534037333 0.32957043097152916 -0.8696301357789992
Ni 8.488797587262201 2.1995033731272673 11.712085708625251 0.05958197332869094 -0.7617939554296107 0.28752440964407255
Ni 6.293102495698886 6.842240139474646 5.928105384162653 -2.148991014230202 0.5377189724894351 1.7552227084245255
Ni 8.64615136608573 5.906607910696584 6.468225495529862 -0.5480064704583724 -0.24151760389665505 0.37489383749867694
Ni 7.911999309035234 3.4274442088078936 9.164708692877921 -0.3426180081841067 -0.7764423014704047 0.5686529430641304
Ni 8.358120176881807 2.0521762293392616 6.0671269786171065 1.1545613307745988 0.33921798136362225 -0.9749013836146887
Ni 9.101802136589919 6.013920501819891 10.198447406042089 0.5044524971268216 -1.6226121493439347 -0.14149012095840793
Ni 3.318236675650351 7.624326870993132 4.248397489273249 -0.2909840860578988 -0.710890226601208 -1.1346319388405235
Ni 4.4122805392419275 4.119760361141367 10.859401347834178 0.7535396858406184 -0.5952965137935877 0.6460534326314809
Ni 6.657483291136604 5.295240738466411 2.9807199031096414 0.3613963172328744 0.2649678644997953 0.5658866931729027
Ni 6.626023573869185 0.17763057846463104 12.042556240397877 0.13620033331437834 -0.41573683965696795 -0.004831102840056195
Ni 4.226291058706857 1.6937562224364224 2.210484838178099 -0.01674199534502923 -1.3319931599349382 2.3501939776682104
Ni 1.6848518346250596 5.228963761006835 0.6582973434450611 1.5160841462830084 -0.4107167607345572 3.8980939829102352
Ni 1.772764266766791 1.5812279413450967 10.869579762207392 -0.1993211730342632 0.4545998352707526 0.10889727462405117
Ni 6.584739594016502 8.30783982174037 9.987060182999606 1.3163022315622426 -0.8675493419905704 -0.4950995951570118
Ni 8.428582584562633 7.90793346253459 0.3878063264298843 0.034901439862875375 -0.12975663457156364 -0.5232259210795828
Ni 8.667032523453285 5.735115656598195 1.592129377290599 -0.5013275783445947 -0.25851131024117413 0.006983373296368617
Ni 2.1246899577658875 6.348846906997294 8.705529282741049 0.24644152356083363 1.1837693197971226 0.2931705521862564
Ni 2.034275466239145 6.28337941933875 11.286255438541389 2.952468208331212 -0.6544018045961761 1.898443696031111
Ni 8.87382037262626 0.3323277589411329 10.240654940167769 -1.4819319258813315 0.3732478172548217 1.4677854591776205
P 7.327418890221062 8.183969484686843 7.565443846966172 0.19138160647221233 0.9871493477441062 -0.10558055154599237
P 1.453586117718575 0.721372236816688 8.840754554003611 3.3864876483474515 -0.06462750617239837 1.0086399135177144
P 7.609250123448891 6.968566542174489 4.4979392781876015 2.9465325595730674 -2.404558411351704 -1.677722460054517
P 3.89958833400813 1.7117305755184509 11.607449033219224 -1.186261490091357 -0.4934777432828727 -0.6419489235448042
P 8.518665921170772 0.6783598122638449 4.130418030271786 -2.0665442204881956 -2.0083840672076962 -0.5200765768173237
P 1.4649189749330371 7.450737302410248 6.693897453936254 0.6718518817518235 -2.041367721222568 0.4699302949802358
P 0.37943178648828835 3.8650286387526642 10.773397655848289 0.2907634854066605 -0.1425527578949674 0.20767725830844233
P 1.3716160766162449 7.410879128457112 13.0941202869307 0.43144370886926336 1.4923050415855397 0.9151821133771852
Ni 2.495684652827955 9.12264649896652 1.1338266078132533 1.1833584575119491 -1.6864323291236891 -0.4290713519823449
Ni 0.16927995526715653 0.38679446417859303 1.684540916951481 -0.524896109693154 1.1893874373148483 -0.8646671353467689
Ni 7.43042646740251 6.333383812048017 8.629582581658223 0.12764524465551566 0.1927697450689906 0.6689231381408027
Ni 5.008874522603249 6.397940623680398 11.538328722833517 0.3491313838225923 0.3234051827010817 -0.3500101868831198
Ni 4.664491804750141 5.052881331786679 1.7247422041952825 -2.29909150256544 0.9599193083835599 1.80394665599279
Ni 6.5819615721993205 0.9213373747916388 5.180622501888782 -0.09816266181536643 -1.5906605361380026 -0.980876370251201
Ni 6.868346185557961 4.06018007203579 5.172894633913239 -0.1855295185668095 1.9574980789911063 2.8807886804080387
Ni 6.77707621049149 1.2475893608511546 7.707535983415906 -2.5134189192005487 -0.5710834068824938 0.4163263936118507
Ni 0.579119122281521 1.983093633819286 3.4048005713735434 1.53736593847992 2.8846535626800835 -0.7975978525020974
Ni 2.55825453494871 3.641499068694688 2.5827986336659405 0.8195435035352532 -0.7136809019724677 -1.337855018032354
Ni 4.790155897612776 0.13262846477583967 13.583524022513645 0.6151240900424761 0.216626239971614 -0.6560503959431926
Ni 3.1711854942945155 8.388089697015506 8.216986549946478 -1.8608312849949762 2.1509964746960053 -0.5592131378074692
Ni 3.6015121122732054 6.796761530652974 0.5298239530229328 -0.08136693041426632 1.2114174205316943 -0.9398428493486588
Ni 2.7705524340173535 2.3837174953487086 7.068635119453325 0.32478200844395033 0.8777995589636689 -1.4757754193616326
Ni 0.11655641272623904 7.680411635957884 8.582663448940622 -0.3287391933194854 1.0378851835360772 -1.785849432171447
Ni 4.323466629821773 2.440124216484326 0.23262805144663215 -1.2530127274749776 1.4730762752629145 -1.5081787753930025
Ni 0.8508988838549332 6.595124980213845 4.6935745656018 1.3972683269936645 0.3570418969189206 -0.637342020900412
Ni 5.8147216195316 7.542761574791317 3.540833492687591 -1.5193579319382737 1.3647269027225333 -0.5786074831736809
Ni 0.9084536087083794 0.3494953818464498 12.643315416735424 -0.9232348084783326 -0.5301910395435063 0.2931366136245274
Ni 6.368550624654257 6.704553283317125 1.0655994958330062 -0.8221014940704165 1.1675397453121374 0.5118644733201765
Ni 1.6120345475230458 3.081295331388896 12.94924184979082 0.06984735981044099 -0.24502664549117803 -0.4042756330949037
Ni 1.3638615322722583 8.056870387176923 10.496457396793293 0.27274390890078837 2.9423920550421325 -0.8269976458204531
Ni 3.3941631394881506 2.3245787461346046 9.366980876785817 -0.7918730342031781 -0.2434834693737742 0.4980874741407422
Ni 1.7529041703982657 0.34331382336583416 6.42760658513871 -0.09324774101225232 0.4370607979457247 -0.35868406050803386
P 4.7756310749328765 4.839102434332055 5.510958731944419 0.17931619066724602 0.1481467070429771 0.439928606411823
P 3.154977300778377 4.96941189480289 12.735807905376408 2.1053989885718645 -1.4247205096673463 -1.2282879710347878
P 3.3915782913734884 4.287600712387368 8.12058919289028 0.32123311475042743 -0.022723152629128607 0.5336340037867842
P 2.2370158664069555 5.676105689852438 3.242083002743397 -0.009256999821893735 0.9519082651536251 -0.9143688734472704
P 6.79214375928799 1.464247466348089 10.036281762276284 0.8916696320775417 -0.04743016845750541 0.4260166243164211
P 1.8537500418610473 1.8051898525468062 1.5131130540872655 0.5203144038597426 2.063940978537394 -0.6122717081953456
P 6.959892123056601 5.946548873379371 12.683180029811977 1.7785302728022143 1.0456074918809992 -0.4036454557100726
P 4.766340339716475 0.5592332694193262 4.103101428986017 -0.11433412936890633 0.09881495068738466 -0.7216940020849313
