# total energy = -340857.14607528993 ev
CRYSTAL
PRIMVEC
9.42515017454386 0.00000000000000 0.00000000000000
0.00000000000000 9.42515017454386 0.00000000000000
0.00000000000000 0.00000000000000 13.79465998922692
PRIMCOORD
 96 1
Ni 1.180302157770561 5.182126760440888 1.026525174122034 0.07212664276292094 -1.1736430299963982 -0.03092522882394674
Ni 5.0942372330853205 8.771148626476451 0.39003063078556544 0.3650560254726487 -0.4550418079041776 -0.25962665479253993
Ni 0.4646815919080367 2.2337606416375033 12.81616398079363 -0.1638304363268211 -0.6265112488334952 -0.6558285097403738
Ni 2.5902763801631585 4.276652562794834 3.849234245455481 0.5172522199946511 0.5298948484593261 0.10773102223009187
Ni 5.587427077367876 2.491255750200949 1.583530826642561 0.866588777849514 1.0372557774821944 -1.3741188854603947
Ni 1.9761430061190315 1.701842854416178 7.996709467110961 1.4414949009122078 -1.1893049049033713 -2.0226935418518326
Ni 4.895536212633836 1.3751482917139033 3.3571923844900198 0.5797315694757952 0.42730808943433507 -0.2946479080627313
Ni 7.016911361060852 9.352699255633908 1.997287388496456 -0.5189440058747772 0.48979052423927255 -0.19766383993649828
Ni 4.153880553858251 0.7374972824249918 10.260896379226667 -0.888858902101624 -0.5732212791611031 1.2245776120627363
Ni 7.414549030723487 2.7104187721418644 3.2758872671945696 -0.7653999276133141 0.32975889283325144 -1.8958877623784771
Ni 1.3414439539312208 4.668022507450344 12.354414553170882 -0.9580709423209114 0.3869703090472368 -1.1874318562503743
Ni 6.175245431532459 3.992408877434058 12.850070959309624 -0.3370687962311034 -0.6689845875063576 -0.9731466057071112
Ni 1.988546504027871 6.2990353567108 8.656370087582792 0.2876375381831692 -0.8632774540880939 0.6211114179741626
Ni 0.31427127197762345 9.06491171372775 11.153328053767668 0.39077168507119797 -0.04660278746020361 -0.09546068950317108
Ni 8.024214883484339 2.69941019649025 0.4108281676287609 -0.9744115884624639 0.9416781027851846 1.0999472429741444
Ni -0.04055736462882001 5.53290258238107 10.20694493338337 1.3858785970994842 -1.7179126591201572 0.08898870862558222
Ni 0.24954970678749444 6.982405885495304 4.6524832620078636 -0.4950772265595086 0.7703217903949637 1.1838089147858064
Ni 4.287717689348768 1.3672877162914319 12.72604352034154 -3.4655673253894386 -0.049541558373553396 -1.196636662678094
Ni 4.517926987542844 1.4883820484591899 8.097065640882958 0.2479942127599342 -0.027863559179487497 -1.2772134930908972
Ni 7.236564490821872 6.925129246595594 7.108843335417257 1.8278782271077227 0.8157413561803435 -0.9067648358477673
Ni 1.8004676280621479 7.523051361974673 6.70824711104825 -0.5464236993522847 -0.5460740293223498 -1.704065725934736
Ni 1.0711871917442428 9.564642612378643 5.409907197380323 0.9049208406604933 -0.6133171187407244 0.4841340972844437
Ni 7.1191459673049104 5.401148405126004 9.072348157382821 0.050313917763203674 1.0860368035406391 -2.376316128676559
Ni 4.102051651882029 4.25022444111065 0.7773873464064366 0.957860626082318 -0.8746373591856035 1.7124063845899478
P 5.538972379230076 8.317459587464372 3.203892313451058 -1.053318744482328 0.8226956760109897 -0.21612590329642778
P 1.9870573302667793 0.8857831734582527 9.892357918867795 -1.0182866925788592 -0.20640327669202516 1.9990980139200796
P 8.587951978411017 8.636510353203068 5.823208524470543 -0.9308205912453904 0.5126787416913557 0.19298571773453863
P 3.210809431319825 1.0660599099339019 6.100109075165074 -0.5628980428582241 0.10037972407134325 0.9016444839020665
P 8.557480467210956 3.3483129503107514 8.332553965808602 1.2500688143553054 -0.2250275766614318 1.005327818425346
P 4.814960601978312 6.279647822365448 0.2996161056414118 3.1952250839516068 1.205020515866415 0.7076938311510973
P 8.895362683422192 1.027954026920651 1.7625851211130608 -1.7861831613617818 1.574983748832694 0.7205565460463783
P 2.451377938915007 3.1767563629728364 2.0098680792325645 0.3158584807020754 -0.44122572795669174 -0.6849585943371107
Ni 8.12714695085701 3.6029710886078132 5.404499988603499 -0.5620336379753997 0.4273155456335028 0.3709986162093288
Ni 3.199866831720917 8.617980507542901 1.8141218434272965 1.4759859927105419 -1.824823242331483 2.3164091679082817
Ni 8.89370385695414 1.6596370309847317 4.515530171799518 -0.05762870625706205 -2.8821837609833523 -0.31869260771676083
Ni 4.192674472849728 3.770399460076373 7.27247619882511 -1.0893203593879175 1.1163665648724324 1.410631378564132
Ni 2.9542945383965917 2.8915230368214617 9.648509485549187 1.5240741064670205 -0.9765204072753505 0.8071492436359584
Ni 7.930236708978991 7.2390715808247235 0.8302520724101521 -5.2538230530095325 1.1257912006204418 0.046128161816630237
Ni 6.651526556021353 5.143926625923771 0.988431543804286 0.33447172492788846 -0.019983385100462357 1.035031773247682
Ni 9.274470507424661 5.0958866344029845 7.042478023999695 -0.7058639770312102 1.5607151547288216 -0.6571515994271715
Ni 7.374774896091798 3.466645713415219 10.304625306960597 0.2790312845713969 0.42363783967159946 0.09533007746257775
Ni 1.7059333696839867 6.440553989766442 2.925323511138088 1.4790954848738012 1.7583337432496813 0.054640313052699445
Ni 6.461751152986032 9.730148253168325 4.829054971866518 0.9260195703123214 -0.01936014969416666 0.4095463945755398
Ni 5.116367486193189 7.517245469336492 5.224575752752311 0.5605678520631507 -0.0924229311181118 -0.36733273732196736
Ni 4.56038729003473 2.6776003984955272 5.429316409571565 0.44431028041928644 -1.109675783115818 -0.8244203720115801
Ni 3.699239574657119 5.350714425407007 12.624873013576135 -0.187417993838774 -0.2940017898383001 -2.209608113691627
Ni 8.584295020060992 8.947106759044935 8.452292018835719 0.548111885687985 1.1768044584435153 -1.5369733310271916
Ni 1.5787598155168354 8.565350467783814 8.6431268087745 0.17465349508425407 1.3794528960787984 1.4356605536186178
Ni 6.742271903944078 4.001522997857955 7.430190067790143 -1.1471987197619404 -1.395443872190416 -1.5033898386447915
Ni 6.043472403976619 1.8205620486864986 11.559235350379556 1.772376851606309 0.5184231003743007 -3.278583847984921
Ni 3.563376031833471 9.330352224067147 4.347138549961442 -0.025882781304032845 -1.4350545446035028 0.03684262274964622
Ni 3.0378484965742985 8.564021521579296 12.444438877089029 0.46319349047703456 0.22957868636722398 0.46303768162546055
Ni 5.183022149727621 4.048243468324609 9.405088954058137 0.09252243281045355 0.3338847420761669 -0.44958335589276766
Ni 9.236430600464118 8.400005054550705 2.621357698593234 -0.8089420738703229 -0.3234000404947592 2.2541781869925175
Ni 5.880455002889015 5.0027284479812755 5.256455381420136 1.1549927618850624 0.8563807269682607 1.0622448433273641
Ni 0.5741066453820757 2.7949906465613297 10.461787804628012 1.9735489618063817 2.0480888419964858 -0.5543095298582646
P 2.1188680584241655 0.8948944663370333 13.323738489596302 -0.6216564918443552 0.4490508804280653 -0.23003094341329416
P 0.3762124178036889 7.469884088643545 0.8819122641944531 5.715397262715589 -0.7439366155332156 -0.3069753192798326
P -0.11499437483751415 6.985629286927539 8.748670585319315 0.17489852121552457 -0.11290073935648944 -1.4500003672800577
P 2.1234769569632403 4.414796992012053 6.404226632631153 -1.8090965756248456 -1.7370995164612535 0.06273568846632421
P 8.05003037039339 7.758934600701515 11.965046510457498 -0.2579014445713171 -0.2658165856533357 0.6922121905757304
P 6.128374158659618 1.3547805417283394 13.542024972551255 2.470714438353487 -0.7519759408979243 2.9611986462256743
P 4.676495717647947 4.1166700601317325 3.880010189013029 0.38445114216980886 -0.5872921554318724 -2.6140740084204657
P 2.8976776600239487 7.388752394115209 4.850436868033685 -1.4026992682012487 -0.46813412231176155 -1.251136079277555
Ni 2.8830969523757912 6.807230040408912 0.5655269309851026 -2.2825536528114174 0.21667740492452361 -0.17427991379491922
Ni 5.053624260069219 7.041605255073891 9.513708157174115 0.3285515027887116 -0.8505800611260835 -0.27763003334849606
Ni 9.479816258898738 1.7395717314139627 7.0359529923870126 -2.0889323583754087 0.014301761334652788 -0.5719403555661505
Ni 3.4708022047357345 5.827570484069486 6.195747961168552 2.135392706720477 1.3366669112615237 -0.2841256683751687
Ni 7.40292782029674 7.5550591726877565 9.806127217980277 -0.4098924650610489 2.068751769662476 0.9192357146212685
Ni 5.526380378313504 8.138259203162878 11.743573384156814 0.4406274322510605 0.2249969805338125 -0.36067229458265626
Ni 7.335915001047614 5.700010498736483 11.131904686938798 -0.96341523735196 0.3703915787529492 4.662742119959189
Ni 8.863816705078055 5.8020754522735825 13.226361605861525 -0.2747318858650946 0.11657767398744438 -1.0249180818524477
Ni 7.249269593543085 1.4662235199001614 8.328926225424777 -0.12031580087363795 2.0630547192776985 -0.2526512519159713
Ni 1.5463844239386717 6.775203379395055 11.395699566020683 -0.3244030278379768 0.8476297202485079 0.35959654501997423
Ni 7.072651700447536 6.784694505834417 3.2496222006120745 0.07842584550807138 0.10071859546800074 -0.7613067313805469
Ni 8.485811623670823 0.430383469650995 13.473010251360007 -1.0152036827781612 -1.3869129519012695 -0.4276685580975474
Ni 4.272251017564265 7.802007537968534 7.453820804839568 -1.3262560003408448 0.021577469060459615 0.16380498240552435
Ni 1.3847807954090656 0.3602075699321081 1.7246356955962285 0.8629648079436816 1.0264936538696838 -0.9122536268764805
Ni 1.3631595004220767 3.922813566978989 8.30288170736133 0.0273069153450691 0.024916817846337733 1.3274549057449525
Ni 2.8145666839144146 4.939429137984493 10.46762291523239 -0.2443329618582631 1.0030019985056469 -0.20850335375416348
Ni 4.255314022319444 5.834988077423786 2.538686877006757 0.4053102450070052 0.7512380342906353 0.5220013046438623
Ni 3.592782501039838 1.2272582569968817 1.089105345144315 -0.19525034539899921 2.061370903817372 1.754498428663991
Ni 0.2823087019863951 4.704413013093222 3.676649374210382 -1.6602235319388052 0.5800701837621365 -0.7963603805505705
Ni 0.9811958558524501 3.144748552259752 5.056515896207845 0.6279127571667121 0.08588692977180692 2.7762604813859606
Ni 2.091356044445516 1.6453579281489479 3.8554416495001327 0.7973052609623431 0.4884563788088813 -1.6481491172727745
Ni 2.432914069307548 3.263873027996699 13.534465059426118 0.5964900198810565 -1.9344152290297139 0.9296425117768894
Ni 6.135876578367396 9.11958701112074 7.297430226988821 0.6448272735338637 -0.14866375588871172 -0.23199269512535528
Ni 8.390306574802837 1.500879797871896 10.464339192837679 -1.809899016921483 -3.5169243397051755 0.12671141998733662
P 8.687198811982505 3.9387891968843713 12.122430499158998 -0.9919899636658593 -0.576652159219523 -0.3408426614512388
P 3.352639094338226 7.495624174349502 10.638318043824965 0.19693621774185438 -0.46384243691494315 -0.5331300675671721
P 4.42362835792435 3.620699796485114 11.28223866315108 0.03610471614235718 -0.6002345745251533 1.4456901699404778
P 6.659010125428358 2.1668514990426315 6.132678624841203 -0.28156253563368283 -1.3409028037197424 0.0962567030419052
P 6.092172156024471 0.18635501596000373 9.651696128894915 1.029331637539111 -0.9640587844732301 -0.2378455543617065
P 7.960840172284463 5.661565310309313 4.825716583599564 0.7052847074889724 0.05000769937669452 0.8870848409203368
P 5.464702194183226 5.882453134770985 7.335655809411982 -1.6011557792423714 -0.3385721202495072 1.091065367103482
P 8.67743435618193 4.495202949960616 1.8195290522041212 -1.5331033065488242 -0.4267514455999166 -0.6799883948160289
