# total energy = -340866.1841474578 ev
CRYSTAL
PRIMVEC
9.24634903364672 0.00000000000000 0.00000000000000
0.00000000000000 9.24634903364672 0.00000000000000
0.00000000000000 0.00000000000000 13.53296644602513
PRIMCOORD
 96 1
Ni 0.10465849761833919 8.947201693176286 13.177793698710428 -0.07223925708138526 -0.27546079361131914 1.4616911733544247
Ni 4.791957259512388 4.493096773067594 8.953708348838411 0.005178715987462049 0.7811613042126289 -1.2681012463769836
Ni 3.9737755917925575 2.5790193509263286 12.071608607326063 -0.6231844984531073 -1.4314064063279541 1.368852751965449
Ni 3.1757602108413714 7.635154042473063 6.178096827916581 1.3027268068706532 0.7007742212131286 0.37571530495870775
Ni 1.5610610706786179 6.145132669751111 5.477495430286057 0.12372996876150948 -1.7229227107402392 -0.729775236431169
Ni 8.61183662160421 3.045922980761 8.378475420905277 0.18415294993425704 -1.0213349924868798 -2.3365648169205504
Ni 1.479748679186894 0.5342854721995548 11.444044118996555 0.0970786847225683 0.46033159554820724 -0.9889187809397033
Ni 8.81807643195478 6.760384719996655 9.146796152632483 0.8405527587970685 -0.9930754834205542 -0.8745041760418488
Ni 2.4991678825476016 3.2763419932665445 5.299604000771795 0.03462170383892747 1.8094878975259934 2.1167038720617226
Ni 4.834434985975086 3.4459570159552166 0.7974152929129997 1.390371085653199 -0.09802176536212795 0.3905711390246177
Ni 6.140722161365672 6.002350551327731 1.2981818260180982 -0.5776021818376181 0.2963954868814573 -1.3646325432365143
Ni 8.767785540742192 6.753218799663918 4.616676998903886 -1.013873394002512 0.10583071988358547 -0.4797315973413737
Ni 6.718128905905549 1.132622251920314 4.607461163038545 -0.750489843270701 0.2049122939687955 0.2862799957140102
Ni 3.1794217649726795 8.369045994382276 11.109035956488794 0.25087410541089056 -0.3468207334115447 -0.3475460416133434
Ni 3.0530426693496544 5.85972562083423 1.4462278908226742 1.1770379146105598 0.2362725534476318 0.1457272989682071
Ni 4.315326470722828 4.57054419075405 11.283422095166745 -1.069726753526706 1.7294491990048475 0.09165905636889377
Ni 7.230635528102875 0.23686001909107313 6.700252939738737 -1.861038773020092 0.7587927067094417 0.43410068687613623
Ni 2.8220226441710405 2.993209546158507 9.592234383689803 1.3249699345395698 -0.08687834715079876 0.4048829276615995
Ni 6.009109632312544 8.029455341401091 8.227691512216154 0.1379417414855173 -0.4761078845458575 0.4785342345991629
Ni 7.403838134132323 4.1983509118461155 9.852770603560238 -0.8048902723984526 0.9088394589886091 0.680904221762079
Ni 4.891327770242608 6.212769711343328 7.049754754016259 0.5655565635269937 -1.1669846441396161 0.4989084273801408
Ni 7.2287400265955055 6.6166224885987335 10.8115809150641 -0.8774216067989599 -1.1612891364167355 1.5151526356076743
Ni 9.018000986063724 8.445596516233538 2.3071951884207906 0.6681890881882557 0.19935871114041795 0.3327465147066656
Ni 6.517954700378562 1.8811141886106777 12.207100904342566 -2.2769658743109944 -4.129232557565411 2.703298487205938
P 7.155490451271713 4.130556682324019 1.0737673924339457 0.7192285712635743 -1.545649518644951 -1.4020289816071017
P 1.3766703825812832 2.391836265486431 7.0983655836489 -0.5102151106422117 0.3463921305145583 1.3352733733481068
P 9.10104244478412 1.642484418356139 12.144984857628641 0.5952016400869362 0.8068476532351395 -0.9938771533862433
P 7.186336270923338 0.37823391858971 9.003076454439118 0.7012465328638569 -0.17118019182367294 -0.40852900905461903
P 7.624141641032689 3.0628807844903405 6.324726352082479 1.3088558025865267 -1.4246441479034562 -0.3991897339315641
P 5.788972559690874 6.030524176171406 12.479532551965344 -0.6516926331951293 -0.07768356802540814 -0.5217740191244047
P 2.024996622543213 7.764177593857588 0.10466774396715564 0.2823035275647654 0.5523117827019455 0.7199387099567214
P 8.141955667450649 7.000743557479867 0.4358423702556228 1.4588318495287587 -0.7191324120053422 0.07872075104067087
Ni 3.6343883584853334 1.4478580221190116 1.6815520913753375 1.6998419176613757 1.1549233420997076 0.8468082527884772
Ni 4.734481955269431 6.814198470108303 10.43901870683839 1.609524720032357 -0.48349929191392216 0.25356245087633106
Ni 2.2957574549348614 0.6155377624239721 8.52705407540168 0.2841084419839881 1.008186885140696 0.3950042350953068
Ni 1.5275985343119416 2.1022313742068897 0.3353955845231695 -0.9031223539991735 -1.192954071620184 -1.2608774749350349
Ni 8.930549018957887 1.8000329558393644 4.796908679303588 1.0742848052110336 -2.369801467486493 1.7828633529599294
Ni 5.580596842763709 2.661570753159455 10.215400383887332 -0.4414782102871299 0.13838062879514876 0.8217469389444751
Ni 1.2068149548233833 6.588864949451796 2.7597503341621183 -0.3069372669530456 -0.48388444316748286 -0.7636960575483299
Ni 4.050640489503577 5.396714703851279 4.689605725923748 0.08297952631702483 1.2802620501092339 0.5225160394967516
Ni 6.383429571448258 1.4602573758818502 2.395064165858248 -0.4197752713923996 0.2865761867981903 -1.3973470027504
Ni 9.117658133607254 0.5677443100267042 7.932889248266895 0.993398928198244 1.1093217422105086 1.113547093145766
Ni 0.9096798370677378 5.646079485081697 0.3768525140765347 -1.4871736338962451 2.288000277748285 -1.3675286338373867
Ni 7.68583328033594 1.7377772892583117 10.495897621582687 1.7520875052296534 0.34493122969831563 -2.331434180562204
Ni 1.6564001733248725 4.113635863989944 11.469053643275247 0.10892041455250275 0.6670513750393867 0.49775837293609765
Ni 6.032530633864573 7.646138704866987 5.5531444331277156 -1.6940669628508114 0.5886455841359733 -0.39616817349642097
Ni 1.5082089408438788 8.166708143232244 4.486503201726595 -0.92230586890616 2.286198705763172 -0.42734768442301885
Ni 6.989620199853696 8.448398159924917 12.659223320959285 1.0025440850326217 0.12808027531040522 -1.2829192852264226
Ni 2.982798157391202 0.47730762152292283 13.262360804985537 1.5496388423100023 -1.7408394431196599 -0.5824250571475582
Ni 1.2375035865451294 3.888302343333438 1.4747824652375867 0.26967992526348394 -0.3583099649980668 3.290648749569255
Ni 6.464131703918096 4.108282228025229 3.090794586932274 -3.249681306017958 -0.6474441423314204 0.0010960612776561769
Ni 4.528353101104659 1.8765649849929917 8.43210701794524 -2.042715750610031 -2.366707144831885 -1.3523030751368839
Ni 2.626074020053163 5.291629949552501 7.270152573674552 2.4197222635763356 0.04553320854510868 -0.05843963219413162
Ni 0.7954939016289445 6.996998786209211 11.897290891629352 -0.5729289447316649 -0.23828084212691222 -1.4890597951753646
Ni 0.13400086095241207 4.139793784791637 5.301363580951562 -0.09888822712748131 0.7852781545944799 0.9365474664268385
Ni 3.4127903627506666 7.735911505525748 8.683198092499689 -0.5016973029791876 -0.4550248386233131 -0.4988539199931215
P 0.297743527507767 5.6016692717163625 7.23408719011605 -0.14004156143733948 0.7833426281346638 -1.17222300972042
P 6.423475508172235 6.0341672376050814 8.894758251959233 -0.24724807862252907 -0.8478410649283656 -0.9732072837417176
P 2.980477323838277 3.9629573636773294 13.50809269576598 -1.399134947888758 0.9106667420053349 -0.043908271347175995
P 8.931066814491608 5.047942426495373 11.03597130814133 1.2429985377720851 0.823882240119923 0.21221885493253773
P 8.862727050389342 8.756893341836435 5.668093192343864 0.9502771573081052 0.029370739852633287 -0.44429408246937035
P 3.121659823916414 7.299123233786205 3.458998990960798 1.7422106124355738 -0.0061691049251893755 0.0569645903105019
P -0.06637121643924768 1.444760495265506 2.3703939825811196 0.6146528068330124 -0.12623782278502776 -0.27364868010324483
P 6.658378999853751 5.971181109467531 4.067576101995758 -0.2830332066419384 1.2139491858146125 0.513323060143574
Ni 6.1447073377055546 4.32820663462412 5.553089879669699 0.14860230652315698 0.5562931359471968 -0.11699033604483076
Ni 5.789508847922228 -0.022441813212367906 10.648495663909593 0.013571053816215336 -0.865567021453219 -0.19377761750821465
Ni 7.082619976249393 8.112395090284506 3.5892134720728794 1.15244068488717 0.8642339044640923 1.2139820959350769
Ni 4.814093018578931 1.8622146516298856 5.961474292480038 -0.004179071078354093 -0.4273998778171929 -0.47503984829265933
Ni 8.462563566311694 3.314455443087887 3.347582336992527 1.3501266363108555 0.0203929618340552 -2.252172726526715
Ni 1.914798637348948 0.634911637099047 6.005592321222773 -0.22148151118138631 0.5687665858238591 0.16504682523242545
Ni 3.940904821750133 9.204388885505407 4.519699443247358 0.2141145292933538 0.7179533040955765 -0.674940033758844
Ni 3.0094646273777985 6.198687522095899 12.578499921887166 0.8654626346648707 -0.8546570594089344 -0.7398742725383838
Ni 0.9844125267416871 7.906155279933938 7.285729897525599 0.36671952921800066 -1.3554056253216076 -0.06704151493052969
Ni 2.0058012024002956 9.170242119326316 2.1184910786005893 -0.29353642016610737 -0.7935589065460333 -0.2686378571522148
Ni 8.468814098111604 8.476950885070066 10.736365565981933 0.03819065213710842 2.6153217647846376 -0.019213853924289488
Ni 8.662256961700228 3.8265922113325552 12.852434101192616 0.5007192553366344 0.2518290131249921 0.18442522975903722
Ni 6.162071980782819 3.8615064244634114 12.285158581050904 1.2585688814065163 3.6784495249375873 1.0456396306705154
Ni 2.1090366869357853 1.9307948208013797 3.7443551849591876 -0.7735518672964872 -2.1045651798166594 -2.610941890549387
Ni 7.667812146492709 6.682410260427663 6.750270139026357 0.2156034551340545 -0.2802808407077818 1.371249791442716
Ni 3.645280557391093 3.9959853216496333 2.884511318742268 0.009028942971487675 -1.43924004343976 -0.20429548632040295
Ni 0.7181879530793815 2.2848375169826523 10.035059596571596 -0.12923855728456454 -0.08282346035513478 0.5722198344797822
Ni 6.999523039436098 8.431810210148234 1.4202983548367472 -2.2591702408904704 1.3934888053465742 -0.6408502911639866
Ni 1.2100326842115028 4.478672468913958 8.73391893893224 -1.0449667729732068 -0.6569721364265136 2.6507654503042284
Ni 4.846353529599471 7.843030456564141 13.093212722912092 -2.1671843973097773 -0.8450120801200027 0.348259008519968
Ni 8.309490261655622 5.57618633437827 2.4082993895540925 0.3012669560411456 0.46108544299509624 -0.5402381393668632
Ni 7.976307328404226 1.7988586695396773 0.2905212044472501 0.06678928971040757 -0.6035140166073735 3.812088525282693
Ni 6.195294112080267 3.1509245179204286 7.979361397418294 2.4943588172453044 -0.18845003464771415 -2.307074520770917
Ni 5.121145770075085 7.611196752689682 2.6793107979986663 -1.7750130036775755 -0.3284095778942086 0.15357970513309036
P 4.235225350926056 3.853711752411157 6.443492004090052 0.14695731472056625 1.759242885327512 1.7417082188778585
P 1.692756816871093 4.647797435115359 3.584314756469933 -0.7258699878394919 -0.5882552906760901 0.769384623292675
P 3.147068790463975 5.487291936857069 9.674852359634407 -2.4872204064283103 0.6592503909377291 -0.08742419235193975
P 3.9716581779135938 1.1381423221637252 10.524033336396213 -1.4775361108064813 -0.540511704743224 -0.7268565201224773
P 4.594029916747793 2.110858217652623 3.6390013619098522 0.15179638798042244 -0.5695867677323093 0.16990980975168157
P 4.648121057323934 -0.06387747616345532 7.104807514869309 -1.4340767540712658 0.029197961720194874 -1.2023787073681937
P 1.079538963365164 8.421685458194236 9.634551223683095 0.7335617000567947 -0.45528940513860944 -0.37674477466448664
P 5.428808780593123 0.4683867441848269 0.29885493863550244 -0.0008044981791663564 1.7990736441712047 0.8728226745743679
