# total energy = -340895.0535414869 ev
CRYSTAL
PRIMVEC
9.06229070195649 0.00000000000000 0.00000000000000

0.00000000000000 9.06229070195649 0.00000000000000

0.00000000000000 0.00000000000000 13.26357847270194

PRIMCOORD
 96 1
Ni 6.381474591458269 1.992978904729483 11.243362579176948 -0.8673397970829255 -0.2717725461264545 1.1098457330347788
Ni 4.897343292678952 0.2438209232072878 5.866825307194135 -0.5184922630493393 -0.34313274303699615 -0.2737201567711286
Ni 2.7912398168884556 1.4948610506127096 4.974889311630253 -0.4659972784744168 0.5206285926660518 -0.2004447451157451
Ni 3.445455623142212 4.1805614335048045 4.880227344800803 -0.6782647272567027 0.22917116651616018 0.32037616606677083
Ni 4.766211950593487 4.648275303330165 2.5986398652500173 1.1983814132833426 -0.5665078716966695 -0.08550692072456888
Ni 7.132249101922159 5.8469082053534 2.7515959213053813 1.0256711579683884 0.4247822376886877 -1.2183295742704954
Ni 4.976864890937415 4.5838605431682105 11.79319076854416 0.7732160812236232 -0.03515469352426204 -0.673930104437091
Ni 5.425122023274351 7.746255525671892 12.509981690008708 0.271691556376874 1.403685543373918 0.15214194424529925
Ni 1.5157133808227066 6.662215285754443 0.5094303112228745 1.269359030043485 0.06003577303665789 -0.7190840752659099
Ni 2.7325705488399894 1.3682699160175564 0.3351053744047236 -0.4328184777296029 0.8850176739786629 0.2659875640135613
Ni 0.7862452213178448 9.120289058383737 4.6690977279818435 -0.1008234964769812 0.5078728356622801 0.1379581965457495
Ni 8.584789256367687 2.461354321754031 1.237324350885287 -0.052147628537832766 -0.7110154393251626 0.5748480161312487
Ni 7.177886796375677 0.7109819933182593 4.710095529750651 -1.1298520009533768 -0.9303796470532298 0.15483517480674625
Ni 1.0483348157421395 7.444934369877716 2.808124676361409 -0.6041081985479466 -0.1768985823646889 -0.02070997885384175
Ni 7.813225851726598 3.6759912286233565 3.876240659588286 -0.33140954106279696 0.7671786167802916 -0.4408040670382409
Ni 7.389146910176395 3.8938215029639465 12.60665911022308 0.9042708657813201 -0.21825169139017897 0.08702644269288883
Ni 7.801127694042832 8.94055665288401 7.041925253507105 1.1683082480470461 -0.3145868130785034 -0.5834794665540016
Ni 6.837933096607047 0.7115610736748081 0.39732071668664126 -0.8508847368506959 -0.4372680288605244 0.08174025459328503
Ni 1.9212327516340695 6.544224264748723 9.438759692530542 -0.10705225099551241 0.25925153084130836 -0.5301586436436739
Ni 0.1826459318632701 4.773380222299748 1.2924683879682213 -0.7889640880864993 0.36310661505576175 0.29134301205921437
Ni 6.4644489223590655 2.1592447466950695 6.782861557847312 0.23735061700315896 -1.1890585932205198 -0.2682388219415832
Ni 3.514646210344875 4.359777288451741 0.5398977315470858 -0.6509048471865112 0.23292292024910852 -0.6337720441609667
Ni 5.8951014656996685 5.5980214618126105 4.6311376059550575 -0.3141407266800203 0.047807349291266045 1.8095781432469544
Ni 5.595529331952658 2.8568961108351867 8.84331827689389 -1.4528656046429946 0.5031533186994238 1.2096724128161296
P 0.08336944676222877 5.611460838475551 12.412878342145543 0.4612057706230444 -0.2870248442998347 0.03976133905833798
P 3.838904023141008 6.214601576035894 12.67324247647771 -0.037777732969405904 0.5418566488068925 0.6234179546201521
P 2.4536241880429803 8.424604211260384 1.4240836563610375 -0.17524639147324658 0.6886476131529237 -0.5236717503677498
P 6.523752550735519 7.764389168761942 5.607814172818661 0.25042236258545253 -0.7430521560457332 0.4328393036652094
P 4.670505101680936 1.124829609007061 12.601128394392067 0.9609788599963256 -1.3531163150667986 -0.3945064695232819
P 4.078175676567584 6.21896960000861 8.340654777912565 -0.44654456906644385 1.3397074978600605 -0.7814299844929832
P 4.693351135778895 1.1940655076617228 3.8542365122684714 0.58351211956415 -0.8331076153729329 -0.11212272353988433
P 0.17281969038274 5.465403904101573 3.5793355579059445 0.5923770261539475 0.2845684123395422 -0.12166383026110014
Ni 1.4986037765478373 1.03226737486325 2.4295157768923263 -1.1431075804117024 0.49539912867530167 0.5584232949163221
Ni 1.9908945779375231 6.282876871908175 4.89022848848605 -1.0582750600463386 0.5114939773546352 -0.1239276865946124
Ni 6.0632885132300185 5.610862727309162 9.135780137593198 -0.06685485284102034 0.8975816266866027 -0.14205242121978115
Ni 8.44803929423433 2.551850353686682 10.153136419832576 0.740886258742666 -1.0660228223125576 0.49865003151243154
Ni 2.3640887588927106 5.279590701743564 7.318922315639111 -0.8597439870135386 -0.7116561582329549 -0.8825676697762737
Ni 0.39441534638445735 0.15960233983459546 9.370014970015552 0.6841106445145186 0.49687134234545394 -0.32088987247839573
Ni 1.4824638373457495 1.0151033968459817 11.426015760872536 -0.5344030207423248 1.0628868477867373 -0.08117718300096342
Ni 4.123151823821915 6.8689714412264475 1.6376138739069108 -0.3790019461297795 0.4785080093469178 -0.3966227445353363
Ni 5.774237698637204 7.951443904904727 7.8575295770332625 -1.1089031666158518 -0.41627214333514756 0.3223572010525416
Ni 5.522704766299666 3.0980255337937264 4.512640909145027 -0.1878496820595539 -0.3250643155710595 0.33808129665601777
Ni 0.8038822508939839 7.391820285844342 6.926386488283578 -0.18198319597644788 0.030059538389541778 0.5624586413279603
Ni 4.843821405577586 4.717076212045636 7.033542634887267 1.5613869839848658 -1.291805274862143 -0.2792464859059965
Ni 8.241364699375925 7.308592210812351 9.243519895698636 0.9013079264982542 -1.199593945534205 -0.7465473136831853
Ni 4.692608027966108 0.2717753704036276 10.390408931996951 -0.21649177127627875 -0.23036261572110003 0.0018697062188871023
Ni 8.561580730653736 7.240643157394464 4.759993406921126 -1.4560018362791312 -0.6784565315525348 -0.06851347149036588
Ni 7.477042064764296 6.299832417246247 6.991364922908402 -0.5225000986571517 -0.5852460715361212 -0.16537798331959908
Ni 2.3235259470630942 5.234958921524426 2.5013779273048575 -0.586777677689299 -0.12475686736412707 0.3884211825611504
Ni 2.234461757013616 5.27467894034686 11.586796198459108 -0.614392096972458 -0.35155747676558163 -0.25614615244310723
Ni 1.2290550108954468 3.341438653933022 3.718815081907729 -0.20984032739803216 -0.041341024840632026 0.38310979765056596
Ni 3.472334376468092 2.5335445270790355 2.654811566064292 0.6036441144273346 0.7008366990199479 0.15036479774021844
Ni 1.1530767681833152 3.294804107535523 8.409374126014438 -0.6172683900789885 0.6246171171345759 0.1376589201377758
Ni 3.766768191558402 2.5359279094541898 6.890653877237068 0.5078406968727641 0.5048962695324595 0.21946010987598336
Ni 4.026475309836583 6.694658285385817 6.065686395269813 0.542797158343291 1.5278808818076204 0.00400475028401891
Ni 0.7422351142201352 7.622247143840689 11.396344915874469 -0.16328150580188652 -0.5976267045886612 0.1337081630201439
P 0.2552040661785078 5.507480118427961 8.204650642279114 0.3290032456141495 0.7921630546397712 -0.8132507285480058
P 8.468057893727543 1.671747896926891 8.042569766020167 0.3515351081680784 0.9397556889514912 -0.007429973915483978
P 1.8263233842767037 3.0532940683801906 10.532647017196442 -0.34250847918943594 0.8132556136440124 -1.2470349126249878
P 3.827059609588437 6.204125568333697 3.821568767835183 0.9508682539248848 -0.057811511691829465 -0.0943070355147021
P 6.627624523298312 4.014322778410417 10.414150320386412 0.8099923695117083 -0.1986452300131611 0.34144507092192805
P 6.3892137874597195 7.649651510009759 10.063885546600861 -1.7796137356743804 1.004751891317218 0.8357720495789734
P 2.4787629816120944 8.394463033390565 5.880314526454274 -0.34084908920914203 0.41619192491651547 -0.36344548645241925
P 6.785326500836065 3.9317471882872135 1.5841354857994643 0.8839311257827035 0.465215920223702 0.6502908677515961
Ni 5.254805337500043 2.761026140695439 0.7254191281542203 -0.6723056814597905 -0.35854779204048576 -0.9055240214621307
Ni 1.4090683473975676 1.1434435534883014 7.177333090432247 0.09373496506131598 -0.42607987345418874 -0.5092344918964972
Ni 6.925936998679747 0.6784701202798477 9.22727211524079 -0.5466653830494457 -0.30109032125396534 0.10289760539719053
Ni 2.9763642851760777 1.6711316611797031 9.084396951026193 -0.030866607671869425 -0.2658883194315356 0.9460057836262612
Ni 6.448898032032966 1.7999068077612144 2.6144635305171517 0.7540122546016627 0.34067888217986486 -0.00354709392131002
Ni 4.2569474792849284 6.803451081635714 10.537633995603466 -0.19902138240565723 0.44325844211600435 -0.4137774019377519
Ni 8.108837764568884 7.183949468653161 0.3074110149428589 -0.7577778922916821 -0.1713138891880598 0.7115188613241423
Ni 7.572105491058458 3.9729443604448176 8.154248901762408 1.2063680310332447 -0.10477116827081956 -0.41345035761563637
Ni 3.012667820517776 8.40916206841908 12.339013425554652 0.42798814622049514 -0.9588474154756195 0.1865067948784143
Ni -0.09671095068885092 4.838429342789691 10.244721739071286 0.49077577097067737 0.43046206168228446 0.5003281905458028
Ni 8.741113765764666 2.162634043304604 5.704226974153358 0.8973576836012546 1.3624098245535827 1.1997713516523338
Ni 3.623366508271573 2.7589055647418803 11.612475104536053 0.02189474319056229 -0.43598222016956534 -0.08733240396908186
Ni 1.1025091877522926 3.244580894139694 12.607481966191383 -0.7404723111336989 0.1550254364406814 0.025988196533645567
Ni 3.094092499760202 8.470749393976291 7.9352269362342405 0.9111336543394243 -0.5577157273263362 0.7617620737504107
Ni 5.639490502682209 7.8478891125059285 3.6185426510917464 -0.6641195461045724 0.6790391435288822 0.17027362084900355
Ni 3.1345103149434212 8.54680013501162 3.685577319408291 0.5704712272197917 -0.8171143252684702 -0.03764532115659969
Ni 3.5902347745698138 4.581159980629063 9.544895425235211 -0.2672533180998623 -1.8243766417123677 0.534159537272951
Ni 7.249922942763885 6.160961879159331 11.428164429926335 -0.4690520061403406 -0.5452013969094094 -0.08933066534603325
Ni 0.32546853479354987 0.020481682532644162 0.2091014762274788 1.0277275262767849 0.5902190992706803 0.5424829695369818
Ni 4.574227328473197 0.4166931748743468 1.6705480496779543 0.2936179241363201 -0.8876260581357873 -0.03419875736889594
Ni 6.0988489407589315 5.758532749374308 0.3751697602623493 -0.5040838009334931 -0.8444194408413264 1.0028613591627245
Ni 7.5770625639071625 8.678121785195483 11.589422450216977 0.5525542377300549 0.607109961488748 -0.3866566344615599
Ni 0.08350356866014617 4.986479981051629 5.813519102604286 0.15220982136875721 -1.4094368440353984 0.39729714489454154
Ni 7.989088659225599 8.691606473310422 2.5117633121030565 0.09237022350330543 0.3347375769947654 -0.12369114510377408
P 8.69378142300638 1.728505021700994 3.5855033527520654 0.2593438334447985 -1.4243037338449018 -1.617686172797227
P 1.8190644896664439 3.20494243593086 1.471978767353152 -0.5369134458690044 -0.20981075971167737 -0.22719707350892485
P 4.899572616117309 1.0071648304557352 7.980629011137363 -0.3092551164529448 -0.7639696229246907 0.9310589325084415
P 8.402238478553615 1.628176404684533 12.373485472006545 -0.012763727423571566 0.2931831505917467 -0.4765799390862695
P 6.208004228624822 7.666579868476633 1.5282954648138236 1.171729100803137 0.6395102321963244 -0.8060776078383344
P 1.7879083352718461 3.2161524891554434 6.231083163586056 0.05348203107854015 0.2688895681517046 -0.9814844361488452
P 6.913603221445585 4.040177492921118 5.974592252170773 0.297708549265926 1.606363548695556 -0.2812923126914317
P 2.4256035861267216 8.588948847661207 10.126197855390057 0.2473028431198644 0.020396047157848745 0.13445583981944584
