# total energy = -340868.6391932047 ev
CRYSTAL
PRIMVEC
9.26374980287302 0.00000000000000 0.00000000000000

0.00000000000000 9.26374980287302 0.00000000000000

0.00000000000000 0.00000000000000 13.55843423068413

PRIMCOORD
 96 1
Ni 5.05839644130439 8.684987721159647 13.581483460823158 0.6938070458666761 1.2499292034536473 -1.0255089213589113
Ni 2.5095220161819696 2.211618351702925 1.9359143371261622 -0.11379856858041047 -0.3159649243729526 -0.30648423857602697
Ni 3.6785887072052446 3.951869324847257 12.280198975109803 0.027397932396978623 1.5220789304138627 1.2105275617275733
Ni 0.38321075680718014 0.3639004704521031 7.604450981002733 1.7074490405846723 0.472875750761805 0.2892038542290245
Ni 6.126478996296628 9.238468977507353 2.343439657903681 0.6650510567799063 -0.4299948922378788 -0.13411876819500126
Ni 6.8956851930860115 1.8012064465031263 10.683137781860133 -0.8503175514933161 -0.33984224521118245 0.4615855225599664
Ni 0.8914246999986918 8.191211331954408 12.434724805574247 -0.5781588256720366 -0.4470374495424624 1.0197902737075792
Ni 8.267581684898163 3.629083228538163 11.007930406365201 0.6628815599324132 2.203394271571431 -0.4891336073815641
Ni 1.5176615941374756 0.843363439917725 11.25415161098578 0.6122030597409392 -0.005920479249493029 0.12967307371882184
Ni 0.5901342086108363 1.0233664349462053 0.9310985610554866 0.059961982375928986 -0.2960301331222386 0.5253591653725016
Ni 7.616330813682873 4.699481720968047 1.5049044843559565 -1.4202673589919992 0.9333726682432828 -0.44040194650381576
Ni 4.350692279109084 5.3965881534486915 5.53415946911963 1.0779370572516405 0.7102420514942478 -0.2534999730695118
Ni 8.237039101970511 5.083093598139426 8.482834174102562 0.8260990452655838 0.5856811021910107 1.5051376745738336
Ni 7.563962836342863 0.7949103232223088 8.57901783501285 -0.4688463178874377 1.193545682457596 0.1218530634537708
Ni 7.29372999236879 3.067449872409951 4.8409308422845765 -0.2310917805776407 -0.8085803196555301 -1.491713687858444
Ni 5.545771579431978 5.573979697422484 13.561010573874384 0.28214591894097857 1.6807969852147828 -0.2885171125746451
Ni 6.237467982058288 6.317256658660004 6.6232679569207535 0.5749513744783324 -0.779186182764129 0.6129970163971443
Ni 4.780131926296567 0.6859232337817492 4.388038159853559 0.7620605788274359 -1.6499370624111325 -0.842185152194169
Ni 2.4807395457069275 4.215015400262137 0.8332187075658685 0.6234164119582555 0.49649184751884823 0.017598944028685816
Ni 2.5426955040387846 3.690974340621766 7.091074350075224 0.7767595756005075 1.3373022308526774 0.5865815025180929
Ni 0.2190237617278594 3.4308111926265705 1.025721280132802 0.5444143822317399 -0.7886185318216224 0.8000825665971639
Ni 1.6925704531781138 0.09991417293484472 3.111931619587295 -1.2433687766273103 0.512349126266079 0.21725333203265165
Ni 0.2854531848142697 2.827009247633734 7.50851188308586 -1.0498960919540241 -1.1387649871722905 0.8462356681144587
Ni 5.905362553500113 5.453671379411745 8.858593170610378 0.5626154786207989 -0.9848163287355555 -0.6653032820000283
P 7.328617273929462 5.35350245335876 5.1584690243599685 -0.49292367055161557 -0.06429634808522475 0.12982631146723447
P 9.211798641975442 0.9459400145308854 9.983780258190098 -2.0667928461638922 -0.163188431867448 -0.7733387228444165
P 1.157561113833059 8.11539680399569 1.1931459557499493 0.4199681041294961 0.5738141755500955 0.3981021572943402
P 1.8776231181956335 2.203040119433891 13.03164841637728 0.014830894365245425 0.31465083354721946 1.1121234733253622
P 1.6082610666981156 4.697943938509451 2.9097891890299117 -0.4553068886401062 -0.1193063857725171 -0.738658912074044
P 0.8617038116739167 4.068083065468241 9.278090961565542 -0.5512098078870185 -0.3294107654652133 0.9331962905664185
P 6.608101345829109 1.2487442026279854 12.76081898691927 -0.2446389231344561 -2.2026843899886 -0.019451680966708438
P 8.701051063227148 4.690829378701008 13.044962277518808 -0.3587673642504596 0.34854337252960615 -1.6437075365616531
Ni 6.055741003201224 5.572377068715634 3.3110234973518136 0.6677604852912693 1.3447766848528517 0.64587551229272
Ni 5.339097322496613 1.772442503527586 0.8993007400366321 -0.9263185896099789 -1.1580392620208702 -0.13337032006475094
Ni 7.91589268936727 9.17661492042275 0.3589286159609686 -0.9678015393451139 0.04493414150852907 0.47582789141159343
Ni 1.6659834913939586 5.598417469264506 12.663414363791857 -0.1711367401802472 -0.14175700146654943 -1.8865402597253056
Ni 3.8034269988440164 0.24636479274171139 2.282318363424351 0.3662400184784209 -0.18445094079065008 -0.06643370614320171
Ni 8.772011386316565 1.7996130815460272 12.364234154597183 0.5426125531363107 -0.45230795391278233 0.4373425908522017
Ni 2.921795935081634 6.8217697338261605 0.4933956490904892 0.5792769984368799 0.8570546131068336 0.1735234952448689
Ni 4.779733585057292 7.3586874056198335 1.8509027584150701 -0.3663634314301626 -1.7301775925304397 1.8332268930141462
Ni 7.953410875857106 7.3048001733207295 3.2251587272886937 0.8791792129200149 -2.1444687008798167 -2.332537183818396
Ni 7.472863121295691 2.0438333162204803 2.034090630607799 0.7410299834093819 0.7802588470030175 -0.3194940205721336
Ni 5.630423724652748 7.270644727990353 11.63334004765126 0.3166748059557836 -0.2974272705800813 -0.23009830631611985
Ni 9.307752561891915 4.615478038229817 6.228256109306313 -1.0555756588373046 1.4984558916782837 -1.9688176177689833
Ni 4.5171618621269465 7.950678069680686 6.489175179281156 -0.27015789334116697 0.15837326986699177 -0.27587679810281523
Ni 4.271635438737662 6.933749940811131 9.437131017283443 -1.057883738145191 1.9756179285202682 0.28534617104583115
Ni 2.4449444166706997 2.499498638951846 9.686063721456016 0.8176244321356693 -0.9812561221881229 -1.4591496378794935
Ni 2.7659240817784307 0.23259144961255399 0.12328753993052474 -0.4519387434988216 -0.184168890773857 0.7782271612849694
Ni 3.2356795678804233 8.383072853038602 11.662151235750528 1.4752313739327043 -1.122780438818576 0.14853134407590549
Ni 5.238307725210339 0.027714360128800238 10.352718355756565 -0.07266348910299744 0.1486976944504407 -0.7434825587149325
Ni 5.918257693152916 4.852398438100815 11.142402997744574 -0.2491319259088032 -0.685405194956226 0.33411177048530843
Ni 7.738640101639736 8.790770479561482 11.424878813389007 0.06327767701272329 0.023854180909778273 -0.680380745158441
Ni 0.3100595569017514 7.8235701593530225 5.047954342585539 -1.0259470373375945 -1.0406676313772205 0.22707751721192507
Ni 0.20758395716087225 6.20924133656828 10.82518904691045 -1.5977148718816225 -0.0907321736792502 0.4161065642915608
Ni 2.159046571868402 7.0600704324099945 2.997444641919818 0.06036667401351539 -0.8412986358241576 0.08132656409463412
Ni 6.70884462436663 7.928713719022069 4.865702109117619 -1.2172180863738715 0.4198804295116963 1.408685824801987
P 3.9369454239990773 5.4503364295015375 7.682628691522825 0.5805818332912324 1.4734578269720495 -1.9076994103014244
P 6.862122627739672 3.1228748871676513 9.044641688726086 1.3364370546389048 1.301760586302642 -0.4516196695965061
P 3.6418486756944577 6.152982584333028 11.725781153662313 0.8719297304464532 0.3175019298427693 -0.15884866684151353
P 7.273868512903554 6.8770650560873525 10.073238436781468 -0.7877024477652563 -0.68967991107218 1.2191101611902617
P 7.993893462267126 8.683199817457785 6.696578493321892 -0.6053531266986413 -0.8097044059576441 -0.17723976775419154
P 4.953354782882601 2.9461132781768975 4.651125873645011 0.09005263111372232 0.5624678972993409 1.0868148193572444
P 3.779443150739773 7.736259317953838 4.47191029734533 -0.8897749861579901 0.17816793599541575 -1.0661511203603056
P 0.996260703176018 2.9442512644770322 5.322268794699715 -0.16861834463376768 -1.0696113109947643 0.2636308908559266
Ni 4.928713208546067 2.7226716341929884 8.400087582205487 -1.0962122014117444 -0.28860478719244487 0.3237342839057263
Ni 2.738197678774955 4.150410009501616 4.810939452467084 -1.473294819031624 3.1544944390014638 -0.6305360537221721
Ni 4.047323002277198 1.5617014604517172 6.34643191212447 -0.6268521771126817 0.06778276397192844 1.5978418843777902
Ni 1.6535144842296827 6.018787905446174 9.016236252865893 1.0500976664418689 1.06923438727132 -0.9328335079103612
Ni 8.497804393699495 0.186632134349993 2.9420177744121676 2.7338719891174206 -0.8718986200982015 -1.3347452687587789
Ni 1.5268049151412946 3.652242602914605 11.356056563742023 -1.4969296848417444 0.09927234993977742 0.9204693299180534
Ni 8.99314635661258 0.9041049206572812 5.3079368474605975 0.04725096256716379 0.7984314041469863 0.12490316313400424
Ni 8.763433154047531 7.764560073441849 8.792726057133828 1.0590641316065375 -0.5782069053011525 0.14890132582081453
Ni 3.7186729523759903 1.4432736836403448 11.856484325268173 1.063460203791704 0.4668557698199702 0.2782380992461402
Ni 5.659530426369059 3.42903255267446 2.690603311681417 -0.012709991367500692 -0.2945800309392733 -0.28375594374057583
Ni 8.165643382642816 6.968062869887267 13.092254646370478 -1.1755356190334205 -1.383794975097578 -1.6668724047138905
Ni 0.4436539448047678 6.032488991327277 0.9584849844431164 0.7491389856697614 0.03885836762809437 2.63703987318802
Ni 6.409903419915522 8.011272256799208 8.244233330026809 0.8005718475287568 -1.1850906097117073 0.21257315294816295
Ni 6.504606733615667 0.9735737800368557 6.1350831670649635 -0.38955889571001945 0.23359577794641706 1.6350724865944746
Ni 2.4540043639267632 8.682208596234473 8.51244575018028 0.8635008829528096 0.29828781880816374 -0.4071619535037633
Ni 8.565818844368229 4.837798768493907 3.6025305426280854 1.8589402386198501 -0.24382131232916718 -0.5214621443109406
Ni 2.3421260581890495 6.8344147522356975 6.151665279118496 -0.3024537772603952 -0.7698193968372484 0.6001954937571018
Ni 3.5482570119643815 4.704039485845329 9.518698333837271 -0.416162871450793 -1.6392569569894673 2.208823155896486
Ni 2.014263427016639 -0.03777664510787662 5.535352640087505 1.7544308086508495 0.7156087151227999 0.5255946784220754
Ni 0.31367612480437657 2.3257199573807776 3.4219050236163664 0.324559350910183 0.6958279329514468 -1.089689055581246
Ni 3.77778493953442 5.168607272086999 2.738180077650429 -0.03815439958253429 -0.15294721375541404 -0.3247143884308085
Ni 7.114189258452863 3.721609561046923 7.001846838852646 -1.018929725479497 -0.2773868069894384 0.17702379508864352
Ni 2.9601571227987717 2.194850964654381 4.24926718858992 -0.9859877233358374 -3.5752428729404104 -1.156521539824763
Ni 6.8549432216829755 3.271382059419146 13.184994045123501 0.32692348026698537 1.5089989573014528 -0.2955994733427232
P 4.452093283878896 3.0165363037807813 10.63656427998911 1.6631512471085612 -0.9755922390341262 -1.989902977684373
P 7.028147550769508 0.8086947828511669 4.115758027184609 -1.0772778264010867 1.6027138677581108 0.30516346288207447
P 0.3951665522352744 6.355395516383129 7.32337121244571 0.6973302285285862 1.7160344682608382 -1.2152501640142233
P 4.81857648776146 -0.004820855370200101 8.12769813728948 -1.7554751907549637 2.395719215793519 0.8818354195959394
P 4.8508143368934675 3.776969729556369 0.6361796767460777 -1.471857315254149 -0.3033996861134323 1.2326398202455804
P 1.7099029289614427 7.83300992034886 10.365463422663408 -0.8219654827131844 -0.13987598239375268 -0.4012707848303089
P 2.1273552839716796 1.725984798528444 7.666467153707968 1.1929422445456421 -2.8301919412970937 -0.3832866895480625
P 6.785752274795918 7.305003975815242 1.1006437089905408 -0.30141839401734544 -0.08481992195987327 1.0614236329776494
