# total energy = -340863.4188663562 ev
CRYSTAL
PRIMVEC
9.22466115500470 0.00000000000000 0.00000000000000
0.00000000000000 9.22466115500470 0.00000000000000
0.00000000000000 0.00000000000000 13.50122404338618
PRIMCOORD
 96 1
Ni 7.830676368033376 0.679522661811553 2.1394581029855417 -0.4561810637149434 -1.0574422797323981 -0.835960768551012
Ni 4.981566015420181 2.6896620869217807 7.941231162932531 -0.29683900217677905 -0.9197843880358869 2.812649047317324
Ni 5.378567751640107 7.620372546151231 9.752447230458184 1.207747942099907 0.0750327606661224 0.3185601959039546
Ni 5.690518113276589 9.0980433205979 1.137144257909474 -1.1706944888910353 -1.1141435890791842 0.1635581565020409
Ni 6.091643272971439 8.823249893540826 7.616958499108569 -0.0029017470278272606 1.9613287655911062 1.8397245849233477
Ni 2.901810841007471 8.584211252588458 7.290673936716641 2.0251725995199448 0.4746138164988342 -1.1967238230752617
Ni 8.54967412173809 4.075012453903037 11.586277554468795 0.4276582736849022 -0.44427531341629295 -1.126260941168009
Ni 1.7338580602309914 6.337000806720948 3.1671978812247708 0.9854683604972577 0.6929074168705421 1.4593632965521963
Ni 5.213381746795665 4.062273197037556 11.582106162756578 2.3834157158358176 -0.4528784817042716 -0.67844290470578
Ni 6.320673156719571 1.4135317063904138 11.493673027444034 0.047362291334047464 0.5364611888229341 0.06783932824147672
Ni 7.58161052055474 3.6244892344582573 2.2508837058847706 0.2205299459013944 -0.03226683045350572 0.09751911469409658
Ni 5.527260062584852 1.3215895100267265 4.330720057314436 1.8643896917701956 -0.5972796056618875 1.7324126525085455
Ni 3.0812304978022658 1.7882005382864226 10.561143742967074 1.0521905444151556 -0.7836133652975472 0.9892016022874447
Ni 7.058978125934387 3.3644921636736154 13.118734513165847 -0.796167547813474 -0.7067206686045506 1.151486291393701
Ni 2.3100857353643405 8.128503773651717 12.195520291384588 -1.8001342242252354 -0.8606410449065114 0.17647126501928317
Ni 6.031572280423999 5.644708446662555 5.428126320491744 -0.4397797395387845 -0.27373866871388985 -1.5042411309014934
Ni 0.36015659518292054 2.7151221513307076 1.7423327563079776 -0.6941551732347142 -1.0581503615430163 -2.654997743218021
Ni 8.624892007676637 8.513319732667226 8.070046174316278 -0.9089279049373573 -1.9845383709383502 0.25250341348419736
Ni 3.3020596579056374 7.304889139344959 0.5714409985312502 0.7751894028999102 1.1075474239189054 1.6225810389956832
Ni 2.9528601150795732 9.230195814337861 4.903671132854289 -1.6127771655313838 -0.86271386827514 1.9202497361626087
Ni 6.602311282251801 8.156851156959194 12.408745563411047 0.08642686143567696 1.446366370071896 -0.907135846033941
Ni 8.958197459569156 3.448916261307855 8.432648227134997 -0.8386941083217748 -2.6467864110518224 4.1753658615883635
Ni 3.513774852923495 4.0932403840740665 9.76098004189958 -1.6202580472894612 -1.0735402137355252 0.053943801206307096
Ni 9.027327069236005 1.9079919862626282 12.538303160006722 0.40299805193406085 -0.0837238606822171 1.3784969599234325
P 0.8270683473917947 7.374812069859332 1.5290401442560886 -0.7866580656611419 0.848683615434319 -0.8611413815816975
P 3.447163575714487 0.2072836678649414 1.0257417166627896 -0.8496102410136465 0.9883281985435558 -1.6048553395811458
P 1.3380001819772631 7.321816392312489 5.503774075633718 -0.10076461821458775 1.6239825473288998 0.4983355855958063
P 2.3663192689284056 4.244663194680059 4.251332624595875 -1.7957132123394042 -0.5235007720075243 0.0553044289992596
P 5.477797430207799 6.772312560147495 0.0889617083888596 -0.7561984636197041 0.3478520028895364 -0.1041049954417304
P 6.969545037367522 3.430070278848638 10.205386388623506 -0.4796048419555224 -0.7982452562781092 -0.18905912898662278
P 2.687854053362306 3.196944645608636 7.436001091322121 -0.3111135098179223 -0.4335070191561953 0.7537412603284632
P 7.128439823397873 0.9948427921178103 0.08656606392255584 0.5751843164247449 1.0111847914267555 -1.7360399648484874
Ni 2.3092739651947802 2.1040344822113677 0.06674687972596889 0.7821979730072594 0.6623493415780269 -0.2499179121452083
Ni 0.39697498470297515 0.2530075451315099 5.013314531244892 -0.5665238125362695 0.5477552736795147 2.9917747192403183
Ni 3.9187282469407028 0.4981206253640489 3.0672348421061697 1.2515765092490831 -0.7096812938947713 -2.446327267758374
Ni 7.705008810988877 7.722295825736098 1.3342116136972826 -0.9840272571753569 -1.6670225571385096 1.590513469037177
Ni 4.414581450626594 4.502252628939074 6.91285580554918 -0.9623919382937683 1.6724912935625649 -0.804643189384653
Ni 7.572044547079358 1.527889829027178 6.246287335204822 0.08938183029894284 -0.6182088996153868 0.642008573138146
Ni 4.126218547212441 6.53883638978882 11.714674688708438 -0.19116871913045785 0.20294719982262466 -0.8558091707355067
Ni 4.209056003151631 3.1608485470462693 3.972222056182503 -0.19995237886035885 -1.805238121110704 0.2721137315159572
Ni 6.980236419487067 7.0034825652517405 6.976703374317278 2.3416298901482833 -3.7229128974572854 0.84700597062158
Ni 6.789498103623521 1.4155703564753315 9.074591464892533 0.621264398612259 0.744229464183286 -0.3559532918404321
Ni 5.938523124738184 2.0962211943293525 2.162247628029837 -1.5146062761859012 0.006079373424860497 0.4645816290738128
Ni 2.1602034431483084 1.9768633054209797 2.9401752837140966 0.6959927406640852 0.8956823527813607 0.6379932813311657
Ni 5.1623693713676335 6.982441113470305 2.2702979274626793 -0.8083676894240918 -1.451460496765352 -0.6237444847216355
Ni 0.824615510027181 8.146215122805753 10.044977835720145 -1.1964769971717781 -0.03005645306574824 0.03138648473108143
Ni 1.4852718951252781 7.195254043149271 7.977629830376279 -2.0919292362202033 -0.4506452214983787 0.01774138314382106
Ni 5.528071832754412 4.526919372500476 2.502586883948374 -0.21713686105944538 0.205497219937988 -1.0013500647245206
Ni 1.4366394822398203 6.225982011372601 13.158198535465788 -0.8296890766096874 -1.3125283663421072 0.724310870882488
Ni 3.417367920627228 6.2890510187508015 9.014875621794276 -0.22213225739150774 -0.27459793139039157 0.0005481591939861528
Ni 3.5910498382689964 5.149159656790249 0.0775747868285771 0.9024646658105168 -2.5500864498249114 0.08817726846788039
Ni 0.13750833192685266 5.597865618014536 5.0620004471642535 -0.05884895181740833 0.29725037868258486 1.6526876285730763
Ni 5.5931241422514235 4.792322094641506 9.082151997062663 -0.037382297303200133 0.6670452043917996 0.23990038000820615
Ni 3.1436906775532965 6.276819118241296 6.175257445368322 0.4876408248861215 1.5286717531400318 -0.47688384347993357
Ni 8.650444318695742 7.6596234787816595 3.805279675880286 -0.9693184902102726 -1.2393969364637558 -0.10319636758453196
Ni 5.084522457039034 8.137119607042274 5.572441529783578 -0.21130817019281026 -1.5451381262261712 -0.07258249935341693
P 7.607504144031501 8.55705385055227 5.754018834790419 -0.3079073441757988 1.022485046930923 -1.3907084143879596
P 5.494235776141388 2.8303750660861913 5.873383180961504 -0.1214745970684295 -0.3780385537752457 -1.3264166942884255
P 4.90887568660049 6.871376194816868 7.61789018987136 -0.3420963313526818 0.004067999421786542 -0.6102760179215555
P 1.3249011633320904 0.5173817175690634 11.50284049556345 -0.24931601689515126 2.921704187675478 -0.1444252923273319
P 7.553235463264212 5.469273843427419 3.8372366690439987 0.0951819819204877 0.12545183654862263 -0.7914290046872241
P 8.829734830236287 1.6868215137016003 3.5308533903317154 1.0694665578867841 0.5383272954973956 2.182517428122422
P 4.623455450050992 0.9196737968826565 9.24289725009317 0.7794072976359996 -1.0100943865760539 -0.3237558811722811
P 3.4144713770676614 3.4878166568196107 11.956697507500039 -3.3852221513714666 -1.2999088778058838 0.7845147940658941
Ni 4.14708473043454 9.213554525861882 12.147537294634779 2.310459892303382 1.0207212701622808 0.12199087458321572
Ni 0.44957307935995405 3.161060714249677 6.407559316379441 -1.2896627745978435 -0.6464583813793835 -1.9136132046826977
Ni 1.4642581173268958 5.055953681867132 7.268964619477523 1.120241474446806 -0.6297585521261992 0.4080034755684522
Ni 4.949602564993755 1.8979740043973765 0.02611317040898223 -1.3924441661321436 1.0512127538829186 -0.6285488480888143
Ni 6.78386183574169 4.069339287377135 6.998494791039454 1.0192963647902962 0.004597646673011437 1.2715730069756679
Ni 7.315220759684814 3.4159657721525334 4.680469389937157 -1.1775873593561268 -0.4664567346093386 0.022910843159902477
Ni 8.59468124284358 0.7276652451969696 10.630674625388192 -0.9789099905534496 -0.6151176622845729 -1.3638306161605092
Ni 1.0942016159397503 5.113958350346601 9.82324742623534 -0.9319549619601498 -0.6336941397351796 -1.461454117642954
Ni 1.1344672612821296 2.8996614949903408 10.387841881359233 -0.7051872626791597 -0.8017648393955934 0.4051032712025217
Ni 6.198261905014331 8.390899256300967 3.525561202305845 1.6337406551569285 0.9639312577564302 0.6812158394652268
Ni 1.08819636161721 9.146085355178224 2.9777353359799767 0.9032581082460895 -0.9771508417704978 -1.0278128869017396
Ni 7.791157920233433 5.415420272405927 9.544190360855872 0.8372416921459644 0.8404326882794365 -0.31520567760942486
Ni 1.997554220083742 1.076324222887395 8.448606890695666 -0.9685942104497385 1.8578464913350388 -0.5074815137611325
Ni 3.071203291275996 8.69870774514049 9.790466670842745 1.2717277873859776 -0.5672650615776682 0.49514201835917304
Ni 4.6352722408147 0.8979469527876035 6.595414925674947 -1.4450394237303565 0.9408440369196636 -0.6594010575829804
Ni 0.8268257388070285 0.39359322397387636 0.7729177422855322 0.825043864528192 0.4611664327446768 -0.11980800799928398
Ni 0.21786988884888514 3.6481873886127985 3.9281134170601386 2.250413577743763 0.25098749106030327 -0.8467066942136063
Ni 8.89986070329305 8.145827687043008 13.108513588758207 1.2662865617657484 -0.12798822981723118 -2.5758591879136414
Ni 6.446313039781016 5.878673524055171 11.758175422669733 1.4028332226759517 0.3179924963259427 -0.19512796088852202
Ni 1.7410532958248186 4.5253327308054265 1.735406880815868 1.972283979051029 -0.9423172790310803 -0.5494038650265313
Ni 2.1880065714557384 2.0810927502602796 5.617899736812836 1.4797205200523098 0.06617248206201506 -0.6361364306280851
Ni 8.908430413378518 5.432642714526024 1.735946523485405 -0.7916390638155011 1.6215240584860784 0.1666365383170485
Ni 8.891475486427936 6.235538760186966 11.640552692498794 0.22539138775875373 1.7770932832453716 -0.8557186679042293
Ni 4.127159462636249 5.370062614181763 4.043589568612251 -0.8647180431893623 2.87624862644584 0.43692375814722817
P 2.0366391088158524 6.594009087335846 10.736011029549617 1.7398889062809326 0.03950268608031261 1.3077674546183544
P 6.857114868883461 5.161668297130287 0.8065360968985373 0.4862328887950013 -0.2002593685778164 -0.13933887894336003
P 7.847981832102632 7.678810773698532 10.21606577868373 -1.1269448546089107 -0.1288019839677782 0.5057850998953161
P 3.6107352648808257 3.199462978066475 1.690028928337464 1.4257504935937575 0.43576573328338497 -0.18235060661819563
P 3.743782550739506 7.529242119957104 3.891768252650293 0.2624438125263609 -0.4378637534629943 -0.5532787746009051
P 0.7757644726756029 3.9817326816917795 13.232387871700858 -0.1762288099911739 -0.25081188471438737 0.4315462958853987
P 9.055692901865516 1.206244348661065 8.051428040984199 0.15794852362474732 3.2729266496991434 0.019388174718624675
P 8.592836310640035 5.103746650599978 7.411348184752243 -0.7267809296895353 3.242924446910098 -1.453609939008187
