# total energy = -340864.1649139287 ev
CRYSTAL
PRIMVEC
9.30885203386908 0.00000000000000 0.00000000000000

0.00000000000000 9.30885203386908 0.00000000000000

0.00000000000000 0.00000000000000 13.62444590474986

PRIMCOORD
 96 1
Ni 0.884981394077338 4.846514188729161 4.855125807763597 2.0067272483305634 1.432825655272984 -1.096739534670124
Ni 6.526398939105632 1.5064515277728932 13.427695138721077 -0.698099759704759 -0.09600242093925403 -0.07736012324771839
Ni 3.083622404594113 8.825033776607704 9.836509437695453 2.7921288158767847 1.396063765162602 -0.3830254654668759
Ni 2.007574960353985 7.892547448732365 7.834914483900458 0.547723906220947 -0.753071230844632 -0.18849965693872694
Ni 2.261148090283749 3.1332385860377854 0.7833929607353226 1.406668280151326 0.9850718963897873 -0.650286496876222
Ni 4.1441706101656255 5.032942568799036 0.4134610419106967 1.092974154090421 -0.4016057995722245 0.028316844666822202
Ni 8.8676403924553 8.626187387898831 0.9850199035524921 -0.9662041129510069 -1.9206207463487825 0.2481027133133404
Ni 9.279417463029569 4.425474810361937 13.533121611764637 -0.8556330501689587 -0.1534856027573873 -1.47480662769046
Ni 4.136053291175216 9.33082094406746 0.2947331501682891 -0.49069838076552263 0.05082299618913828 -0.03690664321836224
Ni 4.1032861319478755 3.343106655577672 2.514445678192737 -0.6256219042500065 0.023405266297817754 -0.14958086838634238
Ni 8.812736783045398 1.8577024422971133 12.879529422289027 0.3913270433540357 1.2116341645281907 -0.8817793695470233
Ni 6.808485082874413 7.975340378893719 5.952928970137309 1.0712570741283034 -1.1061893672291143 -0.33073076982821753
Ni 6.671058500012699 1.7979023767072162 8.08793466801826 1.7883580575259137 -2.2525558208977463 -0.5527882081177319
Ni 6.894322007657172 6.368101909940593 9.286272501681562 1.915215001952179 -0.40934559141864335 -0.3449661967013091
Ni 6.346812565294875 9.2925057090164 1.6604795173863232 0.07781546561758211 -0.3264270002465411 0.5026095303808119
Ni 7.095030166776688 1.663622185839491 10.903031133629518 -1.6006981228796624 -0.5799200313375173 0.5166868344094844
Ni 6.4848721500962085 5.409299457310796 4.672068163022194 0.7255856238298536 -0.5634348891983006 0.09379255777212879
Ni 2.7911568907859885 5.897893175028251 9.24642130604172 0.2765475989175947 0.6133073485487115 0.3411432234107931
Ni 7.242091411513487 7.337907425697299 2.8565422676078187 -0.7120981308663801 -2.0760809563340374 -0.17446734721537696
Ni 3.38727715857021 4.66766321423061 5.966976027885621 1.4956197077810693 -0.22636892118067467 -0.2059458774396324
Ni 1.507624443131599 1.9469091715231386 8.756798960172382 0.2476766815195154 0.21425054065058585 -0.5907621162583439
Ni 0.9972387027575511 7.797690246310033 5.358971148685051 -1.358941663499324 -2.2983217142789516 0.1137278632434751
Ni 6.196595619712034 5.638129658483096 11.32540260872556 0.8032712487377908 -3.300733644609083 0.584292192263284
Ni 2.1235911834932892 5.537333408450809 2.642747724271883 -0.5052726790352717 -2.157570271258781 1.939278727769602
P 6.467343581679992 2.9788419658830474 5.318956117249072 6.086049294218776 0.6326343310120975 1.72358811223838
P 5.204625727216606 3.0129589086581055 0.7822861382261945 1.0698573655672994 -0.4343066322393553 -0.1329283474313259
P 4.773784127637339 5.00088288232774 8.098520694573184 0.3521714562004967 -2.5058668178849035 0.1535280259595485
P 3.409748727426687 7.93463276886498 11.950110361165226 -1.4068662550947448 1.9703795629394647 -0.2725225369186016
P 8.431893027843985 6.24090575548537 5.417093759134958 -0.10370107513509237 0.34951036442856576 0.056813923665250544
P 8.836027530882559 2.1733935419780264 7.628572607518331 -0.29182483679163934 0.8730165357527289 -0.5030846702450175
P 9.179533480498499 6.84268580531795 13.247934689376926 0.7355450490354106 -1.3157263044541145 0.2661695981173803
P 7.124064476330687 3.683745478761219 11.790064198699385 0.9731291222056143 -0.3648709060450361 0.01758274607876972
Ni 9.31192397439942 8.755803843887893 12.251565433401144 1.0147277715830074 2.9427759207441126 0.05240499596427748
Ni 8.286656318109618 8.942371856738566 9.848144571876775 -1.3404988834131042 0.1973041426042344 -1.2287726239806902
Ni 1.6614532233110904 6.152238939678432 11.779790949573451 0.23235856310520625 -0.2860683939238364 -0.6954201559900668
Ni 3.058656063387372 3.653398621067716 8.135347444180935 1.0163604220904237 -0.5290361000034566 1.7495459697547224
Ni 5.025309310115394 0.30587305342037974 11.360525838407572 -0.4084480193050385 1.6854470823922842 0.873197027194651
Ni 5.415471226222081 7.5162371044808705 10.58105842058309 -0.9343936533086294 1.2237402037631053 -1.4402643709392162
Ni 7.151116000397351 6.00785864433296 -0.09542597328278259 1.1311177550396778 -0.24578254982059608 0.16784110014811093
Ni 3.1902366871596626 2.247510622025779 10.632680659644235 -0.9626266800123938 -0.9832307294159905 -1.066479964454634
Ni 6.791170618055421 5.651227213321978 7.041712785756655 -0.7069081020250084 -0.5976804406447319 0.12100999872718515
Ni 8.332884077405918 9.202386712289158 3.403250217808333 -0.01732923530706693 1.862821318841811 0.16438682305092334
Ni 0.6066253073262822 2.933926754726252 2.1539026675489903 -2.3263876192772326 0.6157223857481073 0.5089429287980074
Ni 0.8330268289978963 7.6725234216024125 2.7696729911323574 0.88421626112329 -0.429341574924596 0.004245148429599141
Ni 8.519982694823623 4.13242283887446 6.135782751018747 -2.1399926673863336 -1.5834210809667697 0.7838324232868888
Ni 3.8729478967429536 2.651300697538383 12.791855860996169 0.30161482629886766 -0.3803389197736482 0.11404410893231329
Ni 1.08388549766894 1.0611532809549724 0.7529129864574584 1.8279707868215291 -0.2940388137238226 -0.1979479468358204
Ni 6.4080834295091815 3.6938176566828056 9.14170323663941 0.7123071615533926 2.17190879936864 0.8653855015700322
Ni 1.4611081094216494 4.048205654348962 10.116436858673094 1.7214805789770742 -0.7136667609050805 0.42027689361916654
Ni 4.380568908057195 0.731756758396101 3.247018822913905 0.18439617629331467 -1.0706713768281624 -0.8912873090374585
Ni 6.49836998557338 2.2227025313039426 2.866256054725356 0.43460179488227085 -0.18264474081984672 -0.03310115342934299
Ni 8.837200446241265 4.902032182374577 10.719604858346809 -2.0106484377618403 0.5760566917273693 3.3849257031769704
Ni 4.934110486549979 6.989802903167068 8.188632244218782 -1.1288081330698947 2.3731570142222873 -0.31247773715530053
Ni 5.155530841487914 7.052609727970156 12.837021480273195 0.3804744169102479 1.6157755860380756 2.748256539973867
Ni 4.433163922157898 4.088782940448956 10.280639423580695 -0.34077966942378735 1.5486299414295135 0.28681992737788026
Ni 1.9440699716469059 5.629127998547629 0.4106981746213004 -0.6713417748846243 -1.243884025700832 -0.0038314579309482403
P 2.6459108721995674 6.594009131568181 6.267980551682165 0.15166037662319043 0.7809617866073131 -0.5412131016856228
P 1.5244176122356112 3.232173065659427 12.35024671224694 0.22636686429814562 -0.7707948733766402 -0.6852902666449167
P 2.6698532396804544 3.678737316356586 4.248048090227528 -0.9374414389960178 -0.23268380765510893 -1.503818441541778
P 0.45811653609520725 0.4753025387558654 4.9677452307886805 0.23796742465155146 0.9852086790779677 -0.9662555350142327
P 5.714182979757917 6.203754126940962 1.560053759665755 -1.1384572261238846 1.5751205315208745 0.33350884679398696
P 2.4477719562467404 9.153142884927615 1.9347806681829958 0.6396331309274339 0.23045646098648698 0.5484530710774876
P 2.8501936305075213 0.7722418868607681 7.543052183705381 -0.5498324679235176 0.02429435377099042 -0.1946044842848842
P 3.9302438811305342 5.695537349095314 11.797911560980253 -0.7458405174241477 -2.2636930684614884 -0.43985532997172627
Ni 3.106028811486218 7.300569620111827 4.1537531424692125 -1.6296065783838969 0.6659126334492532 -0.6513239370018008
Ni 4.520062056074724 5.59682628192295 3.5448899871093356 0.19573088457984356 -0.23228682932700642 -0.9331404976278188
Ni 8.866365079724009 4.555956989591948 8.603741883828103 -2.428523921028366 -1.3916453243799323 -3.481707682594726
Ni 8.563715681769661 7.241774910543677 7.476837388165609 1.1453819782681758 0.11623134639161918 0.4894567950489377
Ni 5.313297266085919 0.8008070302712847 5.507709848561841 0.28506103570524455 -0.6898629736172636 -0.8504862158606966
Ni 8.203714446315411 7.159121613163121 11.3378280644462 -1.4076452993526145 -2.8692382565662777 -1.0916274102545391
Ni 2.1326114611328615 0.6416331072428335 12.093875341389978 0.28808311036102 0.2755590097520802 -0.006767400630820603
Ni 1.346879185876564 4.609976258056794 7.159659664811797 -0.9591158386456579 3.6710498900394066 1.1977437796993438
Ni 1.8142021766524077 7.834525373884632 13.727173941666099 -0.18837495843540458 2.225307783815071 -0.8787297840874222
Ni 2.227999268122226 1.5803451953713683 3.4068061992926637 -0.6402707645114327 0.32556105270181995 0.09426384098159249
Ni 6.787726342795728 4.436170681371089 1.8543009877568661 -0.274620814208527 -0.5030054802676498 -0.3595932025858646
Ni 1.6203360237920093 2.701903617299697 6.2622584003250505 0.8925468924761725 -2.769195347009063 -0.16762178504845326
Ni 3.31542212957139 7.206885333048202 1.7355367914914512 2.394991850709191 0.1648377945454129 -0.34639290184550664
Ni 8.78988355125474 2.62621334125495 9.800527000968929 0.1763455380746963 -1.0924159675941056 0.32111587244627277
Ni 4.8830048887777915 0.25206230324152545 7.653887099791862 -0.23164019688194298 -0.552976669979454 1.486635502004588
Ni 4.666574078540383 7.487789252606225 5.756328807428879 -0.7295500077942404 -0.39504691540778414 0.20787420481059685
Ni 2.6406234442333374 9.465426944757048 5.429532247248473 1.0253405141018472 0.6269491077018622 0.3593695166108327
Ni 7.698634751611699 0.6984096576858443 5.728984054522541 0.8559341263491452 2.157199518182924 0.455420531399835
Ni 4.825103829006752 2.7928883372678874 6.904814945691564 0.44374283795159064 0.01144346595025126 1.244885727492469
Ni 1.2235648227275342 7.859975775398141 10.172447290592123 -1.859951453493184 -2.050639890553114 0.7056971124360427
Ni 8.337566429988689 4.104905872205136 3.605832248846163 -1.7268428717302517 1.6415218417642439 -0.7810078093539001
Ni 9.495029094286295 2.554116282102747 4.470453321712695 0.25135875835679294 -2.1962748869178306 0.2611968274931372
Ni 0.5524850237847438 0.24448955209622952 7.1561036833274665 -0.5545208745381224 0.8503892852715161 0.0040214624545672675
Ni 4.749273920181206 2.8519809301017403 4.664029038389033 -5.407445952675732 0.668855518127661 -3.1288170888400177
P 0.567697549810119 6.19308618248797 9.087192460786154 0.9984583449990224 1.2544440606048652 0.06243204118297635
P 7.035248718890897 8.749501751047863 12.134557817518173 -1.2723106564726412 1.4399902913422231 -0.3118401035713016
P -0.016187162835347487 5.178849515881236 1.8980349055881078 -0.0720857622226565 0.03425069365275391 1.4882262435304758
P 0.8373433436949752 0.5709407538654615 10.212530276648092 0.3486904396304317 1.849812565286969 1.5132916711395359
P 5.812586854812526 8.552107543259293 3.9921123736466573 0.02149956463467265 0.1165517058455154 -0.24556169205904158
P 5.066314803409837 1.8280909839158148 9.596542125926678 0.22456812052651004 -0.5571698821251952 0.5773982933569282
P 8.358502038256384 1.263304312142738 1.4395450845255662 -1.7502797625969533 1.8336770931776873 0.7516398977147442
P 6.702829612070345 8.35172519396164 8.144012123672073 0.6075426781507923 0.2573926232556986 0.5490385112673125
