# total energy = -381166.6466858799 ev
CRYSTAL
PRIMVEC
9.23514492252737 0.00000000000000 0.00000000000000

0.00000000000000 9.23514492252737 0.00000000000000

0.00000000000000 0.00000000000000 13.51656809686988

PRIMCOORD
 96 1
Ni 1.088075557777476 2.867466370552436 9.92773016402464 -1.136505501714152 2.416753924976631 1.826563107840725
Ni 0.7756662995834345 6.181193421495329 2.0641020238553254 0.30523365399837754 0.2381170628555383 0.8427847334513807
Ni 1.332474437084066 8.268373149382517 6.688146551814555 0.8516506684824429 1.4269645685065167 -0.3418201948731597
Ni 8.6488518913925 6.6639791006636555 7.229769340265768 -0.45442705713831416 -1.0645824903216052 -0.777202576675197
Ni 9.014000292575362 8.436868371304703 1.7730896732892096 0.14179325402112355 -1.602210188648815 -1.3300650896742898
Ni 0.48039100604997004 1.2771282126401273 1.7399068735145533 1.790560464493871 0.11862504343477634 1.4118205137762267
Ni 7.809571141978067 1.8279122650073065 5.483482828532313 -0.03982381686515722 -1.04737203998059 -0.14376554725614593
Ni 8.028841191531285 7.428141180025195 10.29388057844831 0.8116751565307699 0.49130027601557963 0.0453095225700768
Ni 0.1204946318721585 5.358212703141056 9.208824913110876 -0.2663112659015672 0.11443954459851904 -1.8402282640326437
Ni 5.653303293772988 6.01038017815892 4.7513039035999824 2.0517092123578924 -0.18330037212597464 -1.8472882562032182
Ni 1.728191168470405 2.6424612959066622 0.1733215087392064 -2.7421028616676453 0.4130914316143208 -1.2226400287203911
Ni 4.93587104849894 3.1392012792857003 11.778189112221906 0.3502289877621452 1.233646921353856 -0.40986084049216503
Ni 4.486368832186603 5.268400917271324 10.75053818516598 -0.25584919002797873 -0.19828913222532302 -0.016915287698099902
Ni 6.34173718350658 1.851360298356741 13.30268253276722 -0.4244325676587529 1.3139987802400466 0.12337078564987783
Ni 0.12564968985390496 1.05529079275562 7.217455197820657 -0.7883318538191391 0.13985284246530108 -0.35504440687291755
Ni 5.744509586549285 1.6110895288993816 3.711568789211352 0.9962675079952907 0.546786224898026 -0.12938279617191265
Ni 2.9360465578911126 1.9031232865109668 2.1758297325062874 -0.4501153171368377 -0.5435144961252898 0.888590736041902
Ni 7.391690062407937 0.875681073733771 1.5262776505741098 -0.6513149381407363 -0.9288292718469745 1.459090502506784
Ni 2.6229751397950802 8.81512144335123 0.8721957299818701 1.2754211770771648 2.185715109124113 0.05408315499764879
Ni 2.3672447374795276 6.152435179726861 9.832898153291278 -0.09668890548331735 -1.6195229688956496 0.8797883072589235
Ni 0.8294841075171993 7.044854953911932 13.35193633200414 0.1710513795552925 0.07972630948704978 -0.45356959423402526
Ni 6.457185732108895 4.233824554922471 1.782605566776117 -1.980169809557009 -1.2563430773997912 -1.9034249512957866
Ni 1.929452685124294 1.7257161495898818 8.351914271745251 1.2203211507792275 -0.29720024217093977 -0.9793247094933649
Ni 3.8577786825492453 6.318935610312506 7.853477792215647 1.6122986832330686 0.8956954654074832 1.1087668981483036
P 6.293243436709463 8.819803661905057 10.359976511761387 0.7990332993970433 -0.2814386084613088 -1.7925137315655
Ni 4.529173729616548 4.027372886735544 3.5065356393081886 -0.6854360481941615 0.06218290128664774 -2.0369734488096145
P -0.13392715038604283 1.7741083097911565 12.129146789480098 2.8884420831882385 -0.9981688387830616 0.7366444527471765
Ni 1.8471306019116676 2.901433234144094 4.116794949483045 3.6669127279425813 -0.6190740758291595 1.7196543244016127
P 0.5519033519504605 5.855432914064076 4.291578381687874 0.18436095218000506 -0.9801968276856732 0.010063040662956862
P 3.5214531691503863 3.0187288117617253 9.725914538666155 -0.46724374928700824 0.39746555215160584 0.4820126800660666
P 3.115762481081342 8.818353744128034 12.31163417970781 0.3332525078088067 -0.4878976780919339 -0.5300141476460098
Ni 2.555392348124674 5.167627014195692 3.712771205100323 -0.348289090426955 0.6635312777012702 -0.15606801877258283
Ni 8.187750332863981 8.979747139486332 3.8814317361193793 -0.7266950548439485 0.5158399130281568 -0.49458897406918045
Ni 5.070002295591174 8.217348972834417 -0.04949021895087988 0.2911818038910018 -0.18357548016423222 -0.18857061938597847
Ni 8.01170999741423 6.8779112363626105 4.834862572738363 -0.3509090445483053 -1.462713186861036 -0.12735188178481294
Ni 3.9735042855038585 7.355054241889148 3.3311177526365987 0.6172987290962917 -2.4817889510000937 -1.9481647174053223
Ni 0.8541188570089742 0.8351858860874792 4.288077338189343 0.7580614849703718 -0.2865003392549324 0.7848737200672096
Ni 1.1864113825528906 3.703413232594225 2.228733261077471 -0.9371143946739022 0.9328255374905613 -0.8081105791079631
Ni 3.464047507354371 0.5173833031687154 9.393555520077689 0.26334267019154645 1.4954392163391472 -0.2856595885211919
Ni 2.5773258176815492 4.005919644722651 11.79915289154574 0.31639789814531316 0.07670526327253886 -0.21976529982122794
Ni 8.943582311366447 3.8286140943974085 12.046817318151408 -0.3941346880061599 -1.1990573563044447 2.504991614368802
Ni 3.219861036384542 9.164339219276995 4.306581798379284 0.07594061719237245 3.004738735600154 0.7122475119600508
Ni 0.24245672829698542 8.086579318550058 8.551649218917982 1.0559273857497684 1.0398070831491384 2.5656267115523557
Ni 7.189800555888842 7.25640442218113 2.5799615280864048 -1.3359202629034865 -0.4913776662207345 -1.2374953485656688
Ni 0.11393121426623372 0.7030318835561397 10.045148569071788 -0.47866047576438214 0.36061573031310795 -0.2897777244546235
Ni 8.0478009443735 5.066197415819624 2.975996871977886 1.8509945014102123 0.8515812486970884 1.1942445082968336
Ni 6.5520953180609 3.740436929206231 4.331032768484035 0.9917577930503952 0.33690964494541975 1.620033847093797
Ni 6.092462147599556 2.8205333632732605 6.594422758490384 -0.4009164868146837 -0.09645570642658872 0.5269226532048795
Ni 7.860364439899251 8.628165166420963 6.189750706923286 -0.2431309711303619 1.6647332468837006 1.2611006466894343
Ni 5.9960287627099165 6.537466848259598 9.611875273202525 0.169332854202289 -0.10062269332008476 -0.5925444049697473
Ni 5.074148875730558 0.8210551906058055 11.546446999242768 -0.42158764201079 -1.3773181091239828 0.5606151603613184
Ni 7.345098755496595 4.632191772945788 10.275443534817429 -0.7840293697890433 1.3656270459392996 1.1960604784596498
Ni 3.106425749408921 6.710450350689001 1.0343103901706479 0.608519440241765 -1.5465056959976593 2.8363286503224505
Ni 1.8597550452313514 8.182006072626349 2.7938613407775925 -1.212998648975885 -0.06712918954832955 1.143940874946275
Ni 6.9849096272198565 6.4743815722414855 12.155017201383119 -0.9523515233386308 0.011082997287038977 -1.6764114545525772
Ni 3.1213497438526727 6.506168941595072 12.444812359828141 -1.0111256560540458 0.20154209194498193 -3.485007179281604
P 7.8199422098990645 2.660395947645379 2.934893088271048 -0.07695568872044811 -0.734857793160399 0.1447299680519443
Ni 0.7053471344268379 3.636089024985963 7.543393943551887 -1.5612486586347885 0.008175850942573016 0.2783247454226755
P 4.900241858793497 2.464915631809428 1.5787489743557093 0.5154563044364929 0.4079803356400005 -0.15388206686485756
Ni 7.746171871027351 0.1716647237124681 11.978733981617854 -0.5362665563136247 -1.1573023838548455 -0.23564726115880708
P 5.7879794144247425 0.11256071873686936 6.131440000909765 -0.12315918385970402 0.6008981762510813 0.2528461415355968
P 6.952014040457081 5.304528804810902 7.912314901498531 0.6042277548449465 -2.677536033529853 1.7451275289720525
P 6.85334575045891 4.094447745426739 12.569799889780056 -1.037967458837238 0.5902257841388997 0.4189458335125688
Ni 5.766055180012944 8.54027429072716 3.973817356921954 1.082163693738478 0.35001944285450043 1.290441561745397
Ni 8.056916032564084 5.862987262736717 0.4820985843746295 0.17915266850618822 -1.2385582426125443 1.321365247907447
Ni 5.229437840193237 8.677868717223111 8.291387130913353 0.5361184607715347 0.488219580207727 0.6070063460313482
Ni 4.887358831411669 0.3439260377968833 2.0327431652332932 -0.7050805618979663 -0.793602101079143 -1.0467835144669713
Ni 0.6319729832789092 5.439989912794164 11.311191837076498 1.9001876753054117 4.193972420945957 0.15263816715542744
Ni 7.230915421769771 0.9360927752522133 8.319177529477795 -0.09492769981783651 -1.0759994739092953 0.22798074575248478
Ni 0.9183705318502581 0.1804925988911701 13.100190894789131 -1.1971372564635965 0.9679018123684041 -0.8618924008151092
Ni 4.188987925575679 2.494791326132162 5.139607584033351 -0.833285535711694 -0.5385517528033757 1.0150694711931423
Ni 4.9377550180945615 4.099407018332862 8.232819687866703 -0.11641980825334143 0.31616932707427486 0.558326878547774
Ni 9.076448343583191 3.4624221218208926 4.509613692344353 -0.5358096712818643 0.5538845265057042 -0.4710790638726984
Ni 3.6629171214334257 1.8069484856834719 13.268944700773462 2.132271644592992 -0.9532267268547325 1.54835920426663
Ni 4.107413889114256 5.077602819989199 5.97904071334155 -0.4513445615582485 -0.9174696238597813 -0.6316503698322734
Ni 5.5094936146404985 2.0112391299224788 9.61852550117217 -0.0016753308198938892 0.3326061324740594 -1.09249670023337
Ni 8.215566589834637 4.614081653450616 6.281379045829582 -0.9814864930313743 -0.18315407635609748 -0.2845344737778132
Ni 2.1881937447348117 7.15684032311053 5.051682538302764 -0.8968036108699975 -1.3174412302626923 -0.9945122158670807
Ni 3.6498216857148367 0.35634361386685154 6.88755642188059 -1.0738983684058923 0.8241676325708257 -0.9128220977854409
Ni 4.337701466743832 7.546027806927728 5.614173984083522 0.4628674745961835 0.7974142757363816 2.175976027459478
Ni 5.082663679491165 5.61728622797433 13.248372491600875 0.5733156386471223 -1.038626689687792 -0.0025693033890729945
Ni 2.744823643935465 3.498143662977101 6.865930482654765 2.016099690684399 0.657310493602539 0.5845282195334901
Ni 6.204733806295529 7.016733937153748 7.248286729658816 -0.06325916506996201 0.4649847780495024 -2.7579362291554763
Ni 7.705860462768082 3.231940606144708 8.573289010861423 0.18272573056942726 -0.16806787144693636 -1.17890145018186
Ni 1.7880718491469443 5.911000781989853 7.208547900394297 -1.494351125481291 -0.572681347497233 -0.1952115217412638
Ni 2.571055154174552 1.4268576197667047 11.296188420385088 -1.30448364166076 0.5375909315520032 -0.1301728961733758
Ni 4.247603391376726 7.923283483305984 10.369235668215167 0.06179055094423551 -1.7911266214099864 2.6290172599938595
Ni 3.32026553365711 4.236050224885926 0.9991134052547894 0.6133901380705049 0.14668117824104418 -0.04191000997022459
P 1.8769601205090183 1.7794369885003425 6.094241760055813 0.1456229121798589 -1.241747181863487 -1.003968476183974
Ni 8.508182161586047 2.9896288696254243 0.9235117371143896 -1.1053840977189995 1.2598248653008044 -1.5349555292662147
P 5.133263039365741 5.9698378912727375 1.854121606734638 -0.8301678160183187 0.5926079112178311 1.18819521677896
Ni 7.551568893973674 2.375833422400746 10.970573828246046 -2.323161656140767 -0.28265216915343583 -1.7023723973927134
P 0.9821299734589604 4.910151169460666 0.32178754801930776 0.5889446034336309 -0.9470542794954334 -0.8850510983197596
P 2.6838070404145067 7.882020855103829 8.863624425293425 -1.45807465964776 1.0745557994842334 -2.1340948138446603
P 7.564442686210426 8.042038213845716 0.06645056288401745 0.0045498241542115195 -0.41143769806098174 1.645219345220489
Ni 1.1598603404577257 8.026310761780302 11.089939001875338 0.7911140445499665 -0.31845632333623863 -0.407633236713227
