# total energy = -340878.0183061908 ev
CRYSTAL
PRIMVEC
9.16606012784413 0.00000000000000 0.00000000000000
0.00000000000000 9.16606012784413 0.00000000000000
0.00000000000000 0.00000000000000 13.41545551665480
PRIMCOORD
 96 1
Ni 4.003194181492783 6.138125363064367 5.449854172098714 -0.8671672760608033 -1.8443232600376238 -0.8573058098856913
Ni 6.072688861197866 7.047132692746766 5.253626244432625 -0.029897558890380767 -0.44247014188675415 -0.8160262344106141
Ni 4.988160649845541 8.172184055065864 9.393890602779564 1.4592074877006225 0.8757771292170013 0.42541550039731246
Ni 1.0298801620277607 8.862553357150334 9.821964850408008 0.31534451718013434 -0.7019361027317137 -0.19238048005037192
Ni 3.4295454866037205 8.742862946536418 13.332185413517962 0.5101914564931278 0.6655822466930279 0.4553557396001706
Ni 4.193701571154267 6.872500918890406 1.1967455333023185 0.9849410272388779 -1.04711698654699 0.24090928088869482
Ni 8.079634347915556 7.653064250722229 9.22146234973126 0.9439596997305099 1.4358664989818368 -0.20711984314307558
Ni 8.30381784177336 4.344199109205263 12.103611653701954 1.5042372742467511 -0.1414458979840338 0.24408279352066994
Ni 4.718522664776648 0.5402411562488011 11.50661058791987 1.357977756924158 2.143928254995314 -0.029717067448458496
Ni 7.226640810487841 8.121761559370723 3.39429831973477 0.37368181946844675 -0.6735092148495885 0.3661628853835823
Ni 1.0641245619399673 5.689620884449757 5.417550227074467 0.461478821778773 0.814492571374907 -0.02779413939413278
Ni 6.379036916301125 8.414122207015195 12.937932093832789 -0.27707878883071635 0.5324469254572185 -0.9829232254779007
Ni 1.5676528983364233 0.85138031087939 4.632652265500008 0.13588897272154662 -0.6317190182866798 0.13907739775185726
Ni 1.8665122824738691 4.588758754295623 12.334411209619882 -1.2952559524149048 -2.699023771089984 -1.5893166205155984
Ni 7.862572882626219 3.7084686903854247 9.422439213048985 -1.5922726178201285 0.0037522679535806347 -0.2386659933804728
Ni 4.4048600938463185 4.594973342930655 12.707561509519756 -2.144869792972977 1.2229223358475003 0.5599001365721648
Ni 4.114314326068715 8.499339066218564 4.59055438543663 0.19865551442580628 0.09756462322005133 -0.19355727396729247
Ni 6.5663178528659545 6.010093837910806 8.820299654068084 -0.6485286336448508 -1.383051154953018 -0.15444411001591465
Ni 2.026735010114493 1.242789402167144 11.538271075536771 -0.7521721160691305 -1.5745962835862881 0.8734433388775023
Ni 4.515613596024903 3.745371247678397 4.148045426624636 1.154803528692392 0.37606908875370076 0.1260349627456023
Ni 0.6578297893199266 3.817113998779264 1.7700083370681738 -0.8237110046493813 1.726297283639427 -1.4109782203805894
Ni 1.225199733154423 2.767682630912977 6.002543754343439 1.268087876640545 -0.3707597607256453 -0.5119840296171763
Ni 9.050338427011518 9.100320951829843 7.101363686344349 -0.8470774472894638 0.2680493316385964 0.2216334633782183
Ni 8.231754278574813 2.0514742058754796 1.3922025953279862 -0.8219253735038683 0.31815447582510364 0.05457115037766085
P 7.4676348582640015 9.055975553870727 1.2977802621332286 1.4242947349838375 0.41733246627886195 0.6931663269588837
P 0.9624821233354546 7.263002570244725 7.835027955919536 -0.7041734767026647 0.09743632517230318 0.31907544497747625
P 6.758310144236693 0.16041888132320484 10.71472258903999 1.5264675463998614 -1.7086600301736379 0.5417692312994088
P 0.6393390966157257 2.0549114783506073 2.9889769826796853 -0.17415341551938396 -1.1506671379265152 0.4336887961496983
P 3.5197761805908083 1.3481349289848608 5.230953995186682 0.9262651106642241 0.38872534406513054 0.9891049288085804
P 4.6528478453518725 6.913060734096915 12.441130728821657 0.08143480753772428 0.6057375066212536 -0.49679112392682184
P 5.277038194715216 6.31072227161545 3.1878337363347526 0.32643934154171517 0.4067904290969575 -0.06208314248398985
P 4.9413770799440675 6.804772902040488 7.435006434718101 -0.4445126262380796 0.6881323640794019 -0.015378796448915452
Ni 3.4773281570379635 2.0726294722023995 13.309003531339707 -0.3339976135049474 1.2944835930252545 0.06106292874959161
Ni 4.778019559806127 1.4316010707408977 3.3750734256298816 -1.6027251806120202 0.18647182787542077 -0.7050265687315794
Ni 6.413501301651739 3.995833835366043 0.43307341671626953 1.8632982584782298 0.003542208825303577 -0.4938657227499108
Ni 5.985721284547166 5.0033121469159045 6.507220598049584 0.21517356668548748 -0.6107120770177095 0.9489530391800431
Ni 2.5438932776323226 5.444978744819994 3.173868327419807 0.0878733640742164 -0.4005696449982263 -0.7689377655632436
Ni 6.7586217902744385 0.20241685133330645 7.776053526306276 -0.8704785998222235 -3.0597703705540016 -0.9812620357253939
Ni 8.520980133721968 7.814111923756884 11.727079994292547 0.15232500679038283 -0.08879304767500837 -1.006425679475215
Ni 5.428727320557589 8.724164184271723 1.7679688887329315 -1.6118253431410756 -0.3940518984843665 1.6311865212765067
Ni 0.24686124273970567 3.8149783068147185 4.065352900327001 -0.18218425624366044 0.7929055892327506 0.9842442582821694
Ni 2.8233114486504456 2.827032868983517 8.698366308588396 -0.4752643055986395 -0.6533466238587844 0.03119699442809466
Ni 2.1592579046355542 4.720328378583582 7.3650583981522475 0.2843773793746587 0.26560961184885223 -1.4664721396828357
Ni 2.3290591649068677 6.568508541190103 13.110254020585863 0.5293505459200819 0.9522463652193343 0.4117133203198715
Ni 4.299010433732249 4.7477623959650685 8.35827157062733 0.6524608788197215 0.49786558793792324 0.3458547699538495
Ni 8.322791585836065 1.5027755261258777 5.068895305741343 1.6265366812093214 -0.17045076985681615 1.2983441044219253
Ni 0.2024489325430743 7.962693755281743 5.104889506494888 0.11725978765613354 0.2700061982546511 -1.3250699504525438
Ni 0.5857735589693274 4.915024657634755 8.997718826750274 0.20865119218593742 1.5031779797443015 0.2577505208157496
Ni 1.9382825317545376 0.5595008813814372 7.699532508161984 1.4619788797981725 1.0117483772397091 0.08405064789401653
Ni 0.8438907233075849 2.799369700103689 10.243035311641133 -0.25072883808227786 0.5841824061582972 -0.03471040689799183
Ni 6.835433372518628 6.1421492633752495 12.44634988334789 -0.608493472099836 -0.20345242159381732 0.5197184221469565
Ni 4.6369997277265504 4.679548577938666 1.7405614529252524 -0.9847461376192524 -0.8102600213507982 1.4371919026614797
Ni 0.25544709107957825 7.589415130542797 0.7987066308645382 -2.130461073746815 -0.535918943166219 -0.34014974914927226
Ni 7.073952584112696 3.6090719364646624 4.972478437905018 -0.5260842164639843 -0.41557768837128434 -0.8527613850481185
Ni 5.736037811953882 1.5285871508991038 5.680277919559362 0.30371721735385115 -0.18052229516020524 -0.1789912032276595
Ni 4.121473018876915 2.9690518015958642 6.686182418618611 -0.406575484872674 0.22715336475518297 -0.7938725811317103
P 8.081119249624813 5.7320414098228 5.031252130805729 -0.6431588846925053 -1.0839909767552043 -1.570712889371482
P 2.7006695667378855 4.284289741478768 5.080513286707275 -0.4839374078926052 -0.5353527862501039 1.0230871992912962
P 1.3137713702935165 8.518633622378948 12.605859491525676 0.2773788365696384 -0.26988741328859966 -1.5244895967378842
P 3.3813503434724614 0.8430208642198792 1.6714851086590905 0.9237688266049315 -0.45415631997543077 0.915224022358714
P 6.939770632743641 8.931647116930371 5.45350318055831 1.3808328071454605 0.9556669608651089 0.8026058472396499
P 5.928525070561039 3.2913671331035825 8.126344589337561 -0.2631158988927211 1.3112227601568063 -0.40846498858590297
P 2.24421811416078 7.407972974155717 4.017956121015966 -1.1558412259282869 0.7420823359332962 0.8819112671391973
P 2.804557690026148 4.860440770729725 10.126092885795332 -0.27647637936002706 -0.7372090670013949 -0.4939791083993235
Ni 3.008695010809005 6.990092301779511 8.726660102391662 -0.7386671396041602 -0.04455361824065875 -0.41889672544218826
Ni 6.006775724214816 4.374612096065194 11.071761705394447 0.9258028263158249 -1.202664871150045 -1.3555308380455622
Ni 9.089010033871688 6.5030720393236034 3.0588443579181233 0.5840831615762715 -0.46977885700403615 0.06778044997908327
Ni 7.334369512888314 2.2006426652360926 11.411789531117996 -0.2538815247786466 -0.18760208482512206 -0.014396635041304237
Ni 7.064465712081343 1.2690593299370538 3.3381681185189294 -0.5769285528093613 0.2290377262620894 -1.1760295279507036
Ni 7.3631509410800495 4.70448026095826 2.7646834961026787 -0.15718850553027122 0.2886454106223932 0.13133863434670284
Ni 0.3425631579012042 9.118588909277655 2.7635569873368304 -1.4326778168412102 -0.4692121858672887 0.01071070154928478
Ni 3.124783159868988 8.224678080306017 11.113135466723065 -1.1592289114535972 -1.902997633950381 -1.2996926480300195
Ni 2.5110971151896364 7.6165283358266045 6.300863257550791 -1.12699139157613 1.025368539126305 0.5704375457683789
Ni 4.6279344944521466 6.071552269766091 10.312635037929505 -0.5290186165019599 0.09382032568627068 1.7935226324459885
Ni 7.901381980385396 6.950036619869356 6.75265560186361 0.4201287980770764 -0.09651098514455636 1.4746261362485378
Ni 7.534657088499027 2.1714854285870753 7.346799606764368 1.161101960106594 1.495150995674767 -1.3573028423443203
Ni 8.575380699428324 4.219724015305968 6.6885573447474265 0.27552378563877067 0.9225706925317724 0.8073554461094934
Ni 2.2804515490785935 7.876083654968455 1.8896070870827542 -0.0008456358297469306 0.5783614286011458 1.4739432512489001
Ni 8.271305827188618 1.1117147451156035 9.26877846771488 1.0365785489095116 -0.006158563402228104 1.1365895767875263
Ni 4.436244683059219 9.097479473250404 7.329426256766083 -1.046626934284449 0.21585362347164758 -1.0756678016014893
Ni 8.649726611550355 0.7331298882810532 12.882137370410522 -1.8526688037888417 -2.93972710661546 -0.06284650301257565
Ni 1.3007097348880308 1.0777911573010752 0.7760490473144891 1.6148597590920255 0.5345050935378278 0.6838075114518029
Ni 6.893408701599117 6.789025611074436 1.441356508328307 -1.1411905658946475 0.36924898050807375 0.3534040430560172
Ni 1.4939394443498155 6.4459491538169456 10.722745641299936 -1.1510872561830692 0.3056691988738994 0.24597306856484735
Ni 5.779200788181553 1.575929850456531 9.41161226305533 -1.476088579726677 0.7494290061063544 0.07527572991486392
Ni 2.7021086381474717 2.802843636818551 2.5794300919951776 0.2959200899069355 -0.18371843349999972 -0.10084997883954246
Ni 5.692269875770588 1.6049770943863444 0.8392371146792585 0.58362036300724 -0.342900572421532 -0.7788303420866071
Ni 3.419224503118403 2.879756045722011 10.960051266558787 1.53987302117249 1.1560533419390928 -0.025330251234672505
P 8.034344845783274 5.942613304679097 10.568763167262157 0.20199126366725859 -0.71230998976687 -0.5477092509329277
P 2.5075956802949726 4.398398021593078 0.9010493564479836 1.7796469029051607 0.5530448042132282 0.5354756849812132
P 6.077070237846162 2.999235636957453 2.3389575930292428 0.07356826030545395 0.740794213249492 1.9713321566607211
P 0.6519965087781364 2.777481148982075 7.996027048836542 -0.7338532631552845 -0.2174515640863868 1.5129666836999491
P 8.351362194649328 5.477939896341486 0.8174988869405571 1.3407235978294008 -1.2562978259841526 -0.45144560591248706
P 3.342715400852025 0.7466764082570303 9.527227443422735 -0.10132897535848999 -0.17923571513829775 0.07646280824442961
P 5.380477181066728 2.682924074706292 12.425058959333953 -0.06522914431213928 -0.25906332608990223 -1.69334448286249
P 0.32770680796070506 2.4563299070859337 12.362798497234472 0.9006281268224102 2.5025087000459485 -0.1489578900903628
