# total energy = -381175.28196834103 ev
CRYSTAL
PRIMVEC
9.21889870292781 0.00000000000000 0.00000000000000
0.00000000000000 9.21889870292781 0.00000000000000
0.00000000000000 0.00000000000000 13.49279011229152
PRIMCOORD
 96 1
Ni 2.075625847520988 1.319399578374127 5.972259854519638 0.05292050214811531 0.3610864993019394 -0.19446718737607155
Ni 0.7574155070929778 1.270797543863067 13.576175374578515 0.12946172903896414 0.2967580124271986 1.14574630358613
Ni 4.2458652534993 1.3663975244927504 11.304502268805383 0.5601022252806418 -0.9269976179548745 0.9741609059042384
Ni 4.04234884343364 1.3802166538046017 4.323427536723001 1.1128541808437995 -3.463000078882894 1.2559471275129532
Ni 1.3040132362650678 4.15987136542662 12.370001389463377 0.3047852536070493 -0.3322137821316472 -0.17268094473891551
Ni 2.8991500779597192 0.45589943703814445 13.396222469863815 0.8006371535490534 1.3310513648469593 -0.9424530332779962
Ni 4.481067018764982 2.5112095972579143 2.40128529166175 -0.6877215017942284 -0.03968420596349939 -0.9443839317521221
Ni 7.863766776954997 0.23615038995293286 9.929870423898127 0.8399192389781277 0.5040948566770866 -0.841837281936447
Ni 8.425428186777898 5.767619660689392 12.676152721838422 0.888612847529089 0.6355119096702087 -0.30583169259369264
Ni 1.617649392581603 6.781892126345943 12.248485240507158 -1.479083657799259 0.10559880637843748 -0.851904693474778
Ni 6.700950194819557 0.3964854780061111 7.893106844298491 -2.080622295847817 0.7328253361114023 -0.2930360834909211
Ni 2.4971784332734996 2.771523642874151 3.8488045162076254 -1.8001851320678288 1.4536798730141738 -0.675749674144333
Ni 0.8941714176672225 1.4185396161457393 8.92977109326762 -0.5630746776454044 -0.2182213523728758 0.4905397437004713
Ni 6.209370853728272 2.6565547558507387 11.693000492885018 0.8878926815336128 -1.58822801543711 -0.3659458842767698
Ni 8.232817734001042 5.773270845658147 2.5368473548404746 -0.09716533089910363 0.1997556894685205 -0.3246269709233248
Ni 5.315156107236656 0.9369812180577781 0.07302013178144025 -0.9102828763033548 0.2890999816613085 -0.44534129278696205
Ni 0.4889298295741226 7.722007769998136 9.608013775515294 -0.8014894742470197 -1.0559698089519298 -0.25636109666739076
Ni 8.722009380301287 3.3001906138664214 0.8942857320124306 0.9969917877558249 -1.3998772253714213 0.28575651911037236
Ni 5.163422251770506 2.0412116982740636 8.94122649692533 0.12393642834536076 0.2115897059889711 -0.14788316896894532
Ni 0.800262183078762 5.375678177905304 0.8831271768963102 1.3316296059479327 0.6575434355489514 0.5885676797101864
Ni 5.332367791309521 3.4248485635361017 0.27785207870687445 -1.2754160348708419 -0.13879329085253517 0.607811872651779
Ni 2.285835178120607 2.5448585779038493 10.853344111423734 0.1313247503896319 -0.08352074353247552 -0.1427964984746573
Ni 9.508556607624719 1.7379099275202936 11.394876977591199 -1.578161375229727 -0.5888337888873795 -0.6296096852531607
Ni 3.6724220910009184 7.30696372680344 2.7606656238591425 0.47978379073554783 0.3849702478980725 -0.9454457973577329
P 0.5451605028480624 1.953752005291054 2.608223756964608 1.0912785115555528 -0.19181689423741805 -0.1714416730151757
Ni 8.629875705623075 8.656343164098274 7.560415224147669 1.2014608235396147 -1.6638102208487993 -0.033022477672607645
P 4.712166374061502 0.12145714800385307 2.4167610570892384 -0.046286541771365444 0.8805282707487416 -0.28827105800211
Ni 7.518666519009812 4.206030391753797 4.901620275886803 0.0846664271011445 -0.5063407152884699 -0.9009243179065903
P 7.871234084988752 1.226565267386575 13.148751272175756 -0.7634152930831175 0.056479680254283376 -0.0021309303000737498
P 7.781607950786072 0.07514232228683594 5.571402774699198 -0.17419121073585483 0.3769692319704669 -0.46690642055224746
P 1.2000240577209185 3.0591071911618064 7.262547994240688 -0.018648211228806593 -0.8807964368084638 -0.44349164117273293
Ni 1.6088084686255888 8.88137648397972 11.123429267885621 1.501097957286821 1.9518840752384383 0.15753843267052223
Ni 7.200927952724114 3.37124988587159 7.784853925056054 0.49537393186432105 -1.113701102225127 0.3325577957346273
Ni 2.5843523403934894 5.597678480079209 10.540810535404527 0.299340171332078 -1.0804832207122617 -0.5911855769490078
Ni 8.237842033850916 5.811944126153955 8.462907619878184 0.8328183662672882 0.41465389100543426 0.7961778322261192
Ni 4.886311372527723 3.397468434078998 4.593350440565884 0.3866424933941728 1.6193224228490692 1.0029048108061502
Ni 4.331822265976752 3.7088459601877926 10.471713966955392 0.09021306795098656 1.0761455125688564 0.7133394594726489
Ni 3.0067438459374474 7.679969591437735 9.399914650852622 -0.41683624336873376 -0.021859776187568805 0.5582196635459483
Ni 5.226267484938544 8.568450182871333 9.917038638648517 0.8287837911865985 0.9404542576804126 0.4868725792615293
Ni 2.9318126364332944 8.324730155107884 4.655214782900846 -0.29504694327336284 0.652042046114748 1.1497060595648263
Ni 0.6078185923703161 4.178521197713394 3.0330979119573196 0.40735632890275647 -0.6667873227447226 0.6109193079325091
Ni 2.1868795183251373 5.373769865852232 4.515996504455224 0.26031185378502264 0.5363200352593797 -1.836527932362921
Ni 0.9200958830026837 7.331347714148235 5.739711288330641 -0.7112306406597623 -0.3326030471502659 0.3225821725791541
Ni 6.296913516800545 6.424115882540986 3.4877915170314946 -1.0936994622922196 -1.2231020559584742 1.2412926108245719
Ni 3.4401611544547035 5.020132907611667 2.132589423250093 -3.1474251908595083 -2.0106304400397117 -3.0750126414250527
Ni 6.346206968722138 7.975315452520973 1.6609487164988157 1.232395051224626 0.8444415523285135 0.5613798064414849
Ni 0.848032672917421 3.7930145062966654 9.338805336329962 -0.34892955222443134 -0.05978123382369059 -0.7432637578359071
Ni 6.553429376108254 1.5825438259241456 1.7886046520605667 0.7270046156645672 0.09744635247463217 -0.15266696351083384
Ni 6.909785909496916 7.306567314154735 6.02600142511566 1.7842121536783402 1.4506801669559015 -0.00020440270132222863
Ni 4.042026181975391 5.7322098703713 8.429256795452488 0.711132424519001 -0.37605314791410077 -0.08703672710553398
Ni 6.493755444129861 7.282911619815702 12.75439720357385 -0.3208651898880474 -0.7284824857616744 0.4588956344326291
Ni 0.5367519452461015 0.07309849242130066 4.381203297437011 1.3024581265902988 1.6301722210793796 0.1725541893530641
Ni 3.9694642294646636 5.145980095227463 12.740823296970266 -0.4305960161569874 0.19463893706724542 -0.46112838041788967
Ni 5.534316988577975 8.444225521445585 4.256071496368646 0.24698891142387142 1.8881073471021095 -0.1527163286915305
Ni 2.4882268825318006 4.80058483252045 6.532130032304319 1.2385024496739445 -1.722242911064395 1.554361187486336
Ni 9.173126974528186 4.792610485052304 6.679363221372838 0.10310895007704822 -0.16811389419352338 -0.3101136077984981
P 7.108360989801968 4.494139417273457 0.6031519857941593 -0.9131236881862598 1.7748811060854013 -0.13090257525054874
Ni 7.356939377236759 7.084465604093951 10.425892352324555 1.0869305189995022 -0.2530091494760224 1.0095171739163453
P 5.283387781947369 6.469924590713493 10.525253643667538 -1.1791169086267757 -0.6840921325717573 0.5226821327609708
Ni 3.2742762893196478 0.7640420515555253 9.336754131345382 -1.0176763126883699 -0.11380576766926206 -0.6643352616598043
P 7.119654140840672 2.3078960029660105 9.68281776421591 1.0467472619123974 0.07362611012658288 0.7270059012161479
P 9.06661181771089 5.742295345666273 4.675494516496717 0.19276743107614544 0.007246911370400422 -1.1234160155200459
P 8.684792685817003 7.18488706879975 0.9640220920387799 -0.5313338948986979 0.6000929067409666 -0.4735540077757522
Ni 4.463993618174222 7.991347117546529 0.3957286064140477 -1.0762391007239271 -1.1420971368693171 0.7733958013345971
Ni 5.407428065396974 5.844772624806057 1.3527471010290695 0.958010264286305 -0.5427133403802331 -1.1691083753508382
Ni 4.733111712151246 3.7252371622668257 7.136202064199426 0.5647698059596402 0.06474834802097881 -0.1958193305285918
Ni 8.736492270327249 8.531583806541716 11.941969761629231 0.26783721562779034 -0.3770237393574862 1.4563363368004145
Ni 7.877585906266848 1.67858631369657 3.642108507943395 0.4039583589648011 0.21618478155882126 1.118879561102273
Ni 6.54417360170592 9.318555103210274 11.798608510059696 -0.8318727145245673 0.8395364017174122 0.04258466743974601
Ni 7.98233103451318 8.183275371811657 3.622922135746047 -1.1506141732013926 -1.2829766208269195 0.4547792982714103
Ni 1.7323601504384163 8.949199922503594 7.627960251927569 1.3075046878752707 -1.565873816111626 -0.5454780476095639
Ni 8.367468969977624 3.759402401245959 11.052726767264287 -0.7234076423419283 0.06216258957167358 -0.2259009804053206
Ni 2.9091618020642356 3.086616385202209 8.582143013269524 0.7506183984287653 0.10467783722606488 -0.9432585598984271
Ni 8.577844240755772 1.6895475843782184 6.895193314575149 0.8522384226651127 0.012023506823437358 0.3304983421024373
Ni 1.710216355503749 6.08404914334448 8.222223375491918 -1.6072264109164835 0.5186771253666358 0.11952698642375546
Ni 1.4805551484211374 8.168755606190468 0.9210970554131354 -0.9999089614026199 -0.08618466351788383 -0.4525144134966335
Ni 8.433467066537693 0.040887659989274155 1.6326549941699284 0.9363885722514713 0.6569793355153654 -0.3468965809548025
Ni 4.5071749401867045 8.520714724848139 7.758165213009484 -0.8871262356812335 -0.758977569026738 -1.79548901214374
Ni 0.4341833990081268 2.82149929330747 5.1902852010045315 -0.17552432772498155 0.7710375855150656 -1.0488517098499097
Ni 6.571682795746323 5.191078948191823 6.72772095506551 -1.0596264318679105 0.6707704757621867 0.23349447648186236
Ni 1.2351849377712185 7.1043323310232624 3.000499885775395 -0.9242367673802857 -0.002612755032498726 0.7151639142758973
Ni 2.4899139410135005 0.5400587642482102 2.441938791621324 -0.2671160211910496 0.335922341331486 0.3519344004890262
Ni 6.495184373444962 2.017297874768432 5.758925317224411 -0.4901733614999881 -0.5994617009148708 0.05766418748068779
Ni 3.7370004771446923 8.101642022874739 11.753327122898956 0.6317071912121379 -0.8484630147830807 -0.7888386182522286
Ni 6.30186406545996 4.737628972566727 9.540698298315691 -0.13203231797961776 -0.2619506749400263 -0.46434791579645196
Ni 4.8261764956089745 6.685969484258009 5.542231413203874 -2.034050104515232 -1.604325692329921 0.7690424094619077
Ni 6.40878485382477 3.944121476643931 2.765779347027444 0.3044967758323531 -0.2831609904690543 -0.7142660850519764
Ni 2.1974351574592728 3.1223303991809352 1.1816388078299078 -0.2772047728856194 -0.6216009560160713 0.1037488976538923
P 4.326678120442386 5.361241382373375 3.8063570185401887 2.2485952935881013 0.7192967054973484 2.7752351254452394
Ni 6.45509138253286 4.9057171545166804 11.92069162129255 -1.9441584244594068 0.987900366977518 0.49311521773713135
P 0.3346782928437533 5.478727028771128 10.384429433049718 -0.3494445441876369 2.4751115389799176 0.9795144569066678
Ni 4.25608901227638 1.3759114280616833 6.811902407632712 0.2574905822861437 0.44711638240951385 -0.37173318038250813
P 2.9234603141140565 7.134542662414148 6.59031050267596 0.30170712890235785 0.352639911196483 1.0423000247743213
P 2.7124120637229914 6.485301713923745 0.44923325131072644 1.8940640789061767 -0.518105569133882 1.6464858706377385
P 3.3061368035970045 2.7017550167019775 12.842667237762004 0.014546530355607207 0.2393095405017427 -0.25542855755079236
Ni 6.164447159841247 6.939968584191379 8.428811522640105 0.12520886729988115 0.42458683384843005 -1.2841981519388463
