# total energy = -340894.0999686083 ev
CRYSTAL
PRIMVEC
9.03177219009111 0.00000000000000 0.00000000000000
0.00000000000000 9.03177219009111 0.00000000000000
0.00000000000000 0.00000000000000 13.21891154572575
PRIMCOORD
 96 1
Ni 6.498305922406321 1.9368906481190988 11.352639633366374 -0.3457874070510238 -0.03630886173336328 0.6357757048545567
Ni 4.522939924625585 0.26913958676927185 5.931484542294841 0.14188015730797499 -0.24986906118514385 0.22665277096968062
Ni 2.88575960588954 1.7995354561814936 4.786395817136155 0.12969312832347987 -0.7270892049585735 0.09919855927904851
Ni 3.411625511687484 4.530662089874575 4.857157042956351 -0.1907995087164972 -1.85072633535049 0.8051209003520198
Ni 5.140460254922662 4.6823687678714165 2.5496241391390235 0.6526891927804437 -0.32474601299969236 -0.22830856140554873
Ni 7.279409711170909 6.21986541660382 2.815561962655936 -0.4982355696828322 -1.2205013851108335 -0.8939679411934153
Ni 5.24438885787019 4.506818211211025 11.49736023555024 -0.0869343971997148 -0.77125047285682 -0.9744401277075541
Ni 5.55653593760162 7.570052141244037 12.517714767273006 -0.343748265133808 1.1970740073258286 0.22524869153330238
Ni 1.8547918386298279 6.484062817613739 0.4601570533581975 -0.528090962481368 0.13593319569592074 -0.8478264096403464
Ni 2.4657280069777654 1.552353914036019 0.26174256532023854 1.0658402739881063 -0.7778301829568668 0.23237476105512236
Ni 0.5840847095347798 -0.0013186387442721175 4.648033582595903 0.005570552109242019 0.10098239065234867 -0.5863297915186031
Ni 8.748689384317785 2.1748146237380057 1.4746228695928438 0.15113972823303 0.7207810033523587 -0.07692072171745462
Ni 6.82978099469078 0.6499055559500668 4.652342641122562 0.26167145313671064 0.5884877184018703 0.6858068012700189
Ni 0.8255906860165517 7.260054623301216 2.5706952637307143 0.7147437960193432 0.7420375987382898 -0.09603173151529266
Ni 7.636489857702022 3.853360459246422 3.9054087562018425 -0.5166163861828651 0.19678040889028045 0.07614064901832047
Ni 7.671135735941939 3.6912853067398252 12.718932717408377 0.621136357674827 0.6190205968834049 -0.4910202828813156
Ni 7.985242710245334 8.881077101533817 6.635999805802216 0.19794409018107845 0.0523682291890711 1.2182400998804825
Ni 6.97350358604422 0.5501333745786611 0.3702276973532833 -0.35738693896316515 0.18063799480246312 -0.5170290482402515
Ni 1.8958683386911264 6.559902608953828 9.287065197819093 0.21892660597001654 -0.3539830554879388 -0.491126983662509
Ni 0.31115900385044715 4.945690086975892 1.5995413111820744 -0.7794566628166963 -1.1388027823887614 -0.7586150434809966
Ni 6.124300234732977 1.9290059109701292 6.9434575893964805 0.8908859598339818 0.03595790615184775 0.4661497448918811
Ni 3.6604056775160827 3.907234980544937 0.04098798869353236 -0.46616825683464236 0.45713468587746436 0.3850265550573046
Ni 5.792346478520802 5.78347727819974 4.876310722305515 1.9331049948587224 -1.4499669429389608 0.13047474368451076
Ni 5.277409017110319 3.030186675476221 9.182927057756038 0.4588156731243131 -0.6306689797556106 0.012358264455036782
P 0.004656781757169204 5.560103487628932 12.466953497859086 0.8353701861548646 -0.5715351497079318 0.14302224133221822
P 3.9314581936417716 6.006065304587317 12.630603791441033 0.41922916908094254 0.03448852069517286 0.9794895172060034
P 2.1956599540241704 8.577139902751316 1.2273139794590524 0.5903075452194285 -0.6442467184400453 1.2111304854188947
P 6.301033953554325 7.7965418932311055 5.839903275150698 -0.40055216149672956 -0.31633927699323583 -0.1204412707079087
P 4.745112489490994 1.2152249523411878 12.72330770787225 0.14988348722842576 -0.0003956927765218992 -0.14027116094964232
P 3.8943556733577314 6.234840094946309 8.209486260481029 -0.36616185694231773 0.7607027792479608 -0.9191866065508878
P 4.708028032751396 0.9420770650602176 3.732147753799485 0.15752172049997387 0.8996814466384248 0.17762851855217796
P 0.16205166989882222 5.58695494644209 3.7147913971223088 0.7627437209373896 -1.075041223761084 0.4445432223656989
Ni 1.8458052252698913 1.1012801140005233 2.710300270128581 -1.1646886490165878 0.5355767293354519 -0.7368748235904277
Ni 1.7623155228585798 6.4851195349636 4.942247175405232 0.27099015943447524 0.2645780852605443 -1.2548698352883745
Ni 5.822566788372409 5.635961342513462 9.333384641654707 1.3855232706425944 -0.40278465037167405 -0.7560992190376785
Ni 8.604497140808851 2.2001939036791334 10.04604204781935 1.250382746051298 0.7660966965700226 0.3311930541766167
Ni 2.1039332753472686 5.1754583722791985 7.004159227316881 1.6207198174172281 0.24193797926352528 0.5605760795932668
Ni 0.6507834442099522 -0.03768236006063102 9.210289714876906 -0.39016567605608293 -0.11867029485041497 -0.45247379006668526
Ni 1.7120446786762609 1.1435488079949994 11.22532777213857 -1.5586667568402255 -0.07328492473708023 1.247009458703691
Ni 3.957659364855014 6.982309563959736 1.589137612760656 1.0783222085052009 0.21610276336797624 -0.5773841522895411
Ni 5.567617922116838 7.716086866286064 7.929760533491474 -0.7243689778139331 1.171317467187015 0.5589056338693793
Ni 5.31407801232775 2.891883147455406 4.831908723712429 -0.2746565525424689 0.3601133367553927 -0.10042600392824641
Ni 0.9277346107732031 7.384973064890447 6.957588700213523 -0.6643157212757784 1.5698911648011349 0.24611833589345997
Ni 4.853276993610192 4.54196986869532 7.175925471416655 0.5168357012825228 0.3362172468640855 -0.7136143104005904
Ni 7.9561694354658 7.382940916140712 9.02394257770348 -0.29714470634265605 -0.14950502084308448 0.44898146064271066
Ni 4.549809446983184 0.34280181782686747 10.701607815420344 0.019332381780024766 -0.4443622167031444 -1.1650210926553421
Ni 8.21586901390964 7.069231339815044 4.900819339404535 -0.32843554603613756 0.5872024239315435 0.4198742588641091
Ni 7.151817865004251 6.14253538284726 7.1114178446823075 0.48895080194679663 -1.2253787678077928 -0.6576051420248223
Ni 2.550617634083338 5.184300477283599 2.4464632368302826 -0.32498923935874996 -0.4770334816839204 0.5175180720615281
Ni 2.2650871870873193 5.410790229270666 11.492746806299733 -0.9009765113007645 -1.339212817611829 -0.7735233280513968
Ni 1.039836967580775 3.3954225123229347 3.7753611711682824 0.17928945119436865 0.13405063396122718 -0.8542297420635286
Ni 3.8191661696175574 2.6558919710918025 2.5340389129943937 0.6037017071381474 -0.033932133971070595 0.3258497875868324
Ni 1.0183052226058114 3.3770699511697777 8.186062359225756 -0.00715640853912316 -0.0842787047444226 -0.3909159239585461
Ni 3.6510577932673045 2.541784560851159 7.084860821643557 -1.0473440149561317 0.434414104351497 -0.5922093902278317
Ni 4.014974991369746 6.767814005482212 5.94922384611419 -0.6911091873195387 1.1655931631087282 1.1597336190041576
Ni 0.6400383447985786 7.276772433682366 11.309730586721429 0.8067604928379719 -0.11220191351725192 0.05015939446321039
P 0.1892120153219394 5.786313254677146 8.046973067021712 -0.7800629289421275 -1.596912430584985 0.22225207079882364
P 8.46657294722132 1.586638521387094 7.916383575654889 -0.31697613924628637 -0.35690614267200466 0.17920306212814946
P 1.7889773144550958 3.3163674100721545 10.259725649974202 0.3735856602102147 0.5091457888374329 0.7349310696004955
P 4.008156003342859 6.12494149056067 3.723609116341712 -0.026507045151593057 2.077673754742454 -0.6252616926971103
P 7.002495574873764 3.793208856254283 10.274358927326736 -0.533373808146862 1.1714123408936665 0.4161096496153544
P 6.072683656489722 7.872878432043351 10.256103909313566 2.0636039069129493 0.1348016531946388 -0.5487726592004355
P 2.4062808822188675 8.596106624415503 5.842890985401419 0.3993401434664993 -0.3884281245396859 -0.8552990638683076
P 7.204373747558494 4.163881819978063 1.716475666127904 -0.667757914188108 -0.5609992831736145 -0.013018523746854997
Ni 5.7185207723860065 2.819502524875977 0.6364960837334859 -0.2683257252284347 0.1336451709926924 -0.4495039088050839
Ni 1.235067755910817 1.1559223359378266 6.754625811685047 1.2012718474572601 0.25048072662721377 0.8708035872618101
Ni 6.872410959574099 0.7909709999160761 9.218393020913624 -1.448875509646995 -0.8794003277918855 -0.5511468158595669
Ni 2.4093426530018003 1.5753126790219074 9.044061753503073 1.3953117174879262 0.3824567374475994 -0.3563641541256056
Ni 6.382076045693733 2.033277721262058 2.7397519761641767 0.6535733951576098 0.046665008156706725 -0.5765786256691101
Ni 4.201932676345313 6.823946469835988 10.529616680192268 -1.11007944631214 0.5189386065581386 0.060276942513186514
Ni 8.041483555865762 7.166404177141233 0.45523383432050757 1.2576517689088857 -0.914718029256573 -1.1289780829888556
Ni 7.686020096562216 3.758752645231008 8.134217277145309 -0.5308731532121954 0.2552863755459732 -0.12008440158912222
Ni 3.189750995305368 8.227384523491468 12.505261759734635 -0.38375180210993914 0.47375506804296474 -0.07054207188462043
Ni -0.10412007651861525 4.979396660904821 10.083028961418963 0.4019842659575658 -0.4910012567179222 0.5150714102932484
Ni 8.459862340461086 2.338334859799969 5.801965315936212 -0.48170209080418325 0.520575113720297 -0.31396974831979474
Ni 3.705447125582419 2.4427511784474345 11.20563128327892 0.006936322108517087 1.7201500330911086 0.0307323960868503
Ni 1.1342551143795472 3.3546440607449304 12.614384534886485 -0.05855044674038304 1.150105094775458 -0.595149189582446
Ni 3.0119695909063795 8.484437792674541 8.049391775622507 0.8605199459476148 -0.4129083690692373 -0.3363967098647432
Ni 5.59693505474634 7.95799385345445 3.7354660269134956 -0.6770110573552599 -1.0295674076990011 -1.2326009965878448
Ni 3.1472745705498086 8.301995993809495 3.6337998829073377 -0.41462458042939565 -0.2801900807661884 0.28233283814080407
Ni 3.5891359629198414 4.577853099729519 9.437734125187738 -1.6224514553963543 -0.9472674239475042 0.5621791624143285
Ni 7.127955922796258 6.30004045861001 11.318467923168063 1.277199094913194 -0.9675883948930433 0.06316917645931702
Ni 0.37193470230306025 0.03469464980991036 0.1819649212917754 0.3795146241001399 0.020073116600791235 -0.24038683272632147
Ni 4.765144960277265 0.377185774672374 1.5288333728179815 -0.41950736244299364 -0.4232868840900839 0.0850880880195954
Ni 6.119341791783625 5.394018228256191 0.21126850626294585 -0.449240113620736 0.8297759798965386 1.8054096136915618
Ni 8.053540971780853 8.782269513435619 11.229901461591304 -1.2902173615497328 1.3238250223018493 0.088820301368518
Ni 0.03877520449937709 4.750414139784746 5.843988345726276 -0.7919357691203136 0.22949486840416605 0.34433601931647795
Ni 7.901319482767413 8.53418479406804 2.424533190700371 -0.050654074711441795 2.030960666956631 1.1329905465823584
P 8.473202268031564 1.6494003065511142 3.5982273448375417 0.6199251109755453 -0.5111777316657972 -0.03755147589121275
P 2.103906180030606 3.2943208540805915 1.4795000265922065 -1.72671148835871 0.008028269621115205 0.5388014069203365
P 4.5936406375719 1.138310380106795 8.37986432119043 0.2872426167375956 -1.2025322022269227 -0.16871733210547715
P 8.689197100697783 1.7715098669796008 12.251683916502216 -0.7218960907934083 -1.479115539478459 0.8089616142543488
P 6.22939393629702 7.553686569979511 1.3730353020050088 -1.2456825123621513 0.7765479738103336 1.0901515970399613
P 1.7607801215810028 3.291602290642058 5.8396919316807265 -0.10235407418889468 -0.2016516209396527 1.2526368321927974
P 6.757626166416877 4.023627429157504 6.14991343757463 0.02469133209909296 0.19596922584289478 -1.0327195801747373
P 2.493654246685227 8.402980239012964 10.291689091864471 -0.4091800123750566 -0.021330128936343912 0.3152465581496893
