# total energy = -381166.14769454324 ev
CRYSTAL
PRIMVEC
9.28299228319655 0.00000000000000 0.00000000000000

0.00000000000000 9.28299228319655 0.00000000000000

0.00000000000000 0.00000000000000 13.58659754569684

PRIMCOORD
 96 1
Ni 1.5841890375437058 6.002763373040928 1.728595264539867 -0.409080767793031 -0.24569281832026724 -2.7547043524817396
Ni 0.2947285049350232 4.461665985388979 8.05516797224781 0.5386849359471303 -0.03994800114784733 -1.073515531145177
Ni 0.9140823195533234 7.008399203377848 13.156771879206831 1.1946743967454003 -0.29123194040264677 -0.10259678632732007
Ni 2.904434757256231 4.684476364687119 9.341859388276848 0.17311571828348896 -0.23472372090327315 1.7443037475191767
Ni 3.9105904351575504 6.073620452666905 5.034948309612451 -1.1167468310299864 -0.00010850055340626476 -2.0549272050745575
Ni 8.07235079084963 3.199791720764643 2.112308676310825 -0.18352508654227104 0.06750817015430309 0.8850235875159338
Ni 5.797989847628975 0.9047538406700344 11.637586066394285 -2.2548587579993105 0.010833343170078117 0.5867859052194153
Ni 7.243138227680492 0.39456894287466787 10.115982962407285 2.8643400479337124 -0.36138320460675183 -0.3444892570648906
Ni 0.522320553526408 5.825337542713232 10.362619997840103 1.163305395515816 1.5008441894048024 0.6249176790941302
Ni 1.8002970964579919 0.09936607703713095 5.4720565643417025 0.01696979508511916 -0.6090120636074673 -0.38892357611886563
Ni 7.991254570803443 0.5126430341355944 2.0375685210386347 -0.46708202689816336 0.05929041023020112 0.688572536940614
Ni 5.932008406329386 4.0811375682491855 3.637987942182243 -0.3519292582827036 0.15650253520684013 0.4450304464147626
Ni 2.3723614921020157 2.9124923945044094 10.970987391164371 -0.08735168724279149 0.49478900589512853 0.8566730613976988
Ni 2.047085444664018 9.365053872641248 8.286221648638557 -0.6960361923075109 -1.2654270419789304 0.5076828311386611
Ni 7.5965881565104505 6.464295180304693 10.055183076553977 0.14626285975670295 0.4662980975442873 0.1844098031400695
Ni 3.4897552657924193 0.4620080247647239 10.505917835565029 0.8166535835819678 0.6753269847846176 0.4291227740455706
Ni 0.5905988179132791 4.342945797869443 12.516707708942578 1.854337449740516 0.3627088653967108 -0.3712112464407672
Ni 4.7952131788962475 3.2716235145738675 10.759824382206427 -0.2661163762819417 0.11755752140221044 1.06888703123423
Ni 2.611964804328675 5.478348576469371 12.058472292216631 -0.6570089032017201 2.6926651758618076 -1.7746149969082083
Ni 9.137472035341307 8.475176955305235 9.296778393152044 1.0708600958002008 -0.4374814304229111 -0.5762780637095559
Ni 8.746992250540167 8.592504693991563 4.21480708644207 -0.24489577634026855 -0.6938674667909663 0.30879925986244877
Ni 3.7278732992636545 3.764633948460414 5.055694868928067 0.3138795025988336 -1.4039231133060208 0.5544943921755612
Ni 7.203991849482831 5.063649464962588 7.964626307616347 -1.6214662086649492 -1.8184692750889973 0.7984100639907475
Ni 6.903371429384883 8.325061688092912 8.124771847923897 -0.6002546291298113 -0.07004122098880196 -0.18199193772719624
P 8.900022377310012 1.787644378060218 9.604949599122882 -1.7456324936329293 -2.0841465069509915 -0.7583152528523908
Ni 6.970580293067848 3.3655302638855904 9.745747527042584 0.6156709636848816 1.1205461501714185 0.4595168129563957
P 1.7612342651903237 2.239939608063687 13.021422139421873 3.361534835056856 -0.27641518710478846 -0.5645245227180535
Ni 4.844505867591903 4.588072490467838 1.4151661717748254 0.0966210283598594 0.005065073227733212 0.1089605237618188
P 3.2408875273287987 7.812399159673652 6.611537361424494 -1.6373224589709157 0.19233779973789455 0.1856842989771189
P 9.357070499330842 6.9330120235478265 2.6441424402657283 -2.518530272285185 1.3793269120238956 1.0015105015617847
P 8.895213787339326 6.444030408285369 8.203695847790275 1.3205787474504096 1.5168842735868004 2.41561106962144
Ni 3.7986653979440814 8.735555604123398 3.7146032618831573 0.10652440351650042 -1.0161403356598178 -0.4177618405067967
Ni 2.5188099773868857 3.41940875073862 1.4879364760976337 -0.6672048698981154 0.2183195685136369 -0.4614209719576441
Ni 8.716766827867275 6.07392679141021 4.66468688186953 -0.28967256633532695 -0.31274950275944846 -2.4789316840569566
Ni 5.63973339623848 2.3731226974641704 -0.1504977264918465 0.5569454248192149 0.8930706261901266 0.9383166425121194
Ni 3.6569048237310207 7.0186569097825 9.851696173863912 -0.32183321022827155 -1.262284896805523 0.8345623455415884
Ni 6.686335071248457 6.978090233774965 4.14834179043604 -0.9461628780294157 1.056671720114961 -0.3186244734829868
Ni 5.6393435105651815 1.641084496868691 9.197134754647493 -0.30352412750643853 -0.8585954752313922 -0.8046686433059496
Ni 5.520205588395682 5.6261895105874515 11.120697919915843 0.2974365265514619 -2.1842686064855736 -2.2337255755651206
Ni 0.8794233397954893 0.0684351469554127 0.6659033791125307 -0.5791381588661703 0.22192039849101777 -1.9636854387487406
Ni 7.645760166307228 2.2108559934340284 11.782188164526318 0.8575698621803554 1.169599970275276 -0.5380848404692862
Ni 7.746341387026141 6.640356410775842 6.5489161524973465 -2.105203327621291 1.6024896675624467 -2.325874941306872
Ni 7.845622988834058 0.543536832248427 13.306889931316821 -0.678312806885819 -0.28491705392821254 0.23756993210281666
Ni 3.3346457487649794 1.3087533753424268 6.781899762970923 0.7626570747608543 0.9333335874752312 -0.2260781294131332
Ni 3.4826723427274877 2.263193503578304 9.009313829630269 0.27696720295351657 -0.6657102876304599 -0.29216370818829684
Ni 5.402497247028278 0.3914582121812754 1.7491793714916084 -0.6764911802960478 1.1275565200509807 -0.2881841547152585
Ni 1.9237144780415585 8.249618810309562 11.055278817133162 1.1069393580212614 -2.74825499731197 -0.75450256397452
Ni 4.8616144222559505 1.269152130525917 4.890495667655183 1.0001943538535227 -0.7343109195179933 0.3393437083082091
Ni 2.565494145268327 4.837794264215828 3.2936223495401507 1.4720666030514775 -0.9440095791318387 2.032406141153906
Ni 7.37455754855891 0.6613714223100413 5.875347806707602 -1.2899165424798624 -0.6074737725860699 0.33374641672608973
Ni 1.3625111832965773 2.4344461440787657 8.57367321597122 -0.5984119194941178 -0.45495207640384877 -0.6889947120796973
Ni 4.297542682914556 8.767981095952763 8.57193358322893 1.110635833036242 0.15678072856889125 -1.8231767078669956
Ni 7.082069029646911 5.506438910931339 2.3572070073005733 1.8692123099698197 -0.6615929230279767 -0.6909973443320229
Ni 9.146977819376024 8.383349596251106 11.752651539876254 -2.270483094800128 -0.3919669909308798 0.15809096273988255
Ni 2.8991248857055876 1.2143453444507477 1.6189519868144195 0.6946436828353585 -0.9875458118515766 -0.8920059323710379
Ni 8.899056946118987 5.504545180518173 0.7341881415939566 -1.3571876569226948 -1.0554311628396404 -0.22574208622995315
P 6.233111542022848 5.0921111191134125 5.471594271329077 -0.12368343179429023 1.151693008087868 0.7361294607839709
Ni 5.318124130727937 8.602651004489555 -0.10711366234511477 1.405916746697282 -1.647808446103904 -2.1492527525320213
P 7.28008453672168 3.9135702756606205 0.31138033638177776 -0.7609236370095153 0.30963718238271193 -0.5741052244279532
Ni 4.953274687450095 3.836744232036281 8.269360021567598 1.3094199026201128 -0.6712559000390376 0.6422661976749069
P 6.233102259030626 9.28228671399521 3.533275789924806 0.6254200726518455 -1.421216610279146 1.9458622945243909
P 9.131660882210708 1.4195087555359982 4.516864513735892 0.6673807333543474 0.8484568441354936 0.06985147357549906
P 7.067968164462598 8.223997751778485 12.108633868984212 0.3490691631260891 -0.13132706438247704 1.018026496938937
Ni 8.388399544019551 4.227233299829642 5.839737320247074 -0.7453900601502905 -0.8107050793080167 0.4846992257592942
Ni 1.4195273215204411 8.86925854108828 2.786638227462724 0.4881894983007398 -1.3129554265771968 1.0870845280788635
Ni 7.841826245015502 7.6457416003227845 0.8832683551735948 0.40791837205381365 -0.08778208991199075 -0.021752046965110922
Ni 3.5646225980580426 3.8665055050981025 12.962551259352173 1.4376472450313433 -2.2133776080363883 0.7449228907058849
Ni 4.204564232824973 5.669541084261408 7.318162442514658 -0.44454939301328594 1.6371823338486255 -0.15347994633043244
Ni 1.8286473547021598 6.510830820310592 8.38240087444608 0.15869260087962347 1.1294923036211129 -0.9954267572615502
Ni 1.0065734125512824 0.9446929864034032 11.17380777501294 -0.6495290498849071 2.192904427783701 -0.05783413739964878
Ni 0.5622169974955583 7.6602509171648405 6.611890115128907 -0.034234238592521685 1.0732972444867839 0.7481509107248792
Ni 2.9102923253479367 1.7393821015011386 3.859653728539484 -2.148067988195301 0.47780841217673187 0.9082110813759907
Ni 1.7059726124963053 4.837033058853673 5.688354924596529 -0.29000012487807475 0.21587316385567337 0.771036299963485
Ni 3.1637644279533736 8.183458924747613 1.0111471428187682 -0.23893518788145948 -0.43112823451137366 0.4108342601490279
Ni 1.0188826602368641 2.458433395978874 6.081360611581111 0.393770876908838 0.6027863944127296 -0.7040984004903551
Ni -0.05147326356846325 0.7640311049873264 7.212730858360061 0.16566928930777275 -0.6633258465586833 1.0359103191978933
Ni 7.773410592343755 4.619931719771697 11.855230460521213 -1.3317393920529195 0.7779492250332343 0.04100112500271003
Ni 4.840115012271179 6.063372029254475 13.047277129356926 -0.9409651358785601 1.0915554193660235 2.017671406046893
Ni 7.820939512517343 2.739383155559667 7.507410163436311 0.015972207058540234 -1.118115429242739 0.8537687432667103
Ni 9.221575944867228 2.493105371925818 0.10536010511449154 -2.2735511922024907 -0.6377487694205275 1.8033835844004684
Ni 5.631480816153652 7.032293625355742 1.7775212750427771 -2.124650637712625 1.023772912504411 0.06683891200142038
Ni 0.5033878908908546 4.005239823846986 3.968033591023598 -0.7034237430208337 -1.4988027334947416 -1.4040290427562658
Ni 5.255696008038995 7.558927057068215 5.9208214724033725 1.398520711343527 1.967824914838411 1.4021727062738174
Ni 4.69572735125946 2.4081381441233067 2.663706346372337 0.1718263100481041 0.49907889151973406 -0.5661139786923605
Ni 1.4167145748773555 6.848833850084134 4.6847808468319805 2.8663982160143218 1.6282999437573311 -1.5741692233511986
Ni 3.758349362726524 0.940552771872657 12.917022824002295 -1.7282492651594752 0.6566450921043981 -0.014040023032833884
Ni 0.049508054115192004 3.68235878840211 10.237799956131882 0.3492666238488759 -0.4365285795913385 1.221568392922767
Ni 0.7255930190961587 1.7309160125952179 2.393904532150228 -0.33980907798040183 1.5363873766167344 0.9774681159006005
P 2.5775249031872662 4.016221603644906 7.40818704447939 0.31342416022896985 -1.0957337191134289 -0.49635917859572587
Ni 5.718044718618245 7.864383916113514 10.621471594437844 -1.27772334284778 1.2111453978172302 -0.5239134340649106
P 5.492765063389211 0.7505187815098506 7.207363432257646 0.7180067830413311 0.3839778020778161 -1.0748386208319747
Ni 7.0318573247213365 2.0065373346409254 3.924149173596133 0.4646896154065868 0.18034874569681844 -0.12005020591707712
P 3.4868775382037844 7.822740413008296 12.448081332347405 -0.0562020011128645 -0.6782266749299158 -0.4555915097600605
P 5.702133669950758 6.3700356772885565 8.915960346654941 -1.0793665906093153 0.20477911082504088 0.023062281136102217
P 3.4802401987654803 6.405728782379856 2.239682469179154 3.7302909350889113 0.7697281226750228 0.8929577547613461
Ni 5.739915448291873 3.029513794447429 6.103072602087754 1.135600730511696 0.0892627882225753 0.6244589942901568
