# total energy = -340857.3788254128 ev
CRYSTAL
PRIMVEC
9.30783419027998 0.00000000000000 0.00000000000000
0.00000000000000 9.30783419027998 0.00000000000000
0.00000000000000 0.00000000000000 13.62295618776616
PRIMCOORD
 96 1
Ni 0.4019252994721503 9.118996581779639 10.999133424480592 -0.2710233266652558 -0.5132595538954902 0.04089365289056828
Ni 0.9002536963819231 6.806716556797355 8.195801867144278 1.086764425735283 -2.2819219327646896 0.5120552491747439
Ni 5.690893426914549 1.6745537842088403 9.216215976251718 -0.11714125980039825 -0.1417498023776978 -1.8638914119775385
Ni 5.530724220883323 -0.006575984661846864 5.6770396469135695 0.2861367852679266 -2.1166321382835225 0.6290538127496909
Ni 5.886879177855594 6.508716946133959 0.011818156723491808 1.5281289932626845 0.2841925170573622 0.8686397468412719
Ni 1.7038269218755187 1.5984901654450574 1.1147611060329587 0.2694307853671553 0.38257320842080567 0.6059385668884661
Ni 4.56458967604202 4.653470182108512 12.561999717177898 1.1256281926800162 -1.5380819907103382 -0.16009693742631784
Ni 2.6031498348658144 1.8063527124632657 3.8327779884761064 -2.0356716992790553 2.5457235448705253 -0.7671886440826207
Ni 6.751465254670359 9.025499390090676 3.556913337648999 -1.27681548632153 -2.1269448330634404 -0.6171637461803242
Ni 1.7049345541115553 7.061779129604984 5.7627554894485264 -1.576319436924982 -1.0799504881372433 0.1005833554417171
Ni 0.8127442342512994 4.506210941719156 12.421914955171205 0.538100267088254 -0.13730667900467966 -0.3065886253643752
Ni 1.1629114616652305 5.652666153020417 2.0449422808058744 0.8428718938485483 -0.3828416315908439 -0.32837486800153126
Ni 8.82127620613373 3.563224979827624 10.497536116299424 -0.43070503093102597 1.50450235498268 0.5296822182278877
Ni 5.261550971858625 8.971513953376293 10.52910084267629 -1.2430548449313172 0.20677402976788256 -1.7258887353470984
Ni 0.9216626451727427 1.6100318795012358 7.528971891281432 -1.1135074981570823 -2.0576507746533075 0.5807839219997094
Ni 1.0346960494685702 0.08462031048301259 3.021094847291262 0.5628831304598887 0.4130880891802111 -0.40400103927727843
Ni 0.9672887162469211 2.0278605440027304 10.049327612678606 0.6460359491299842 -0.6883712195630854 -0.9100951857725811
Ni 5.255808038332285 3.7723161609227804 3.231201513066684 -0.4077286246405107 -0.5932560863247911 -1.233799130661004
Ni 3.9304562591602585 5.619185874423583 0.9008754596875302 -1.3142947142139105 -0.053458634039772454 1.723675529745864
Ni 8.961340490905807 8.490084859724906 4.736429044237469 -1.4776227569830165 0.986270544683579 -0.003027473972414141
Ni 3.8495711824278462 2.179382772325738 10.489675650557132 0.5455693217717894 0.16088472343493582 0.7637757617463298
Ni 7.039840565064328 7.913213237096055 11.421595528705607 1.4401628123643455 0.4423531566929156 1.3018042950563837
Ni 0.4018582830679531 2.9126818517514725 3.832137609502667 -0.7832084165496447 0.1597488100582797 0.6458022358526233
Ni 4.745589814377865 8.953819761101458 8.124104553270618 0.7616265766138108 0.8111370246391126 -1.484941916352249
P 4.237074924030123 5.002569800972246 5.026679883165568 -0.8589919393388624 -1.770340023681938 0.2319055347281877
P 5.1727076971278 5.271231119131549 8.811178137117967 0.6150382151968892 -3.365109954002624 2.455844206109874
P 4.097410876116447 0.6141857980157975 4.283302281175293 2.556179707206843 -2.266619240969348 0.4392938010413015
P 7.986717201532863 0.5056350465340471 12.711334604530581 -1.2197061429030478 -1.3823559286582066 0.48406339194750825
P 2.5220041387837466 8.309326725070884 7.396447882764929 0.3863632715908572 0.060611957255102066 -0.5116230467333317
P 1.855470152039438 3.5290652293549023 2.4765446779366695 1.1164424124156902 0.4743960440610733 -0.08196548323021367
P 2.935644278022918 3.667314486513305 13.24569548809703 -4.086479997089233 0.6934306363638638 -1.272674467569963
P 0.7003744785137022 1.112435078337282 5.247590151767607 -0.51673825647271 1.0919359426338937 -0.03925020374987434
Ni 8.165148377707816 1.2716921166447128 3.6957033799579375 0.657364743879242 0.959318184464451 1.1774233229744366
Ni 5.130208127466097 0.46481554089423194 12.669662501304037 -0.19283376553770662 0.3750506747915153 -0.38121592306196284
Ni 3.2269515561005138 5.867453728472332 10.954314342606954 -0.5283426734808578 0.5646672189435049 -0.22818103468874895
Ni 3.7866316094860086 9.344972173598913 0.963777801293703 -1.0242619363256877 -1.207103880758005 0.22482085996726442
Ni 6.977636311001875 4.339842718299693 6.4215481507246714 -1.4950874894266832 -1.514241950867947 -2.3141080305789306
Ni 5.894399907659942 1.978147403055916 4.515519706418821 0.8652577177429164 0.7586566953522096 0.4231256759218713
Ni 6.307928352892119 1.9233708004586496 0.8982776432414984 -0.0755220415977151 1.3497512552493076 -1.2371713895673466
Ni 3.3420801538108944 4.146230465007299 9.04573834415822 1.0583647915466676 1.9391977380200218 1.4765094693141796
Ni 2.8848048891722353 6.303460592612307 3.5149815458561897 0.9276987577869572 0.5008246705662471 -0.9100548194529489
Ni 9.140739681808054 2.1228562969522122 12.404750378646206 1.5894881130964562 0.975439772616662 0.6636624039624958
Ni 5.860807935056113 5.845840938118745 11.294955932790971 -0.07336180072160269 1.3644613077659729 -1.5014458275445433
Ni 1.257516285590229 4.799323939576509 9.304151737175706 -1.5273059831407567 -0.052217819654135876 0.38612081656274794
Ni 6.222603439381643 9.069385827005904 1.0008527653490016 0.4724569180568315 -2.481047187738062 0.9643408344900232
Ni 4.6644255026279655 3.8017754552677845 7.186341216989507 0.879133190173428 -1.497838569809259 -1.6347588120087975
Ni 8.280351438089527 5.371485798243725 7.794824105164804 1.2523324135785012 0.8023037426181989 1.2637496542765074
Ni 2.7339155935555337 0.3179090674103038 9.118893264823168 -0.39342660619554176 -0.6349586082698999 0.9611418679367512
Ni 8.126939719481516 7.617857051264881 9.312203013513285 0.3772875345418341 1.276047497807254 -1.4045975136652262
Ni 5.7429521420082645 5.8478048910750795 3.906873000366598 2.0488704573575167 1.5402180632167344 0.0693976738675321
Ni 8.517226503424757 5.402350575510087 0.5779867011320203 -1.0330468816071692 1.6185906868893671 -0.7613054458289663
Ni 2.4960538978251776 8.2344638168823 11.83702742597366 1.2091818463329562 -0.12204229664644141 -0.13786615105257546
Ni 8.63412358957923 2.8828967832193992 6.355367590013186 1.706012565248462 0.6780225293389097 -1.8472838853278444
Ni 7.3823781610170895 1.761293488474588 10.760731874383092 0.19554473671096645 -1.926775710206585 0.6863824712678308
Ni 0.9682101918046322 6.93054797921945 13.36258047406741 2.074623140841588 -0.4356844864234884 0.42173753732509306
Ni 2.532177601254233 9.170943602866359 5.315704880366893 -2.221954551072122 -1.1569465431773236 0.31357019888853094
P 2.6826201208429534 7.5931819835528405 1.4757337978402911 -0.33765552197250887 -1.314973228338174 0.16245849567995893
P 4.821830281986057 1.3408772461443699 2.4703047060792 1.301562611359223 -0.017128946370802756 -0.6958261331792339
P 8.738659872292892 0.5235973044256708 9.267860492736158 -0.5553407993362565 0.835143157745723 -1.6694797604297504
P 2.005102890077443 7.517043902117727 9.771582779400413 -0.2715817702718871 0.2530253474259384 3.106392698398231
P 6.668672071985111 7.025878814189919 2.1624667149663037 1.4951862197880765 0.2884196677648323 -0.5808014055012062
P 7.657210573062883 3.9238104657440394 4.287225533171002 -0.8011647439177492 -0.7666543688457054 1.8723428851790012
P 5.910251148819355 7.261785864797857 8.972650439897471 2.7542518383253536 2.4390109366026187 1.0286826911012026
P 2.6172418954150523 2.344243126650765 8.597066310408373 0.1305544478825106 -0.22104056698922578 -1.1945982920918266
Ni 7.99064510744553 5.654099559443522 10.37160577732921 0.2301841811617068 -0.8475250763498438 -0.13005513964858892
Ni 8.153578740149888 5.3484768328026995 2.839310058556276 0.440778356006628 3.3850563152175637 1.0901562250256516
Ni 5.629229027219241 6.038224557334193 6.9661662672668525 0.8512151236069211 2.5140344412973605 -1.3835077828744624
Ni 8.234259044536142 7.965160258182774 13.760411257399793 -2.3200503642052945 0.3143947516723553 -2.3660574270630286
Ni 6.264376997997877 3.7710968346797484 10.313203773421554 -0.9492068070620621 0.23673715178887614 -0.26775416899568083
Ni 3.63898144007217 1.5253864378666493 6.351280520140552 2.284638560364904 0.11951207402542 1.386746344416418
Ni 7.6044910017611125 3.3382453262373897 2.207000977122103 -0.4510049188306426 -1.3481296604854847 -0.5587714222843603
Ni 8.361366824496766 6.1901284068477676 5.308157157844188 0.04558231661548924 -0.38069630311306696 0.44535543385434917
Ni 7.948247923956906 0.696516381355407 6.641299594004135 -0.44897400444354296 -0.14374986352686211 -0.3032441343721745
Ni 4.794558328611377 7.771957549582696 2.752041669324084 -1.7359548613338491 0.43836434724849666 -0.08728869521534
Ni 7.752345943521108 2.9464785967014597 8.498503795502176 -0.6118729300950301 -0.6926739607034973 0.044454116548316984
Ni 0.9538388962379066 9.299819871271074 13.29233983620165 -0.608383685994849 -0.26034244991264194 1.2744261601537472
Ni 4.010792173691611 7.137917211040096 5.381721623201451 2.166403296169379 2.936329136677504 -1.2896303786980112
Ni 9.130259060818329 7.6964337851860565 1.971759436639178 -0.10809843287183964 -0.5237979915329689 2.482769055525176
Ni 2.1262629641655684 3.111813650556217 6.226698886304804 -0.6571492854343263 1.6326525642990721 0.0068530183660914235
Ni 0.3541174721279973 3.5315411131766306 0.976474617538891 -0.22368211837713092 -1.0924671325470154 -0.2879103322285816
Ni 3.9363295023614264 2.2596256085179274 0.7068648311035193 0.8012544754180781 0.883264438732982 -0.13215984469641756
Ni 7.531982975553346 3.7909690600909913 12.869211291068229 -1.507473521795862 -0.10371650175406008 -0.5576686761384847
Ni 3.227631027976402 5.718602848483294 6.800293220611735 -1.7758403846748771 -2.6696851700268667 2.0850211962464607
Ni 1.4452273721797062 4.830542414531688 4.705954265212199 0.041711520806173324 0.6702634542187812 -0.27273028205403355
Ni 9.307833916272985 8.211724778624845 6.954900065094596 -1.3909498409748045 1.5058673536510063 0.5299982068064099
Ni 8.444588167542163 1.1384132427976 1.4716467279676557 1.1494882871270655 -0.7278142560500562 -1.4771555875386109
Ni 2.1074425239868644 1.5317343805975474 11.964756038456501 1.1535447165846262 0.3679143208570503 1.2119930905295062
Ni 3.816556295526826 6.946901843410342 8.738077201889734 -1.628481720750834 -0.24257072775151772 0.3566670300780051
P 0.8655540915420574 7.141621728938773 3.809890955659383 0.32349774241488805 -1.65647357797807 -1.2028967846551928
P 4.731609447835623 7.583259832598094 12.175080507545562 -0.9553201190486517 0.12014610806499308 -0.36425178440379846
P 5.478162882758131 2.5507467299171975 12.328611366427703 0.39415525683145025 0.5525606654879581 -1.2082225677434804
P 7.072362136767786 7.88827755003436 6.1906933923664855 1.2157579568885772 -1.0748998130872132 -0.6121261837564167
P 8.575307387062301 6.413953889032384 12.203293482929178 -0.10960072844897897 -0.5648806205058917 0.35966467925374834
P 0.8963713988554456 4.9045024628303935 6.84463574138886 -0.16539855214488933 0.017703845037666286 0.2843498685708329
P 6.062685544866158 1.56004881137085 6.962175068083555 -1.5490834840271643 2.163940436451183 1.7615519930766632
P 5.835230007454195 4.050974092708161 0.9374310466103007 0.05567569629574927 1.5794147880208542 0.27503347626591346
