# total energy = -340855.2731621339 ev
CRYSTAL
PRIMVEC
9.39291394114647 0.00000000000000 0.00000000000000

0.00000000000000 9.39291394114647 0.00000000000000

0.00000000000000 0.00000000000000 13.74747900315551

PRIMCOORD
 96 1
Ni 6.3948367241299255 5.039721025753386 12.77175176840609 -0.3980219388757081 0.13916095860459904 -0.4839690324614891
Ni 1.851953882792061 0.2986167030434426 0.7954689768299172 0.9688878304307572 0.5178590003407145 0.4290361278690353
Ni 2.403750006842995 8.636493214601645 11.455306696841888 0.8525778082824026 -1.7805976968542043 0.23114988750908577
Ni 7.595457773536499 4.994710182011649 8.414282230951521 0.38248167714826387 0.48856513647260374 -0.3439333845614206
Ni 5.285834157581639 1.805665602750475 1.92912888183948 -0.8677228914539572 -1.3586097340812022 -1.2352091236346534
Ni 1.1636787187646167 0.21812694465619473 9.707369943347823 0.5660610139672381 0.004854756989140026 0.028974018634846874
Ni 1.0008525551037215 3.838235828261622 12.881401828211581 -2.7219240727269254 -1.5751691253706226 -0.7377726528143488
Ni 9.171663880926605 1.842532790080675 5.757829023839288 0.5563155045447 0.6081222048033462 -1.310686428037362
Ni 3.541335210600403 1.3701537536416744 5.4903996130487025 0.8921843669304312 -1.7267438842585423 -1.7387493933598508
Ni 3.8506626534432407 2.752368008820158 7.325797545678162 0.8442201803463267 -1.1207415540116765 -0.0025423068058794927
Ni 1.1410417960981756 7.207295603747835 5.985130027569472 0.05818920674622236 0.22776451597662062 -0.5041421649752543
Ni 8.156778312352483 1.1634438959153797 9.098108910923022 0.8891980306085976 0.8249335642025728 -0.17872689382267928
Ni 4.333702647237598 9.124915348100513 0.17911065860977848 -0.07775813001708544 1.125321974293507 -1.0782391618730915
Ni 1.628975498070631 6.192006139873025 12.520227378840021 -1.5807728447106453 -0.767347024037356 -1.8848322758952636
Ni 0.4872639872064317 1.0303463049678814 3.0508541503594246 -0.006071660115376639 0.8316834813318968 -0.45039839559489525
Ni 7.474909115652223 8.306445003542139 3.1909682480421226 -2.98322400145683 1.4012327109580511 -1.2355053147188335
Ni 6.6609097981433205 0.5779948396946011 0.29997116123784134 0.8875908340224777 0.49427581370413587 -0.49997440675080995
Ni 1.6034831295574687 4.304500077706492 3.7369633084255076 0.2017938029444718 -1.187033335260375 -0.12339932489496813
Ni 5.078983406145802 8.32872499547774 2.2505994838620587 -0.5838998419208719 0.15990898978522783 2.032939645059873
Ni 2.8551077018183046 7.1807418359561215 0.2946679220106742 0.6173771477427109 1.7538795641330698 1.036377745752615
Ni 6.346463217187116 4.532700922594952 4.461097800114227 -0.9827815576937139 2.270621677260522 -1.6593856094185424
Ni 5.647292272955078 2.626953821499692 12.900744655948927 -2.721927929381667 1.1774716597138688 2.464652034209491
Ni 2.8276991788553687 4.31281280656948 8.42973451372271 -0.4086544788888897 0.9113442276883337 0.05455880908248669
Ni 6.245245176252025 6.676736858181889 7.07006700923656 1.1274703880950776 1.1999089056714625 0.581490975369063
P 8.490461581118177 4.808918343695381 4.331376961738756 -1.0455599264725155 -0.8355717606427093 0.3677505415856763
P 0.2814483348900314 4.725424731420694 11.061042890138653 0.42795035100402423 -1.0123104203907662 -0.7694465868788619
P 2.738250459124033 1.451383673649717 8.91231237614977 2.602195768925641 -0.23470212363671836 -0.8555852276501589
P 3.5140206167771617 2.167846972499564 -0.0037158367663253588 -0.20081729796381545 -0.34585528417448175 0.6392803755737054
P 6.148920843495032 9.287685154277593 7.127422020516985 0.5315226138707363 -0.3855929690837359 0.4557090091745313
P 2.422977301738516 2.357574441769043 3.652856338868614 0.7010393019490572 -1.389921142599974 0.29109438638351803
P 8.862740333384453 8.517438030038516 10.019121697286183 -2.7502293474295216 2.4879061196414245 -1.9825174838535793
P 5.013730832799841 5.42356245511609 9.602463305096919 -0.009310735877964611 0.9016349708203697 -0.7973080891758203
Ni 6.711932106825523 6.878365149450697 10.381532254136127 -0.34064237251497465 -1.3349478716878882 0.7298567404013817
Ni 0.6242446087889121 6.16532087128574 1.095395052080705 -0.6757977537734491 -0.8913109631865423 -0.7458708564414509
Ni 5.213574470414448 6.403562741207572 0.7438511574020495 -0.35696990603040457 -0.6947660673458357 0.13889922030278015
Ni 9.203787646702217 1.7138310828708923 0.7608936605082699 -0.7063378313438352 -0.5185621970553264 0.8646943890402786
Ni 9.303446463918375 6.817752675605658 10.789956817939748 0.8882760330149606 -2.7651772269886057 1.1278084881607866
Ni 2.4533915571716842 4.508410847069883 0.5512795137826128 0.3443205926975102 0.83652075481954 2.230728697720326
Ni 8.257028883148719 7.2538093137246875 12.916224178170625 -2.9439673699490525 -2.5848274528505226 1.016190986392095
Ni 0.552587007407164 4.998147988524478 8.594538825065577 0.555117884692173 0.6572122774617778 3.1368579568666233
Ni 8.857527266131394 8.342823759345928 1.4767407842017188 1.1619041442929152 0.6371178207047479 -0.5803072394736071
Ni 2.2734608971723707 8.668729695344892 7.642044748242314 0.663297050203277 0.07159005353316059 0.2470135940142197
Ni 7.536179093475125 5.980477717280389 2.643626243795515 -0.6722473174180293 0.5407389902626817 -0.5921322571329931
Ni 8.673501295641389 9.082046088743818 6.769533212451947 -0.9241136115388602 -0.739854475044042 0.6641645404098949
Ni 0.6127345320107143 8.370589213039702 13.100852234446075 1.9689610853253832 1.1210382593164885 -0.5332694213585139
Ni 0.5162430053850642 6.095512734664582 3.826597068562042 0.0003679248623800115 4.561051904606539 -1.032160622347474
Ni 7.748102018454479 9.178614637264017 11.579762806937469 -0.4241263492722437 -0.06694098479692341 1.6360842156884403
Ni 3.6307839303317384 4.209697397012555 4.841944768503462 1.2735764105589422 0.263853548389694 0.4571750521970965
Ni 7.2744267598876915 0.805342807994632 5.122667970435049 -1.9122389500429906 -3.5782605767208118 -1.2360742998484262
Ni 4.176098943743733 8.647088421559216 6.335690484155522 1.5887229527956572 -0.28359242157951803 -0.3168581256111833
Ni 1.39144748961048 2.7555615995697806 9.737916638867961 -1.352565070549019 2.2227071129674303 0.594167285285151
Ni 6.722067060998588 8.882277594440968 9.366006088829288 -0.6591125798082842 -0.854369867185819 -0.6934000402362445
Ni 5.336424392221246 1.2134611628028482 8.791815379292325 -1.3948203796738043 -1.7650345523086248 -0.13464018791611004
Ni 7.985883635591807 2.8218192147104757 12.895547556649612 0.6417468348363271 1.0482634414466077 -0.03702105730903947
Ni 4.5013943403346826 6.508725806009843 5.323862309078466 1.0319065973551391 -0.949000861698843 -0.026295700471735357
Ni 2.7264435662644 9.423159152459368 3.3555809439400126 -0.06866413813561723 0.21629353922254363 0.0845090755876738
P 8.099227928461493 5.172602579679586 0.3014899954267058 0.31673805509355124 -0.34133888436136695 0.5998237122399799
P 7.284448999093125 1.6082171581980855 2.2497062177435616 1.7607696063846836 -0.13659911141469377 -0.6989022010013963
P 0.04609760388800546 1.0033886418754805 12.447159901071455 0.10697897455541576 0.5098461573385671 0.21177919629195785
P 1.3987551766787336 0.33151444493014115 5.736231896749268 0.6280019744464087 -0.9510639148754589 -0.7479187401094152
P 8.51628270162027 6.501521440995254 6.636058965654272 -0.9347240400648548 0.15506657409126198 0.596120809467096
P 2.370593020530739 7.431588996424991 9.489527603984902 -0.8294034270484684 0.16539983769647 0.46759933285421407
P 4.6516903567602945 5.657117260967151 2.869868666121339 0.35927207180101994 -0.38560685304080694 0.5628234808665468
P 5.226903015337136 0.1807234219383378 4.269554680574448 -0.8914973681657355 -1.0675706264156517 -0.45938003026821533
Ni 3.1287890361469746 3.7054857751309944 11.978810424725358 0.5090187763412654 -1.4424588074873739 1.060692668348896
Ni 2.9532072953155293 7.038382831834719 3.8818753065638147 -1.1959342372944306 -0.22740636130625355 -1.4213580209530168
Ni 8.117281109110829 3.203293629752871 10.429345943406357 0.4191330098227104 1.4658057097434305 -0.9557392088639409
Ni 2.0254128250664047 1.4829156858452535 11.574455810544713 -0.018610930232967945 0.9990625542419246 1.5267531959610803
Ni 5.5225637683543845 2.3277143682600734 4.295427462103374 -1.8030555116370883 -0.3776019804584594 -1.2112541554809526
Ni 4.3824330849112485 7.39907072826266 12.089684381221073 0.7489659504270069 -0.4356780586655851 -0.3008193269807658
Ni 1.9606580761608259 2.776582941033471 5.860220239729166 -1.304213675828825 1.637487266683554 0.05263228148373515
Ni 6.047402229312918 3.23316309617581 8.3640348376718 0.8386316305149557 1.2901427995580554 -0.3737563814601241
Ni 4.515549461686685 7.727390643151782 9.29138502309017 0.5274970376511109 1.308610776455256 1.5653554817143105
Ni 4.125020277577714 2.8796513860205493 10.107201869452165 0.12879427065829432 -0.15382370282309638 -0.6473652094643689
Ni 2.8962298791766776 5.448256425941847 10.487800864912606 -0.030395581572721847 1.0991144626602039 -0.3645700869751657
Ni 6.429139645946459 4.102589999018601 1.42845932781581 -0.14912604023711093 -0.5302694581899254 0.35075940634431846
Ni 6.846814351427221 6.977469784742655 4.835758595363163 0.7982300867694575 -0.6658015617926857 0.9797132031810352
Ni 8.21510830810294 2.7733235998860626 3.7919118551469517 -0.044118330475453056 -0.8506211987766641 -0.6284773714209306
Ni 7.044732441678085 2.791620996298605 5.770958438985824 1.960424508609282 1.9667846464993548 3.9016333635220612
Ni 0.1996942902824918 7.493384977430185 8.335687962603314 0.5066111953410372 -1.06838695166936 -0.05038488021045516
Ni 6.616359207186087 1.6973559117684283 11.281923837170696 -0.6875332970428224 -1.3108628057142262 -2.851758097503643
Ni 3.757992164220374 3.3970788378571646 2.171675524233523 0.839588080890954 1.3601009739147478 1.057793235313914
Ni 0.31087445577361095 4.3894965562162955 6.561465139365667 -2.1519292709229196 -0.33518906270988724 -2.2696122621594013
Ni 9.077988349909004 8.806561314933008 4.437342181394021 2.603549197629742 -0.6400825597600267 1.6188711942442635
Ni 9.093984482399025 4.232991823656859 2.169709587339711 -0.22713253881957657 -0.23912673506697527 -0.9906733017369648
Ni 1.5587165015789382 2.9111176478183 1.7320176428985947 -0.6106154035388451 -2.0247033731930095 0.019161917640431514
Ni 0.9295584594925923 1.3091185986680085 7.608610670967958 0.16895310226536708 0.9728630130284213 1.513326381032213
Ni 4.125377208308554 6.338807992301992 7.688333028283901 -1.9009962872496358 -1.5585749684573675 -1.040806728058246
P 6.722733957890422 7.929920654161659 0.9144424430415119 0.7822504235117496 -0.27093642337840435 -0.2506535047596522
P 1.6522605318009662 7.763515790278392 1.9236020912598395 0.36627395704014987 1.663930034256115 2.238855954813151
P 2.1965235388483793 5.342060140602933 6.451692032387175 2.10985291057816 -0.437965054927549 -0.10380906146786639
P 5.3911662948353625 3.912693457297671 6.273277388702534 -1.6233881082780104 0.6687986967477967 0.8490862501893763
P 5.073573087699383 0.0982611516174996 11.464957915945527 0.1785281475483119 -0.7659120913630423 -0.2982641646590799
P 3.62680133480868 5.443419075247566 13.029201208104107 3.4190295868392147 1.969028962448841 -2.1183097830962616
P 8.361017833704805 2.726002099307834 7.630469860357727 0.045207706884889884 1.0114285320064451 0.6181214821079032
P 5.9962953844049895 3.933461190084186 10.920461025340273 0.8254007336469785 -0.9818873280142187 0.25209949317755936
