# total energy = -381166.0140214772 ev
CRYSTAL
PRIMVEC
9.27992517517933 0.00000000000000 0.00000000000000

0.00000000000000 9.27992517517933 0.00000000000000

0.00000000000000 0.00000000000000 13.58210852308642

PRIMCOORD
 96 1
Ni 7.133376353114793 8.946636599967835 9.429283648969747 -1.0300854849860002 -2.1101655567225723 -1.4885820842079975
Ni 7.8520044737316566 5.711942384194134 1.5958566573164075 -0.12669856447153016 0.4496028962767934 -0.9720675137103195
Ni 8.250020461712614 4.389228258596894 7.884929648023017 0.6328261353079295 -0.6065839137819489 0.6136948137951174
Ni 9.00350398104378 3.528208967087519 0.27656868006989155 0.4409472774843245 1.5910911959175178 2.355013767654357
Ni 5.317127970376233 2.9377180523937385 9.10941112636513 -0.7449059214250204 0.2185072590444108 0.5123565824652466
Ni 0.26359070480313085 6.871877343431525 6.441382545557014 0.38953575578156785 -0.6512326628395753 -0.4416635868250587
Ni 8.296364407713474 2.857056943334973 11.958842755236965 -0.15030103438181855 -1.2608916160024222 -1.4201979392066444
Ni 1.1605845539951118 9.060260003018403 11.771083886465197 0.29204955120793574 -0.2107425274973274 -1.5407574806599724
Ni 3.3066878747794424 0.8742682405893564 9.769257417355792 0.9458204070883325 0.20779218661975182 -1.15474387909905
Ni 2.34238301679238 3.181436725565664 9.28498730945209 -0.1876015706044898 -0.8912988790016843 0.001648334236700387
Ni 6.202683383877253 7.528608363562658 4.810647289713528 0.39844257135289446 -0.22666562648548705 1.0189238119422257
Ni 6.010987970873694 5.982118123855537 8.229901584073474 -0.4076743743638076 -0.8222616737973645 0.567762570039377
Ni 8.783486236603574 7.794691656250417 2.330146507541932 0.5085400369326338 0.09565120824742236 -1.1870207368548849
Ni 3.3841102899747124 8.494444409192921 2.8671154541620316 2.023813771499205 -1.69107651276392 -0.628116388537086
Ni 2.6170688000573903 5.0095448525951936 2.3230297329748395 -0.5117037793725961 -1.2988567823922856 -0.6165569658342608
Ni 8.224166590355306 7.519402677853236 12.574261404762046 0.5571966215980726 1.5487872929429842 -1.011416190711271
Ni 2.765491922271599 1.1673774591758546 3.273804460151079 -1.4400771946290747 2.047023119736133 -0.5422744530706016
Ni 2.3403785529685535 7.344401850123116 0.08692877047826561 1.1260580811285832 0.6611573781524549 -0.7496112973204896
Ni 5.053559537393366 8.055346192748647 7.7910093819666475 -0.35700924390877226 1.3453922069496635 -0.37488998084393504
Ni 2.1511701598945567 7.279321735324551 7.798954853846091 1.4189704945574466 1.002890412628447 -0.16971080636699806
Ni 1.8221504151087138 1.5949592885582409 5.493759280948234 -1.1325557730377849 -0.7169076364398815 0.05985039649872919
Ni 3.8724663489044824 2.851971544374526 1.5332162348293414 0.8411628815772416 0.02424807391408727 1.3614004094524619
Ni 0.1727439499432947 4.874475542614713 9.858396665995333 0.141684239247085 -0.28040991008647836 1.498099793890446
Ni 5.080545559614132 5.5230773483492195 5.613104685821815 0.10915978425681845 -0.1283996063230369 0.5842369135453164
P 5.240967624995965 -0.003373252777595656 4.025071005373395 -0.6049494635023194 0.3723340471913007 -2.162418600490018
Ni 0.7774851176364587 2.633123070498217 7.695663719413337 -0.4450870106843109 -0.5821910867598813 -0.5901594496773385
P 3.920313642773212 6.637939711325861 9.057012029229796 0.680320581344467 0.36908751522954497 -0.48221579721580826
Ni 7.1727046757322634 3.770609890893781 10.279442644122533 -0.06183117437418384 0.07603497667839162 -1.6834519063391264
P 4.339998255886729 3.975891114258825 3.58120847537749 0.11744336442184936 -0.005407544168816493 0.06642393595118883
P 8.23769672116613 1.8589267583208502 6.633623618157058 -0.16493369669332886 -0.06443724453846321 -0.8318387759628384
P 6.2355899983183924 4.7248831498366055 11.873981552073277 0.8472425121124183 0.9556880439110313 0.6675146878290503
Ni 1.700555556388395 7.111438610154034 2.3106558808327597 0.7612434822427793 0.7172920163624937 2.053964326940656
Ni 3.8627873870144347 4.542226383890483 7.397971145814858 -0.028804840046834257 1.1853451489246747 1.1223711191952992
Ni 1.0989008917869183 0.3072295526343374 9.03176228099717 0.7800045649003663 0.0352433965833264 -0.5805949459173549
Ni 6.032099800499637 7.182012440617899 2.5150944869977883 -0.03273734233202104 -0.6422250600243262 0.9257909992412829
Ni 1.6259727982768784 7.883036543300515 4.638629957906369 -0.09609420932211192 0.11201550853805868 -0.2910871872946664
Ni 8.482501145575961 5.377800120747404 12.173657245667824 -0.5656342108424646 -2.9662452075106462 1.2898208974422625
Ni 7.1412271697581104 0.17432896115213467 2.909464392402906 -1.220134488689718 -0.5521613731670103 -0.42193885470262177
Ni 3.9417873894784563 5.884883068549768 12.342999175065684 -0.627884217921622 -0.20056944361906748 0.3345534860084174
Ni 4.032925533986756 1.322677005896799 5.2435363082664965 0.7255280311190407 -0.014763788572735862 0.23696032354327579
Ni 8.529197728731011 8.575745833084298 4.40727214498137 0.24822561204444993 -1.5924595370199541 2.3160512703482308
Ni 1.8783589215018277 3.493604126351194 4.056446432171334 0.878741611161964 -0.006154963857802303 0.04195397583428258
Ni 6.10686815711336 6.8005239992583935 12.865271504288593 -1.29406681720281 -0.5698991567664056 -0.4755317003274133
Ni 1.176471785783953 1.9568206883094514 12.70387597476269 0.3429463380578029 0.8172865891802763 -0.652250048360496
Ni 3.9951840785631476 6.266668467512802 3.694740935161976 0.26995194797794797 -0.0013097199503590347 0.007202174175394049
Ni 4.9996524524276085 0.7634399509820129 1.5783630704909726 0.08336622023248223 -1.1556201110564164 0.8510773124774762
Ni 4.917376636399649 5.062366186323045 10.305234339981602 0.9447832240730697 -0.08956283596149736 -1.1931746722714227
Ni 1.3782359175321917 4.979644933889792 7.9361214269015 0.421545475918945 0.3181423916402456 -1.289787730211482
Ni 0.6661102404401181 5.938743753889974 0.9021859672911963 -0.34153711641510215 -1.5433753778987935 -2.4091558009143994
Ni 3.717268881359751 2.2576109009097487 7.547903183852004 -0.20275102465141856 -2.0533953418110635 -0.6536893519101838
Ni 5.49048625136183 1.791303944042062 13.08304721882215 -3.002601120431861 0.7938201306272199 0.3310377595456751
Ni 0.5619384411143958 7.400795955018436 9.571637700161816 -1.1121607543212007 -0.8700983336646693 0.15224170304795717
Ni 7.472269938218001 5.968671512370706 6.337656182636586 -1.945701086356178 -0.7698913877257645 -2.270756917286805
Ni 6.213485216705647 3.7832213091186846 7.164208904293779 0.3214544867326141 0.9590420479849291 1.969077813408906
Ni 8.736483415919881 1.5440681792533317 4.423271663864046 -0.1703147584995841 1.987573815330564 0.8602548652116864
Ni 6.252089705164514 0.4939564937338387 5.843023182362207 0.000884973708114605 1.7462708985478763 0.26327839261251434
P 8.139440874098227 6.605784770818656 8.182541486273035 0.8603412542779053 1.0207148424043775 2.322703999778058
Ni 9.202140778029847 3.993393053016859 5.582722211010679 -0.06541477796038413 0.002288796034176703 0.6959600876539368
P 0.7520312110514046 5.48439862048947 3.9599584108369434 1.7654186751209207 1.112137100172117 0.14280678288730245
Ni 1.581791074826719 2.481377735094519 1.5859150735457384 -0.30073113814233365 0.3745673073971936 0.36673598427823295
P 6.873065173845644 3.009238435218855 0.7750946089280442 1.2853950004604249 -0.5340044997523256 0.8029094945229979
P 2.835991513334582 9.228978321448848 6.847189030668071 -1.2317319637193302 1.00264847182097 0.5465723091150071
P 0.38025421131983383 1.5843430542320527 10.575952955261956 0.06149333141879086 -0.008063236624108693 0.3608252752207528
Ni 0.46623735742935946 9.201073586642162 6.366083377226982 1.1385451578520005 1.105671289942115 1.0803600648708362
Ni 8.035245874959728 6.25562535663154 3.940291465550675 1.0558600228469428 0.5884141848514577 -0.13354361241782162
Ni 7.436783504596196 1.0643610105263652 13.528404744753326 2.277970661426425 -1.0163635074142174 0.5919682207513031
Ni 2.5803481363959158 4.050947148550968 0.024564889759486824 -0.7223128666158528 0.8301151084035122 -0.9968326364701413
Ni 7.908574897204073 0.46519707782449427 11.291988264803 0.9906123665920423 0.010094922342156809 1.097559202357942
Ni 7.688306594785887 8.498991572496971 6.883358466777994 0.034725833516959556 -1.4122630006302839 1.3176415191989566
Ni 8.650226512019602 1.8236073633510315 1.909617421243377 -1.1869027232197817 0.12074594643252107 -0.34955201629977867
Ni 8.272904757034624 1.4553520951988212 8.740698357904982 -0.8814194151044433 1.2205528071740592 0.43760432915402053
Ni 5.124625203888078 8.293125713849978 10.523784000269359 0.9007623384074295 0.011932489771527836 -0.12598071246889916
Ni 2.346336264889369 5.6392527308051195 5.641940197117064 -0.19572599948383712 -0.05573328900656208 -0.34794353416207824
Ni 3.898431579363114 8.120686145450302 5.428266209482261 0.370817096326142 -1.330554884826515 -0.17818233417311893
Ni 6.100381489461257 4.509431128550667 2.1382042485304398 -1.6146684690168258 -0.31101735055969015 0.7648651381557666
Ni 2.3142555637830466 0.47453453847048266 0.5154775680571457 1.6500077677480682 -0.1495890959164585 1.1515325712506037
Ni 7.402559140789393 6.239608205891154 10.405619929862318 -0.7462598643497536 1.4265668188474656 -1.3082881030085147
Ni 5.239102360048793 4.126662057525941 0.03190902249178174 -1.6236616736543714 0.881546941821243 -0.8677468027133571
Ni 5.652021907756899 1.3922857241491926 10.963083591088525 0.1392069813511861 -0.28045027640611053 -2.006100413379842
Ni 1.001832875133134 6.619166422827715 11.87444369234377 1.618881735767225 -0.12270924080647899 -0.31995861891337796
Ni 3.041541854527825 7.594171034466958 10.795806445027711 -2.056565769119245 0.1075045080415826 -0.006691810197878798
Ni 6.5899253788051455 2.312687256439405 3.3499044860181306 -0.1291771079190098 0.7579704679184623 -1.136237078544114
Ni 2.691039083111627 5.225637188713741 10.20574611885905 -1.4086104914793611 0.7056204935618363 -0.20696094896770809
Ni 5.754101083970248 2.943063289257274 5.377210845502899 -2.1666364952261072 -1.5452191159757518 -1.5311801213841822
Ni 0.2347848892682349 8.90322511030183 0.20797889759460952 -0.8172133127401797 0.25795286663454287 1.6692203361207767
Ni 6.827120264624527 4.4972187471055065 4.2968224763185265 -0.17410173634584208 0.2063027465584189 0.7686698566138375
Ni 3.3638243736835864 2.8285954130216693 11.318609585966932 0.5022763154111092 0.39645433727827206 1.0386526578297208
Ni 8.88094401011199 3.893271941001785 3.1572829364885635 -0.5310155923273306 -0.24998347527582107 -1.1447880534379187
P 5.551631677913626 0.9528905501013886 8.445708098498624 0.1571615089470777 -1.035889750372603 0.45607924802975647
Ni 4.368404106649371 6.295445515279856 1.2127841327405742 -0.5122395972714081 -0.07489829197078714 -0.5332966750520235
P 0.5751623343965796 0.46126795753279143 2.929946115113859 1.7755951014332905 -1.248738782689972 -0.08696653598923086
Ni 3.511959818219376 0.4063131690220797 11.98109044769641 0.3951500166445517 -0.030591242523295696 0.7690719771482626
P 1.4378779962161181 4.339023863750147 11.680422730107567 -0.6032653909316772 -0.5235717344547757 1.1294892182973193
P 4.855767213592339 8.746719173316547 13.33760298853789 0.424288842992037 -0.6482383560979416 0.4274970655166896
P 2.243793092420505 3.4431398936013586 6.32828438626769 0.3923063765481696 1.8566594130054732 0.19192925144556625
Ni 6.999847510702622 8.14989934969754 0.8295399295502003 -0.07321730472393842 1.5193574177176414 -0.6273064910412809
