# total energy = -381167.0297512791 ev
CRYSTAL
PRIMVEC
9.24733329314788 0.00000000000000 0.00000000000000
0.00000000000000 9.24733329314788 0.00000000000000
0.00000000000000 0.00000000000000 13.53440700929377
PRIMCOORD
 96 1
Ni 1.7189497580319892 6.39705535093048 2.2532347712108507 0.9835320627064933 -1.0774495760922604 -0.26262456107859933
Ni 4.254670210888631 7.650882749400733 11.680030850453592 1.0700211448386734 -0.8180741180785782 -0.9488288548973529
Ni 1.0080425323763442 0.5413878897222503 11.588998254087977 -0.19310810224501582 -0.5375294821864484 0.5311816855915497
Ni 8.274273214730076 4.9006334162810035 4.772786262166549 -0.550229189141304 0.27910430390117735 0.5729016910381552
Ni 2.0620443101903168 6.113624591843296 8.559780924828388 1.755479561630338 -1.5972150494270685 -0.9687698167956541
Ni 4.220325615807072 4.957846666084346 2.6770650143434844 -1.3785846345412323 0.2675718777815456 1.5680949921326608
Ni 4.196763411103837 6.022482876947267 9.810049024793821 0.02241847690451623 0.6961392935442785 -1.6187696356693926
Ni 3.2418375599737175 8.407971156488072 8.630268721276742 0.35919339604428463 0.16565309135785664 1.0327391205587633
Ni 3.0679322139576133 2.754447622340792 11.409870014344877 0.7979683484676386 0.15564918606760936 -0.2669185604682629
Ni 7.169013469620175 0.47680821438256793 7.97892541749491 -0.29643842430425077 -0.7836077088705923 1.8821878962938812
Ni 3.7497473297245705 2.0664737827385307 8.694828052483636 1.1166131336655996 -0.289804721037817 0.4088797075258184
Ni 5.520056775716436 3.258704695522658 1.0468184494727353 0.5705131362013206 -0.9765846848543827 -0.21209801308395726
Ni 6.623208128882722 4.536491934018845 2.9124281360494235 0.37112408604359953 0.33054385062839203 -1.1972035909251575
Ni 8.807964549124815 1.8387397108285763 10.536495468967251 -0.8953563369005095 -0.3975437136877089 -0.41916257750906527
Ni 2.9620872394547773 6.355571814706496 4.461901095880214 -0.04970970852030149 -0.8679990279334793 0.31091167821976134
Ni 7.946695687490128 7.181774789278912 7.759762698622407 0.08678038812035377 0.8588394729213983 0.16669130281438388
Ni 3.508327204847274 7.177289832732182 6.639398359649763 -0.8424641168871685 -2.436674060939326 -0.7746335303964401
Ni 2.7282961643734653 3.642228587933161 0.5790236106491323 0.5062162738954636 -0.305120525459281 -0.8085312115851495
Ni 6.22851345810428 0.2967792843968865 5.932130884296785 -0.9805143589260921 -0.6185359439375026 -0.012071843562869533
Ni 2.6003778057942473 9.004054247214334 5.003237200537182 -1.0672986037011878 -1.1657690265649598 -0.2030708698846825
Ni 2.0467584685990894 0.7264076053744686 7.262887771443129 0.6116101633519466 1.4480329591410415 0.3425791845263713
Ni 6.922655268874932 0.40722110817679386 3.673306100235422 -0.5633729256121136 -0.9658552142520205 0.5590992379374242
Ni 4.515528229912788 5.187837087267294 0.56831242473557 0.47861702412095636 1.643596979125718 -1.5763127520567626
Ni 7.099418040814623 6.008713597982149 1.0819130032675728 0.21248650677162761 -1.5394266776636907 -0.8966609146445461
P 3.2056250036087777 4.156750200840534 9.237841623362412 0.3005892132478307 0.21506583746302962 1.370619871168201
Ni 3.7409531159597447 7.324627590792088 0.3488075545388842 -0.4973066301106596 0.5618112375519485 0.8962950466646952
P 0.20124231208506158 2.1623871215069577 8.156049760158266 0.3951240485026227 -1.2362455353189676 -0.8921766536209473
Ni 9.296528898059668 9.01165555501106 8.875213929526437 -0.26002800399601667 0.17541839827473663 0.15862215265300425
P 7.971228862167397 3.7773321243202336 11.12935586411303 -0.07650471722595856 0.691521335156293 1.081461525465131
P 1.6710670673124643 5.524412269599962 6.2866643874825465 0.25072652408943275 0.33706134003193566 -0.44784631859700286
P 5.1605204653311265 9.216992586186622 2.2424884454315612 0.0543009274354097 0.058975964313575845 -0.9358568681177173
Ni 1.4305716757437719 8.399556083379773 0.6869196436304523 -1.00497557729225 0.04715480330893169 -0.04311431469097091
Ni 6.590417085759617 4.588129041971303 12.72108358774718 -0.27850780796775904 -0.3015826875093515 -0.34142141677284427
Ni 4.508638966763687 5.003676448858769 11.68769134118207 -1.4574401113875544 0.7307890224076641 3.003086544708712
Ni 4.104068144249353 2.733095530245121 2.8982445765620524 -0.884945940200463 -0.9722454340490804 0.42820334755509476
Ni 5.369584171740363 3.563774214031181 10.382473738552756 0.22325171570793165 0.1805266660355794 -2.6918375377541897
Ni 6.071040622982073 0.9941992747465394 0.41196868898316774 -0.32277114866150863 0.9995950297066268 -0.40145513292697316
Ni 6.897474780881639 4.850429644956883 6.570670330687682 0.5087467536268012 -0.20126338436229857 1.1421377602992653
Ni 0.8172376851454981 3.8771108483186256 9.432154908766101 3.04366343768981 -0.7665319843352282 2.4354638426813087
Ni 6.4867822238643456 5.417494604459145 8.884417800146975 0.02254266118720634 -0.07054952808378817 0.04694731528381592
Ni 3.9168928752547783 0.4917990660483505 10.652268380271263 1.271831145733061 0.5809245613426318 -2.2914134171948923
Ni 8.067382631596061 6.916172888381616 3.042629661167585 -2.02394695464296 1.4117726912574267 0.09976317353326689
Ni 6.601402917465835 6.359908813923851 11.102341629968775 -0.9943803182749067 0.9372792023865406 0.48426830886946276
Ni 0.6326414973486206 6.729228802714192 4.288688375112254 0.37944751830763035 0.653389818391894 2.3670136203287107
Ni 0.08524469058706029 4.202006648963622 0.5065550354537476 1.6960778226332531 1.242578419515531 1.620195569482642
Ni 0.5804255063449762 3.6253614523842206 5.97203035236313 -0.6642941240092237 -0.5460586027033822 -0.23765040763176493
Ni 5.98808279786719 2.7393189854120275 7.799972877080444 -0.8711008067872547 0.5158530256542794 0.32783673610987407
Ni 3.040550860689843 8.202791329974973 2.7172890638011498 0.271303576909836 0.5487312644395389 0.20836811372787986
Ni 7.657624055220458 1.95201954113259 6.416864987867399 1.6857288752987614 2.592923085374464 -1.1881201405666504
Ni 1.6339667669712639 5.975229004877592 13.425373421846453 0.5648798491749433 -0.2908169643524153 0.22550091675342454
Ni 5.209485094021718 7.104346869349484 2.369806652093495 1.000640954472638 -1.5212806028822832 -1.2170203685407683
Ni 8.629185858572367 6.080223224736511 9.88176764127593 0.16750968495062118 0.40515135083163767 1.5678718203782611
Ni 2.3520591704347638 3.39771060647204 7.445696449754474 -0.3453132956280827 0.3635766127136448 -0.5329791438116046
Ni 6.146979722284649 7.21565701770617 6.288004326046714 0.24151554701412598 -0.5581666988208257 -0.0698545588992926
Ni 9.539271391568269 0.629023940645361 5.9610398969903695 -1.4764274511233346 -0.7399809733195772 -1.0837883738260947
Ni 0.044731199603802 5.296493251028287 8.018418927638779 -1.0038345217092712 -0.1126945368829543 -4.484772416017509
P 5.649963310909154 1.2360447769457938 9.455014316154797 0.4372590299994599 -0.6042537229868754 -0.4182012420370604
Ni 1.8028970477870778 1.257729773032562 9.529562616561233 -0.6474099466593753 0.4262189701352143 0.7129728201618496
P 7.336898801797266 2.562112341484206 2.2649289486314594 0.33282107669834293 -0.2854083917423343 -0.4998877605742746
Ni 6.8768439807666795 8.231578277871822 0.9442886438812453 0.38839341464700855 -0.6267511327584432 0.6412354424175474
P 9.200846742618392 6.727582777424877 1.1692966019974347 -1.1656147603752829 -0.1675356530925502 -0.6156462810945332
P 4.1245879763672795 1.9074011589924378 13.293548065038383 0.40787800573418137 1.7295379020639117 0.46113455106547685
P 2.0466567479351427 7.698571246125451 12.155602696402555 -0.24540588320746767 -0.9214820874532841 -0.07520219636445112
Ni 8.43484390643611 0.35006981550512895 13.226864621421626 -0.26615648549125775 -0.02331347791495985 -0.3061021726462599
Ni 4.757854593432517 7.658123411207104 4.431976726013782 0.6351452703594094 -0.0364826683070662 1.414738972974602
Ni 1.624238572564748 4.584892475391189 3.8385873834154833 0.729079495915725 -1.2168542752765494 0.7776383786610349
Ni 4.714003739938506 0.5630266491435885 4.202257251690254 -1.3158726002239918 1.578751186294926 -1.5961889221553993
Ni 8.482060789173438 0.4710896636021596 2.237954478019475 1.8915605957580324 -0.9522646200517793 -3.4370568766545713
Ni 1.0794134491344158 1.765426854122436 0.3129787624970148 -1.5482854136059014 -0.3613924605781324 -2.116529551267387
Ni 9.04560251476992 4.824620338313739 2.7454675371809367 -0.8283035091160703 -0.6125311325043193 -2.5100867695035225
Ni 6.219719244339454 2.6111694435056583 4.2363235020459244 0.2812776574034124 -0.4794413197944645 0.8569890499762208
Ni 1.6206691019935358 7.636697340446744 10.051056718615481 -0.7718739653734319 1.3203833436101517 1.1732581358531535
Ni 1.0992397312708897 7.7367719791038905 7.045267507729379 -0.8079167179296022 -0.6695278616043373 -0.7886825522903386
Ni 5.578324221491586 7.60252844469382 8.637428006551955 -0.1644729550068264 0.4745788494958407 -0.180397853767199
Ni 8.89885658602752 1.9022041577980822 3.8374370151795802 0.19518838181281223 2.038006775170135 1.7640259085384524
Ni 1.9765619631429452 2.0164179687437858 4.6739581640094015 -0.8584406948210829 -0.6172097689269113 -0.808826117117749
Ni 0.8825109104666337 3.3286330283193073 12.026471087722449 -0.559570778257204 0.3159322713628043 -0.4124782235103541
Ni 7.982408887868422 2.7679579759794994 13.310425372653718 -1.3732493383712479 -2.339628286337222 -0.22773314851805296
Ni 8.798781947370374 7.950237416062082 11.480560327387815 0.5773844093998572 -0.5747009490304231 0.5245631518337676
Ni 2.9570659375890562 0.3382017882225027 12.56679091047326 0.29972172304121286 0.3187833676583542 2.695529127673164
Ni 6.317694738386069 1.8469236006097236 11.38010839754076 0.9173125294566267 -1.3453240727158897 1.6098728474003952
Ni 5.562529776580627 5.478730444154915 4.63926956813704 -0.5991858215456649 0.05804805318266777 0.6370496864709738
Ni 7.1556325786446715 8.644360732166561 10.214876923167948 -1.140611810573042 1.1179871311949907 -1.1633264785617383
Ni 3.2863819634491818 3.7354232107742917 5.138189080661643 0.23654149083830228 2.992323392654937 -0.05016967887585553
Ni 1.3491304132550006 2.8459314885610048 2.21127869626617 -0.4689946705398439 0.5493560425077314 1.9912944587152608
Ni 2.6886713420997754 1.0153849148466614 1.5704107714042064 2.1206731411221154 -0.11913309341944645 0.7200880910503921
Ni 4.564807267928305 5.333667530034176 7.310379299973114 0.24083394756606913 -1.4846164146920302 0.4931190743918733
Ni 4.083113687476382 1.8015746791557739 5.88848162266405 0.1607559111665554 -0.0018648211228806592 1.998746544117932
P 3.930495702224346 9.071356337414548 6.704498659842191 2.5138786324457865 2.294045455501101 0.26111815173640196
Ni 1.9327573463143646 5.505723409433072 11.169377396976111 0.40104169953863833 -0.49473861227316734 -0.9612668235503897
P 6.572347796909492 8.414823430304828 12.308081046924991 -0.020578081261667783 -0.041908467308327826 -0.013148364456499936
Ni 8.725478337997322 5.703810531469175 12.34126787590418 -0.13417096158917538 -0.33156946367942897 -0.09800171075746993
P 1.2234499092826048 0.2944110423935512 3.2654737433416408 0.2548742277092191 0.7720166615988833 -0.31011155091596915
P 8.393748758201738 7.8933940595821825 5.570031213180024 -0.4487276927606917 0.13901003484903157 0.43571971053679803
P 5.259707360012012 3.645585369843394 5.874027116317258 0.5543864058427872 0.4716619329593619 0.7192352561317936
Ni 7.930605327920415 3.464476351353263 9.004683990597494 -2.2527661371363394 0.31066716630912306 -1.1132442171933667
