# total energy = -340885.7431723478 ev
CRYSTAL
PRIMVEC
9.12442582616816 0.00000000000000 0.00000000000000

0.00000000000000 9.12442582616816 0.00000000000000

0.00000000000000 0.00000000000000 13.35451950769676

PRIMCOORD
 96 1
Ni 6.468624845962038 2.4130000403970615 11.674934646306808 0.48879550731585497 -0.8482640113983972 0.42299506388127794
Ni 5.1185109249643945 0.7019384315204091 6.00371162496665 -0.41692366087621746 0.3108476577510453 0.7822301117967754
Ni 2.96484531631627 2.0459517613890923 5.040356567716405 -0.0126192314259073 0.08644691604033498 -1.0283728731702677
Ni 4.075169325753783 5.0128227002459385 5.215581129459542 -0.6643316621153784 -0.6173982307886334 0.05124002912189885
Ni 3.715867684299639 2.8855449311804597 2.656347565599405 -0.45269619049013654 0.13592651082770138 -0.5356034688083292
Ni 5.1602551732668145 4.720904943756467 3.011497593287952 0.39481834433674584 -0.02721332718999829 -0.9800839562568927
Ni 5.275943768726134 2.713467383915903 0.43711474517502646 -0.2680688720226222 0.10253302296892018 0.3882358060232217
Ni 5.462967125546836 8.05024369984034 12.510273096320379 -0.49895702122988916 0.06851398571099812 -0.04283792110113268
Ni 2.4278728545463393 5.702008834186574 10.983931839177753 -0.16070628887554259 -1.4425022591307997 0.6498339827198357
Ni 0.4393785152305086 0.4167864368049801 0.5934024734915305 0.07568839197225029 -0.5083019527798989 0.027606963083991163
Ni 7.925613167039738 0.46416045586206567 7.2959082528277674 0.7226949325456199 -0.8250970863636307 -0.9748635883982177
Ni 8.333894726502054 2.6041750109833592 1.3804298259123529 0.7098052210671454 -1.176295894238213 0.26955316987763256
Ni 0.4498798169510016 0.5308919443778581 5.387253552215983 -0.018063285259614054 -0.2650264856518726 -1.563416869930701
Ni 2.097103292751577 6.220394840482838 0.3038178326940653 -1.2299303917342173 0.6510889381728594 -1.1726379857706515
Ni 8.284111859018337 3.821428167056076 3.569489082465414 -3.8341938418221644 1.2904932409189387 0.46877818365366364
Ni 7.925759157853473 4.157124918814403 12.629074945882602 -0.8585152568127602 0.8421139326366014 0.2800234732813371
Ni 8.497258447071788 7.800608532778938 9.505226472114352 -1.099180540011449 0.08330219976376622 -0.8676159335624477
Ni 6.752622600806374 0.7232713391774711 0.3439187718993783 0.07221508871166916 0.03241286911306676 -0.22433440724914913
Ni 1.7411959377167778 7.136751805021366 9.297163101706644 0.1784895810008926 -0.48133390883148713 -1.4195489927687357
Ni 0.305500376822364 4.802358693394873 1.4466019871230222 -0.3765390864115838 0.6403643526665036 -0.5724648606110528
Ni 6.526026609037563 2.499353606721457 7.450112874720787 1.3652406091341585 0.24825029463479825 -0.9030058830259674
Ni 3.7782331350421616 4.540597164367587 0.309651078145374 -0.23465841488297648 -0.36837609098481716 0.10417544366834962
Ni 6.325672466037663 6.000642168107867 4.700964423485405 0.19598748067533986 0.9412831813396112 0.5709623079235974
Ni 5.713505610768225 3.0045548176522554 9.59141671121588 -0.851346764088779 0.36272274935378174 -0.4151017771761302
P 9.190760434443472 6.087077854264988 12.666454981296924 0.339503373814525 -2.0220283974640076 0.892565918639566
P 3.8511555465029144 6.408786861182307 12.360008401513037 1.4126193555284383 0.7006811472786901 1.0092240681559588
P 2.3550051896407376 8.653003272049714 1.6864484701234768 0.05633955513199329 1.0503352363739717 -0.2931985772107144
P 6.999766799608419 8.21929193771989 5.793257654984029 0.1776971670065843 0.14135385249085977 -0.05155061838378218
P 4.53415531971152 1.0006301617671958 12.4707177977814 1.3162258697983524 1.5085212463340858 0.9206359374029048
P 4.456698068599116 6.652536773565008 7.855716415193648 -0.3143039917307619 0.5020490298916515 1.4712009126170726
P 4.869842947043988 1.5068076862648496 3.9933086267220896 -0.8777350242743207 -0.9719723828933519 -0.26098316882043443
P 0.41557836282132105 5.59932254557555 3.8107525888016864 0.3064220178795239 1.1359362594742437 -1.6074650092898508
Ni 0.7741089902904252 7.334642353039484 2.039448783079773 -0.7446848065531498 -0.42692473795298735 1.0116604455115932
Ni 1.9583116510186558 6.882928526490934 4.845326527204912 1.2718172617759902 0.6800416166514675 -1.370950257924426
Ni 6.159735657375845 6.277094022767262 9.290244962020767 0.28620980459770706 0.2621651049436775 0.3986243483463974
Ni 8.853403037178907 2.9268238337640984 10.488145210847705 -0.09227303580380883 -0.29780702251700325 -0.7015632927733272
Ni 2.6458645127306286 5.876075506288273 7.16877306512902 0.47875792057419486 1.0031112703900014 0.1378106152242917
Ni 0.9440039748896394 0.5836840475096927 8.714278353902152 -1.0215723053086663 -1.598797820533156 1.9153103898794626
Ni 1.4811954228801734 1.2314598871343276 11.557682124255349 -0.860816394142111 1.1601475666131245 0.31027610151829144
Ni 3.9197347312550437 7.201425735506078 1.538721278147373 1.4804854232427922 0.08914528880810453 0.0013007210892945341
Ni 5.818153650938817 8.348256572803258 7.82979483377237 0.6145921287984061 0.14105406186225383 0.6113144864883988
Ni 7.279092848413225 1.4126436114056196 5.115635818376396 -0.4528728252773168 -1.2638553266164363 -0.952737703033456
Ni 0.7173806098432541 7.947785521875777 6.879687530426012 0.37139430898585074 -0.8899667904538221 1.049467489057038
Ni 5.520971100729017 5.015414037189739 7.100384580877331 0.8852824976042754 -0.9162570916089188 0.08322609511019215
Ni 0.7112991800085956 7.683058554444494 11.52102383092643 0.2184941464182882 1.002172560625816 0.46137803453485055
Ni 4.496097339455914 0.8043628491092962 10.245961049942315 0.5981177852924666 -0.6508572817780275 0.4024154399577134
Ni 8.78528919814556 7.581640561027794 4.5762599828353485 -1.3126209260559136 -0.554370207892871 -0.33283033266972356
Ni 7.624890339596859 6.482338858027293 7.0110163042493046 -0.13057990180380735 0.3939871066847021 -0.5102621618300631
Ni 2.4999466944022557 5.398001213434654 2.524151058876973 0.0781399388365364 -0.08665774649956044 0.8853069230843075
Ni 4.03208378685017 4.778991038771376 9.263055085405162 -0.7216541499859314 0.14903193786140786 -0.631153632701513
Ni 1.2790620168378746 3.47240062911855 3.4426349270831063 2.5440078477309993 0.7217767916067247 0.3092484315847254
Ni 1.704196390860753 1.35744995938784 2.873318200530133 -0.08114015911544091 -1.7925705529453646 -0.4712217600981498
Ni 1.720492615443949 4.023041480824443 8.139165792043888 -1.5078568732772095 -0.08880358919796966 0.34392438570035605
Ni 5.623994993096805 3.0489086517501933 5.273819602386286 -0.048914209202199625 1.5747757465869459 -0.6840309403165187
Ni 4.05843512872938 7.570910236218253 5.843337066308146 0.7989145144309918 -0.9028611299179871 0.5460629735787563
Ni 8.06091927809473 7.456298323010232 0.48218940891578194 0.009559361553660956 1.2501608598484792 -0.16540832233690222
P 9.444693206084205 6.057359599244008 8.210585410565754 -0.5503461743351425 -0.18422751192593434 -0.9338578354098175
P 8.982303801281265 2.346546846869952 7.987511447178308 -1.4902221909145819 0.7154153681650711 0.6765289755125188
P 1.949990174635747 3.586355583664764 10.29698940155571 0.40106046859171574 0.19169450972694083 1.0398271377537962
P 4.078755225116154 6.5279244896161215 3.7307049131880685 0.22413720363667847 1.0870724438940054 -0.04692160425220306
P 7.1244885766676065 4.502128584948351 10.417099693786035 -0.6041480506469467 -0.040563266134343044 1.5810600369337608
P 6.282723793521927 8.276210106224918 10.323884559216085 -0.29277845895416027 -0.49837595191543843 -0.8318498317064318
P 2.465556733341748 9.073967783455279 5.831758169893769 -0.23463270385136364 0.0014534446170749163 1.0662187403734478
P 6.854150087333375 4.091483799188695 1.6217197930836147 -0.5507881469685676 2.5044866497079252 -0.9900246124093722
Ni 2.838444644899128 1.423866655211516 0.6280032087893683 -0.4269499347639679 0.7960171382785388 -1.2984526049753315
Ni 1.689314452285617 1.7865169609557114 7.040195305702049 1.1800666741345547 0.4804689897280306 -1.5961956070236187
Ni 7.373165679013871 1.0285052827647683 9.417687642870943 -0.6695682279239694 0.3220905776547162 0.6919936468070211
Ni 2.9039397737110995 2.088571954573924 8.974784361931315 0.4811444185285004 -0.2679444306296159 1.6028470509018653
Ni 6.330627029278802 2.4053172738242448 2.78009029176398 -0.011339336272219181 -0.3322574908853891 -0.043082947232403225
Ni 3.947810589621502 7.467767726314307 10.065381362662853 1.6034358335257999 -0.44238272437927045 0.878365715879784
Ni 7.17741024664663 6.517969741004549 11.7786994420543 0.2126705977579757 -0.7303280236108454 -1.6465707170420607
Ni 7.686781320194743 4.501590243822703 8.366379507443316 1.1815573997474682 -1.0815620555987373 -0.44209990303152896
Ni 3.0039343566938808 8.627774234551092 12.336918129435636 0.010467989410859392 -1.1058525527149858 0.9562878822785594
Ni 9.214848918709787 5.503379207673922 10.347429227701236 -0.7310978118973345 -0.9085741211423644 0.16980002364669466
Ni -0.016229616274429502 2.7500015850531474 5.609138602914073 0.178052493463474 2.6201880917380036 0.9735551539994396
Ni 3.859522645015115 3.0258512276058838 11.50187348593471 -1.4741198860360807 -1.47298294421816 0.04611350652861091
Ni 1.0743828959810675 3.4533762012036764 12.511462009009733 1.5523971217814296 0.9283083663464979 0.2206343326897426
Ni 3.3020567227671 8.69289526190287 8.016558144456106 -0.3422238580694816 0.6391392220101508 -0.39571977310509265
Ni 5.634332967594433 8.456955858055004 4.166422708764166 0.8592289950503331 -0.8338977153743959 -1.7646028640878448
Ni 3.277740127854324 8.75904734937665 3.864624111512576 -0.3768702444987574 0.004481947030753572 -1.196202917574785
Ni 4.082131262683781 3.0127211787955703 7.028537026782705 -0.7007621370282706 0.73690721949026 0.5330866159237464
Ni 5.132106319493489 4.8459916978499935 11.502728444637647 1.5369831012192048 0.7898290071899559 -0.21302026778791056
Ni 7.353894891600819 0.23252686857680407 2.6577499898538486 1.0931590164077172 -0.335656489264609 0.18915297425200972
Ni 4.590799755440793 0.5682738046773523 1.9747858019060915 1.0388714587087464 -0.5617816698655937 -0.18072464097899843
Ni 5.846922965670518 5.844605361502471 0.40746674823315676 0.49544515142188866 -0.0818505549189042 0.8592737322453394
Ni 7.766537926623476 9.05020777851987 11.545088591685511 1.0391637931381845 0.891698171322632 1.5606205381324865
Ni 0.7194199190226183 5.438869516854663 5.998115614587662 -2.8845041815864128 -1.543064531526594 0.5801606865934137
Ni 7.523454097328443 6.159662661968977 2.5106897934079977 -0.1338976533231307 -0.30034470133719243 0.4394521809960368
P 8.79660348621004 1.6863672627333368 3.551620719306807 0.17875800417093085 -0.19189274178067597 -0.21728675637374834
P 2.0187062257757526 3.487565424895298 1.1723427319974138 0.7760491797970441 -0.10150843835914776 1.0318731730140422
P 4.877781197540841 1.2988072743955659 8.09820715680788 -0.38842709609842135 0.16580710043721766 0.7587019467678482
P 8.598256716898998 1.9583846464255232 12.703486463643454 -0.7655760481798622 -1.056029972765904 -1.5225062477592683
P 6.2408153055540545 7.82217867550832 1.5811352593078036 -1.134961040045168 -0.048462980597393956 -0.16505788097601898
P 2.291681674183077 4.0097289434969605 5.893976717379972 -0.15427673120011495 -1.5811703372593802 0.13639650848558446
P 7.314194514690692 4.409378796097181 5.802378431072138 0.6030139370425034 -0.13010141950549206 0.5663152960698892
P 2.2020706878272147 8.865967371585997 10.32475320455781 0.9672667498875664 0.7165476819973015 -1.117431772912153
