# total energy = -340892.9730529558 ev
CRYSTAL
PRIMVEC
9.04868229157806 0.00000000000000 0.00000000000000

0.00000000000000 9.04868229157806 0.00000000000000

0.00000000000000 0.00000000000000 13.24366118854968

PRIMCOORD
 96 1
Ni 6.256611687838339 2.0891687670203782 11.518064703416952 -0.059654221327523065 -0.05080679823922218 -0.4200328959291605
Ni 4.745454634643384 0.39924052146869127 5.724850502721951 -0.4336615424561886 -0.7785012408819625 0.5814416101883664
Ni 2.7828135891299546 1.7799572030258513 4.7575201473271695 0.8818153649912813 -0.8860911095484998 0.11519442048667258
Ni 3.336683419169314 4.469080737912586 4.9453816457001984 0.785042641544906 0.20297239663360525 -0.5115811377518028
Ni 5.17454313881699 4.421050333438661 2.473041911714754 0.6773159901901884 1.2413057234506943 0.5235910177284853
Ni 7.390538233852915 6.190601552073967 2.4074588737445 0.3199318794405006 -1.782220577169608 1.3412265056077481
Ni 4.99917063144903 4.496407757790365 11.322720849833017 -0.339139562717203 -0.04812205231820745 0.5865611908031187
Ni 5.675613908926931 7.673888664466419 12.455543456633988 -0.15804956797898587 -0.02279565773827687 0.2501724513581756
Ni 1.9162303551315982 6.448751403098194 0.39601195170299874 0.4267830701688005 -0.3591070069780654 0.07562437150353428
Ni 2.6861917618932245 1.4389485702066502 0.13924926364144255 -0.709512629527391 -0.29391025856575836 1.7762314494657088
Ni 0.5187039368767723 0.304432954988747 5.296126660436119 0.5229546696960671 0.0068789865080204115 -0.9652684885106152
Ni 8.380599783497688 2.241657157411218 1.0936961054925225 1.3122257475000239 0.2933232757140368 0.6841052451978799
Ni 6.849580873139911 1.0393768669738772 4.904975660745817 0.24801529580585674 -0.9257267216622509 -0.38620206342264457
Ni 0.6324359170561825 7.309977817305939 2.2983842502310146 0.5686529430641304 -0.6988260963478223 0.6622709229316078
Ni 7.8662726941424 3.7889727441927965 3.775582504452685 -0.4381329479639809 -0.2609528298031312 -0.9674693528166757
Ni 7.708834674654493 3.8697503291096624 12.426804842351928 1.1550642385529462 -0.5029566293075854 0.2464047567856272
Ni 7.898585537845562 -0.08909875295647046 6.956921769167111 -0.33723180417152887 -0.5058532341290901 0.2909632601222924
Ni 6.7076703920991125 0.7859124235300199 0.24176811698888465 -0.6612319401441322 -1.5211031967641544 0.6786159399485345
Ni 1.7656150419310566 6.590055622439716 9.178360551341603 0.8209884635118958 0.5316198015702328 0.46757670714639477
Ni 0.33703897599126015 4.603607494377137 1.2144978209800483 -0.6445953600287156 0.7229188756309679 0.5868517254603441
Ni 6.263886828229642 1.9363546240747043 7.1364530508184565 0.17480390461918927 -0.3075743863164122 0.4907752567500451
Ni 3.098784518637297 4.064930401547973 0.5488650039816112 1.4980072341766395 0.3387438699406811 -1.8976409976241575
Ni 6.0951198587791575 5.5006123975242 4.531887640221084 0.15495550243469441 1.232359312890684 0.6854339913116325
Ni 5.2184201982167755 2.856614640164116 9.439128186091207 -0.10176991955065054 -0.22620025681329428 -0.6425474763607515
P 9.323671527107589 5.581770027088372 12.409098381260259 -0.6492161466301787 -0.2612305089445501 -0.26523320234604
P 4.105133696023792 5.910535793055046 12.68685763121731 -0.5286720317958185 0.4706926270675571 0.035283762902958586
P 2.3717500596571885 8.394417121031916 1.3993388692751962 1.0166221603922427 -0.3392987140028866 0.13880151838265128
P 6.485823853574771 7.729139917239173 5.65438117642918 -0.2250897973579349 0.20672080793244396 0.08314279136776649
P 4.5724438332979735 1.1093231794424976 12.684540263736947 2.1965571940449395 -0.43699292082226676 -1.5800071701892144
P 4.022112037951399 6.3165954013382715 8.178901040489857 0.012884826382468132 -1.8916827231581934 0.1942527573724203
P 4.776039180069507 1.2682904262017112 3.5887272195268105 -0.8160372901542075 -0.4346814990802707 1.2119514386582932
P 0.2570522458880757 5.487690879515766 3.4832811175268974 1.157733300744677 0.8118178527562213 0.43985944373678443
Ni 1.3448965686802805 0.7425791899231666 2.8194698002309098 -0.2757898948159638 1.4554174245305709 0.08890103400778238
Ni 1.8361495187347947 6.660716780792558 4.815659739419456 0.6327073503418781 0.2956897190636843 -0.622621941081418
Ni 6.047795251507374 5.675921564117608 9.047419787584856 -0.4899468473114788 0.21882093363008767 0.6412416130651344
Ni 8.621330921520348 2.2373771307879764 10.27139972251521 0.03666058864582719 1.6419054503559076 -0.2149290547748492
Ni 2.34413348195289 5.2460458246031525 7.04650191201017 -0.43816225854001956 0.6739928393542263 0.23835437567732498
Ni 0.3279332872154293 0.041056585195843584 9.394536280807202 1.422478507710705 0.10567671080422444 -0.5221370588907782
Ni 1.3108192319717649 0.9314170410924919 11.44914451149606 0.2935945270975524 0.19960322305105624 0.20306161391330188
Ni 4.326401118895095 6.721252463899293 1.4642984530502259 -0.01356154073451858 0.5657715077512772 0.8281083623861287
Ni 5.677667959758804 7.875457106452315 7.784345926601534 0.49667773827740913 0.7262988478467943 0.47088725957686645
Ni 5.207896580959207 2.878521499476733 5.158074537433692 -0.33701223196155505 0.2838521029988079 -0.8179149667928945
Ni 0.7883582822959019 7.402274374509036 6.933559881776233 0.09717073021574232 0.24821481341117252 0.05769529782893934
Ni 5.073577944182467 4.51982574701013 7.087252651751752 0.44605580235548337 0.4389454165629472 -0.31241268824532004
Ni 8.107546753089785 7.251559525805628 9.252948837716614 -0.4758482031265676 -0.7580594280878429 -0.6428092146625703
Ni 4.442305687641609 0.4912656182094246 10.406577079221222 1.0283713305083708 -1.3400347992924921 0.32164551969749766
Ni 8.410252314669702 7.425366611173967 4.579022225169214 -0.7998460251063257 -0.6243422662066345 -0.0713591684692771
Ni 7.345068606407273 5.9537613473451625 6.921322444132952 -0.7110576054170077 1.0552074768646085 0.10100990145617442
Ni 2.4106865386419845 4.998799635483802 2.48640500540863 -0.027023836887011522 2.080844953381584 1.6330012058877426
Ni 2.2930536716184315 5.372220647509031 11.37984065545503 -0.27766525746180565 -0.4670858835529052 0.8907918574582788
Ni 1.3412137550742351 3.4351964209605006 3.944902348378179 -1.3459732762641141 -0.20020846073522294 -0.3340904303290698
Ni 3.558602347150286 2.874123839986468 2.6273970452184368 -0.06860525987322377 -1.5534821273154924 0.5568955454178861
Ni 1.0526784296296174 3.492185020692373 8.437258106333687 -0.4055082199504242 -0.8200412691072779 -1.6344194263915077
Ni 3.4225282660502714 2.9808620937872243 7.631805053854638 1.3522362264546905 -1.5140848564647924 -0.9383408108818355
Ni 4.207058050958661 6.860964115194959 6.062008016448443 0.03440238873926978 0.06453340379669531 -1.5951267994394722
Ni 0.9499849367180557 7.5294536011256525 11.582151089371385 -0.20815651193770604 -0.1799445682798643 -0.40493203573198
P 0.14135760656578777 5.676156829851656 8.10543841016544 -0.15128191023784915 -0.6743548506793354 -1.2109854752005984
P 8.601215701259322 1.5887133072917907 8.09069810705918 -0.2573036630863182 0.960467724687862 -0.25681618192693834
P 1.6914429949316672 3.4121222816597268 10.52232691550419 0.05970307228758749 -1.0283103953634485 0.2011535982573116
P 4.188481106651018 6.160695657803749 3.7920710129365554 -1.473796955479023 0.2549552174587996 -1.0034776525904847
P 6.852141650168193 4.020655200136724 10.393717997119131 0.8377998786422797 -0.31677045099338347 -0.6213078502556848
P 6.112656204647745 7.722335308315965 10.169436458247402 0.805471341712903 -0.12479054881553993 0.5981985179317311
P 2.637627485176654 8.787437578439684 5.718374360958201 -0.9961921746726651 -1.4427997357665605 -0.3288047564500982
P 7.229100696886207 4.026763060539869 1.587795770929007 -1.0197262532388631 -0.6074192651990507 0.0031747981835558224
Ni 5.373243148583928 2.9199735120794172 0.5764779622130785 -0.4325163731081519 0.12807410466281813 -0.732492635362332
Ni 1.7862007936601783 1.2041805136738748 7.1014102197321405 -1.0279774375040618 0.5029599717416952 0.5862652568292548
Ni 6.940764442447322 0.6299448148799068 9.480699641297331 -1.0717846644969993 -0.009112246713913339 -0.9032190274780381
Ni 2.5380105441718626 1.528050942635952 9.407793504920757 -0.40826521387027104 -0.11449867997122863 -0.7960711314449258
Ni 6.424591421947972 1.9376847803402784 2.5223744215398085 0.9176323746898907 0.49510010937764404 0.25590395452531406
Ni 4.118145700853012 6.697563014217166 10.430547942915997 0.04717151547948005 0.948421077935973 -0.22626222039948127
Ni 8.048757465624245 7.183875383856691 0.23548199754878757 1.1405930415199648 -0.17805660722853206 -0.3064924661061431
Ni 7.446368602278709 3.723261214937024 8.2175325788886 0.8911199302216588 -0.012494018701952677 0.008954638090126515
Ni 3.2439977686368335 8.131661490829615 12.452842425033486 0.26075408352876384 0.4639272833192656 0.052269241717361595
Ni 0.019658261816051438 4.81586242989802 10.092451175989734 -0.5380519303488217 0.3581145611578091 1.3450998725202254
Ni 8.638034788637693 2.562523423923155 5.908089934289163 0.4712536417773497 -0.6506595639449245 0.774093341622254
Ni 3.500383126655706 2.5445527413147877 11.357737439741303 0.22894568076891542 0.975423574666746 0.44173969147863273
Ni 1.1699312520058633 3.036601975392231 12.783151896162792 -1.3114343619469802 0.6940824110152498 -2.0134877069828483
Ni 3.18987760112392 8.274603521627387 7.868230828944238 -0.5266886828172025 0.9774187507199039 0.602849386440181
Ni 5.640785531605881 8.123879624241901 3.5282168727298946 0.7524307690471558 -0.5809237900116834 0.4236427247676059
Ni 3.264239670446963 8.524736240329855 3.4907245634048647 0.10686198936157726 -0.837640727356596 0.597034836640933
Ni 3.2542589741141184 4.378231969842088 9.33846250283349 0.6997146696003627 1.5111512277577652 0.8805246712043158
Ni 7.318972207292202 6.010342756383491 11.290313899836235 -0.35652767628666343 0.4783069490797053 0.4569948178654904
Ni 0.6346673220567985 9.188755677313653 0.4707522559369327 -0.9977939719421459 -0.4523105250159436 -0.7292923832574796
Ni 4.429592289320987 0.37697533434575636 1.4576241451489511 0.7496953723938636 -0.7899326226473556 0.9497315692172804
Ni 6.199387822372419 5.385630794349717 0.35435000967608776 -0.9529865858194685 0.9326476171518003 -0.7990225007637658
Ni 7.85460894294291 8.524826727150643 11.517044916946677 -0.5685832661684594 0.44490729057333694 -0.6612352825782419
Ni 0.03754026734004722 4.968432258427567 5.6508983386970755 1.0795321696529023 0.21627297039725332 0.27699754197081977
Ni 8.106678079610226 9.012089208408435 2.3254416193828473 -0.9460109258325836 0.47837636886506 0.4549189091730681
P 8.524482877231652 1.5871116905638545 3.7607625729441327 0.7636726605095622 0.3797341963101138 -0.527191333485234
P 1.6434397365039788 2.8238493623570173 1.6649004957901143 -0.41965931463982564 -0.5297413536005973 0.5624612124311217
P 4.5448544016399115 1.0909905495509806 8.22211483149327 0.2076021820961328 -0.08868866088666016 -0.4510504273565974
P 8.376256416099896 1.4361887221726362 12.263338590863166 -0.08881593049314382 0.5520191911621912 0.5525269840365452
P 6.487579297898045 7.833905558346766 1.5127441920315643 -1.8340023377275896 1.0975224355827358 -1.3193163357982183
P 1.9469596794709816 3.235311033841248 6.188629844249011 -1.5862256402951005 0.4504775855722629 -0.9627740042235354
P 6.99369923260792 4.033649107601787 5.819781131278167 -0.5080993498507894 -0.6191190701344822 1.5334714885215204
P 2.4541111639378332 8.486270292813153 10.258407624786564 -0.34078738273327114 -0.3649480391398747 -0.13955845115333385
