# total energy = -340886.1163578376 ev
CRYSTAL
PRIMVEC
9.09431359693284 0.00000000000000 0.00000000000000

0.00000000000000 9.09431359693284 0.00000000000000

0.00000000000000 0.00000000000000 13.31044721642016

PRIMCOORD
 96 1
Ni 6.048682513698479 2.582030222613735 11.095149846887978 1.5845006871841938 -0.10329689771813823 1.2131788833074912
Ni 4.842203594075469 0.3880579972703893 5.771848880680981 -0.15666862847105922 0.6261147847260249 1.10808838402404
Ni 3.019966892027558 1.843844791063117 5.079066809571615 -0.9815517990516708 0.39116454963424246 -0.23397707254523578
Ni 3.570991350542428 4.664018708522048 5.258039262679211 0.6706444917072837 0.21372346450252225 -0.7937990475812975
Ni 3.414078064402544 3.2764720059475434 3.1539634174311555 0.8277468652816518 0.6807144743487761 -0.8442150381400042
Ni 5.126655533560997 4.956464549625574 2.4090045411421004 0.5677191183959513 -0.9933948144331858 0.4030330189370543
Ni 5.3304681947225205 3.107772489435729 0.5007365422612993 1.352559414122064 0.2678071337208033 0.14375680550539757
Ni 5.913932069700875 8.112991654048894 12.487409222748543 -1.0267091123145995 1.0220543871514076 0.28883695780790897
Ni 2.7058220187732402 5.563446319466437 11.487567658078355 -2.3760567043675853 -0.14270882385685743 -0.3514260933940399
Ni 0.5447848499823221 0.5105774989630477 0.5499731558674967 1.292961499953773 -0.21475319131861725 -0.35328911474470764
Ni 8.09524864829609 0.3198906605606343 6.95216618849 0.6619937580108213 -0.6443709027227355 0.7191164711657422
Ni 8.708869267034723 2.5578211599207727 1.4909299496771806 -0.009784075969957345 0.7679820865181936 0.1226328790425888
Ni 1.2696662102280816 0.02994393682300808 4.204783156754011 -2.081820944141608 0.09746640707929022 0.8655335971121222
Ni 1.6878318419655334 7.260527078321055 0.26127599081282055 1.194369463910472 -1.1814118753085396 0.7706727459764792
Ni 7.6503184517557115 3.971677711620273 3.8465590551125697 1.2801178112218856 0.7918102992860429 -0.3419793461588433
Ni 7.902003579489644 4.196398199652991 12.533715648526163 -0.3281907770151831 -0.32839749370935056 0.07515051719090927
Ni 8.225260954929668 7.370613743947767 9.046219190765134 1.3766359954552936 -0.7000756524842072 -0.8392288977793224
Ni 7.2247045772137755 0.6700717512908589 0.17096491001925868 -0.6263263865161988 3.1751416829381705 0.10584408962002417
Ni 1.990899841305491 6.961778877921427 9.39340916176594 0.3825703802073282 -0.7259404360661111 0.35043853266979
Ni 0.10997935272672092 5.209050014401807 1.2862233174928472 -0.12614037797521502 -0.2904276993337966 -0.12347080156285187
Ni 6.4015236911445905 2.1918023221282668 7.0743291930911605 -0.5991102311127231 0.4726893457826117 -0.587538981335356
Ni 3.4582127681023738 4.277319401697311 0.13946038898959684 0.1564436569444467 1.8003715370470221 0.7991294586552753
Ni 6.254741470308974 5.93780464279217 4.965661628927374 -0.47705559317110746 -0.0641492809843992 -1.233619153439714
Ni 5.47079345293154 3.474746230151887 9.05199589873755 0.504865159184208 0.1252955134764165 -0.7758997987033733
P 0.36853887207959113 5.935276423622882 12.295631976150455 -0.16625858615233946 0.40817625370089056 0.345477846230405
P 3.9824453788736416 6.474223633731946 12.973306573576293 0.07645509493494575 0.437597130065169 1.227848055283892
P 2.4871492492569827 8.793664646655001 1.5898797189200458 -0.10752816219066642 1.1022324394638954 0.502747855730889
P 6.620560233203191 8.064137001612158 5.961044251659786 -0.05651721836043815 -0.8482118180042231 -2.6880916975585127
P 5.168352961227124 1.361073155805453 12.650249273034559 -0.8121664943448915 -1.9141405379410776 -0.2599801814772168
P 4.087757529882095 6.591103751586924 8.578968820457915 0.4510707390715716 -0.5811665021501088 0.1971696739088991
P 4.745321871735827 1.6317472102497188 3.773498068276939 0.03158574522608109 -1.5224764229625973 -0.12618665783211816
P 0.2299151599373844 5.907402352565809 3.5508683629313396 -0.11611564674936131 -0.21290662502818172 -0.2129606181945687
Ni 0.19597336287402084 7.784714217524531 2.133252222006719 0.9982703973579324 -0.5625614854544118 0.6696489605632338
Ni 1.731384509597613 6.459790958114466 4.996795101963846 1.3157345319842308 0.7773154481039773 -1.4988628973087152
Ni 6.151311842207148 6.211561669532796 9.224445910160926 -1.5295955505058818 -1.0895607575334978 -0.9628526799802706
Ni 8.731395881719346 2.688588294579715 10.207981370620564 0.004204267889334695 0.8003815858948216 1.724237830007237
Ni 2.490341353316047 5.809765802200804 7.263710997497917 -0.2472791889707806 -0.7618476914856814 -0.17938252512880717
Ni 0.6996919305511813 8.98590934097 9.055203463129663 1.2406768316174441 1.4566656951153754 -0.061412855889842626
Ni 1.7136778810990414 1.4664762499494925 11.621152211077748 -1.2629940070574053 0.6032052271177031 -0.641886702848301
Ni 4.179319078789963 7.195884697546609 1.89128164001607 0.43009002305484645 0.836736470374772 -2.020037078065592
Ni 6.04512663709707 8.273751834824061 7.91183635130919 -1.2998502566538064 0.601679534501796 1.2506581111998718
Ni 7.01664487162039 0.8791691180612787 4.929470808120972 0.344500055698168 0.5510784245154767 -1.1776470089494686
Ni 0.6206032326889175 7.632529974435113 6.71627879283869 0.9615578724282473 0.11231169962223883 1.3771934106206605
Ni 5.110349429350447 5.364208098024883 7.062789418616668 0.26124567845320174 -0.7614522558194757 0.6123179880522487
Ni 0.8845465856684719 8.024776812530588 11.568895375938743 0.9218872933115025 -0.8363405204879338 -1.4378074247582917
Ni 4.8521254901678885 0.46232216178982194 10.404736844460624 -0.140976414546783 0.7146851748672659 -0.1824447089938987
Ni 8.544525926717473 7.706366706217292 4.651828690628116 -1.4061697432483524 -0.31292845153947396 -0.10951125405896622
Ni 7.508256179657002 6.3556610678686285 6.9623754648908704 0.610001166993614 -0.2669195889095274 0.4997988004048941
Ni 2.400416780848725 5.5948126069300095 2.5093257328696006 -1.1422699150017552 -0.08350428847224328 -0.3357187099611122
Ni 3.5065581389798295 4.54010868628628 9.352399264204841 -0.6854884986986517 0.8985468188133492 -0.054833145789795895
Ni 1.0855063606666668 3.8034965709812982 3.8313588194307453 -0.03233547890791205 -0.37277164894935155 0.1867543921128461
Ni 1.7718996765011243 1.601626843743674 2.597693358855692 -0.8517432281962491 0.42132410393675823 -0.43951234481001084
Ni 1.1720842257444282 3.541043775993997 8.301379449983697 -0.1261375497617376 0.5905417727174217 -0.12939436613613842
Ni 5.726261815105845 3.2206602036384866 4.941383449451367 -1.8981112523923571 -0.15569957968957057 -0.4977719997828524
Ni 4.1631039177149995 7.166701045337099 5.827446966621411 -0.2341313387349129 -0.032096623424228594 -0.3045224868639659
Ni 8.179371048713032 7.801238585260485 13.142428975668581 1.3446717838438713 -2.576942650785807 -0.07298461988784204
P 0.4951944675786955 5.761884241314835 8.190557054390094 -0.2476707679822444 1.0304490389730059 -2.18137791520134
P 8.867810585098171 1.7399604472833619 8.355047722586994 0.19712570804484117 0.13360840421748604 -1.1576600243045805
P 1.9055678971852563 3.4121045983603304 10.40553532519107 -0.7538597881841984 1.778179317220699 1.8695807490528316
P 4.006963648227596 6.164153012951876 3.7925188250847266 0.7606855528567803 1.3202589022171456 1.166239024222843
P 6.816324426865365 4.520665043898019 10.56977317147104 0.8813633650555273 -0.8166816086064257 -1.5712296811069006
P 6.803956160425685 8.387367094111505 10.047231193590312 -2.060421909640542 0.7001167901347879 1.8509839598872508
P 2.6039657069170503 8.803259147459311 5.880462267511202 -0.704105856689523 0.012756528334719965 0.401946727851411
P 6.995500592596673 4.065121783434769 1.4211701986633167 0.9662200537906069 1.130482178338208 1.1219530578212742
Ni 3.256346290042387 1.8532937828504903 0.6868625824140806 -1.1719021360458914 -0.2697786556248773 -0.5206368201961679
Ni 1.7682528567641305 1.4575456340349586 7.190396279314 -0.22447530370238758 -0.47114359856204663 -0.22611695307086863
Ni 6.7894871075539704 1.3416477020443083 9.168582270264585 0.5888579572570956 -0.5639377969766481 0.5292860112307336
Ni 2.9352260782886317 1.9635168631805813 9.419683543068057 0.7133520578781392 -2.128958521059359 -1.1018010083534315
Ni 6.525706542787114 2.175850896146503 2.7266052535486818 -0.09091215090054021 2.9984313053248877 0.09803282110572148
Ni 4.327483635286485 7.347104943398817 11.040789497022871 -0.36093506132573966 -1.4989287175496442 -2.408825157047858
Ni 7.084988638013183 6.483790851595581 11.261743120379624 1.542770397324943 0.7180090970341763 1.778179831441331
Ni 7.849083768892219 4.238604908878401 8.428760771704777 -0.7762435551960373 -0.48693788528182586 -1.0469784040865968
Ni 3.144286158373461 8.926869057347645 12.37997991554365 1.1625510338482945 -0.09718358573154877 1.3684002378090627
Ni 0.02836243569516956 5.276820839040408 10.134800338845961 0.4529676989839683 -0.5750357066620226 2.7643236207390585
Ni 8.564788057326007 2.5130407599582836 5.995317991168038 0.7246134897245714 0.6044362713113268 -0.06116705842762369
Ni 3.800768276913722 2.81141609350201 11.625836691991777 -0.8879525882372707 0.15996221162066646 -0.3473362395953825
Ni 1.2798791243543761 3.8397010332580384 12.696196473426614 -1.1013394953359807 -0.36196504525215084 -1.2613423303865954
Ni 3.50545772703924 8.583676946587195 7.975845767859958 -0.7884840631262873 0.7254727524010731 0.31460763901410976
Ni 5.706281608217626 8.076614399814542 3.755862375424124 0.5831886747864601 -0.03815568513411493 -0.2734645891168968
Ni 3.3574841511274487 8.593571559738939 3.7109128212294453 1.1407881882499062 0.17808000426729975 -0.31817581598134237
Ni 3.977134299755426 3.182382237870388 7.081650115505825 -0.5861927517201067 -0.19591908933124969 0.2461525315655051
Ni 5.031747277263569 5.029537359068832 11.686066511827596 0.43700834744123446 -0.9076410678051337 -0.5652773417236782
Ni 7.557274529737794 0.2851612959430971 2.60402936711196 1.7083640961997741 -0.9680879602372812 0.5192862197055443
Ni 5.126391798467797 0.8013081525294243 1.6256312843815683 -0.76190888374092 -2.058462471921326 0.03736070003664533
Ni 6.1272755714718 5.934958122648331 0.40188408217351124 0.2672839142274816 0.345107864485496 0.2010299281952538
Ni 8.372179590468663 0.41569470674358355 11.134521858577175 -1.0830018733690574 0.29460677041215066 -0.31244199882135865
Ni 0.2536276731100477 4.894032087045865 5.981102669644609 -1.539067494552059 0.39527574358913864 0.658812274959046
Ni 7.397623855216775 6.393547978153708 2.6344434799459475 -0.9306892078738488 -0.6711476565959473 0.010402169169930472
P 8.823102939644151 1.7713994892554021 3.8420737396654743 0.3880571143535123 0.5782884092713654 -0.13822199173009742
P 1.8910897499999835 3.709079407616034 1.448336732125532 -0.2603010551517453 -1.3079363760960507 1.701881573799224
P 4.587708323451932 1.4264430816645863 8.153367677954959 1.9604864721954687 -0.3833211423304237 -0.14188658506587823
P 8.793346345680451 2.0354710720561324 12.522561472946554 0.20254507928819954 0.518521573625378 -0.006332369975931029
P 6.564011791495889 8.009834855353827 1.364307093706887 -0.8559338692388291 -1.4669470224367251 0.3174929309817048
P 1.9596426856046227 3.7196469999711135 6.198488593792326 0.19064498541650393 -2.041550012436703 -0.34544030812425025
P 6.9446633798041635 4.27133534337576 6.27189607397454 1.3570706717288565 0.3689484185485194 0.5331632347979528
P 2.7150163697809733 8.828359452881015 10.208819866330668 -0.9805436695021307 0.8543696100755028 0.8095763650202122
