# total energy = -381163.40730519104 ev
CRYSTAL
PRIMVEC
9.26806412120029 0.00000000000000 0.00000000000000
0.00000000000000 9.26806412120029 0.00000000000000
0.00000000000000 0.00000000000000 13.56474867166532
PRIMCOORD
 96 1
Ni 2.8907370070743528 1.0410167675386661 9.796516173893558 -0.5217051135596821 -0.48693659973024517 0.375641771408295
Ni 7.691927877943724 0.5294687481724951 7.390956763309583 2.087504881900263 -0.6690344669076865 0.7881719312025071
Ni 5.359888312896079 3.8881660689985464 1.2931461110017022 3.1852052378217595 0.5318743407832001 -1.1337780754806603
Ni 2.1100323568211805 6.035493115888329 0.9475427799253725 -1.3327935443490466 -0.41772995882759667 -2.3033279092442913
Ni 7.818974501070065 1.1911037980980452 11.212973878176262 2.5007181838044286 1.7007222633838 0.4854157922103447
Ni 2.0485202151747313 7.30949047958617 6.965417305898092 1.6393232914510283 -1.9473391361802332 -2.9937238725468895
Ni 4.356991093133795 2.3655621530143787 6.679757033210604 -0.4640028737522074 -0.045563033341779594 -0.1970426614127316
Ni 2.180469644227089 2.465601637259033 2.6444344955313293 -0.9391481372744793 0.12279871519649173 -0.4761662485876186
Ni 1.8806848418018893 7.965094800180796 4.5913285338819465 -1.0439915535441309 2.1050955983988326 0.0636340319108775
Ni 1.9579526924733446 4.807780464467476 2.820463764403587 -1.79263791584819 -1.2603503987869715 0.4604678640157554
Ni 1.8563469053903217 5.863246143988486 4.878317846966015 -1.8521838937326232 -2.331291741447069 0.5237152020111755
Ni 6.080860289816214 6.475559337020875 12.400974728402794 -1.0422987392227405 3.2639041344855597 -0.03942555298547404
Ni 3.1631068757960423 1.9127523436998426 12.202399966722165 1.886692469032454 -0.35652716206603113 1.2597382191242692
Ni 0.3827006113789127 7.001382955570114 2.5690276721376506 3.5891389141962127 -0.8552232163250497 -1.8889144163844374
Ni 6.33921684556978 9.044119898726255 10.95654600656864 -1.8995042760851415 -1.7010048276212255 -0.5019778103340838
Ni 0.8740071786800172 6.890861290791765 10.25716120462559 -2.7757822561979615 0.5329094669159338 1.7000738311665236
Ni 8.759914712107546 3.471585122377392 11.403436303321838 -0.37284672516166106 0.38049807105933175 0.16966324095851426
Ni 0.5044755596267696 4.1200530335901036 0.5335772810023687 0.40278130793756445 0.24429310975926313 -0.5525786632100871
Ni 4.919886968212459 7.160756586390114 10.595099846664459 -0.2640990887415967 -0.07849269419026482 -1.5489981234022097
Ni 3.396736236444482 0.5489381704953361 7.4609102577677815 -0.7377441135692584 -1.9814790152867354 0.2718751331425898
Ni 7.950191753055967 7.348833411828022 0.7505092973099551 0.4584585468952104 -0.7468584171657009 1.0117828300220704
Ni 8.19625885577003 7.410317749282075 8.041345944216932 0.769318803051746 -1.4926097173101518 -0.5465139450732458
Ni 8.307929760500791 7.627468491903185 12.065789628217647 1.51933890577488 -1.518974580456926 -0.9029796577737221
Ni 1.0715643069189127 0.9845927931008802 3.9664543335309745 -0.5481699926194301 -1.5674676429613068 0.1673723880418085
P 8.745558480766526 9.016890326305392 4.83927798042129 0.36513727233254534 -0.4217012847705189 0.1608919225237874
Ni 3.298976695976387 3.906952434994833 4.9107375353009965 -0.508748296288698 -1.9713671236637145 -0.8264921669389445
P 2.0232925446064574 0.9498560887328086 1.2052589124473931 -0.8673264273464869 -0.841581457171899 -0.829760296167255
Ni 4.027131422599098 8.72782867408133 12.494490422304683 0.34594938655018487 0.45359736214816715 -0.12719375894039384
P 3.8019545364393674 8.190651676969953 3.750585364179369 0.06648641375800807 0.3216951419885105 -0.8021461339944121
P 8.51072427178088 8.973395301332245 9.330783902759277 0.30415970420790844 1.9129040944308153 1.8622772734128832
P 1.8627326015775152 2.1672997250950106 5.752836622786138 0.28038548460644613 0.6440253464578586 0.33793294400361157
Ni 8.910650507156191 2.503406070854915 2.2505816225819517 0.40624689788866164 -0.5917165097518132 -1.063199751041466
Ni 6.187924966673195 9.11411231905381 13.320990431048655 0.7899408501774717 0.07546856265196034 0.2219185987188049
Ni 0.8033975052812469 0.08628660387865116 11.129754076719008 -1.0184669269104654 -0.2931008752905855 -1.271128977459714
Ni 2.0153220094526305 2.442978292711951 7.917187249874232 0.1040620580189369 -0.22446013419373598 0.39329188038989044
Ni 8.957713736820297 2.271695199481873 8.966190308275749 -0.3864805138950118 -0.3386320269531652 0.18034051816670232
Ni 5.57370255242954 5.853987347920262 8.234426597479898 0.09155286980833265 0.9779885071804448 -0.04579906061198564
Ni 1.258482624340276 8.383974226706775 13.239330444784876 0.735051911449076 -0.5808865090158447 1.1644801325502074
Ni 3.5530699422290692 1.4902583721622444 4.581439509452722 -1.2336962865345529 -0.028200630803932078 0.7528318611403163
Ni 2.7391392820613993 6.308187366854652 9.114195731631002 1.878724363225313 -1.0621209161549903 -0.4537696260599734
Ni 5.881402281623773 0.4451395594385976 6.128404532008789 -0.2910859017430858 -0.15283228544410452 -0.6129587069600411
Ni 6.759523553972142 4.786250751488012 10.497880634335282 -0.5337900697486743 -0.8580421738310835 0.14275844614787025
Ni 2.923138159281071 6.207897644878423 11.85735364630019 0.21426519593860519 -1.336105125220783 1.5939456346471776
Ni 0.4934688066631832 1.7296339325727452 13.14133827590706 0.13046934436787208 -0.4402232548341063 0.8701065611947854
Ni 4.0732771139141 5.966955781629554 4.944581725093123 0.44490934745586597 1.0527723850605548 1.891637214632239
Ni 4.100126695705537 1.0168178520890834 0.6874410476956833 0.5291970510613531 0.9438414289850907 0.1840321080856766
Ni 5.690174314380863 2.5358813675746914 10.927259850716807 0.07958387037191454 -0.03946951884953202 0.17555132430817508
Ni 7.625920725193082 2.9713969692182505 0.14846882656186983 0.20391239194937139 -0.027033607079024413 -0.15738879446653536
Ni 5.254436279198128 0.6637277788066361 3.5725745831956135 0.8183104024591004 -0.18557939796813847 0.15877359062920396
Ni 7.539542367479521 6.846717501329351 10.276138492743002 -1.3733388127612605 0.3084889277108816 -2.060608571730051
Ni 3.330932981104752 4.549637074188954 7.112771184344839 -1.392764268475724 1.2519506047590503 0.5989909319260395
Ni 3.058924566884224 3.7696182606815762 0.7643233468992323 -0.17734055499811394 -0.2727120272215884 0.06579735811078345
Ni 2.6949584203424566 8.018932984725655 10.904864500547381 0.2661346311143868 3.3974261496368263 -2.157660516979742
Ni 7.4647954302520665 3.5950635408127765 3.6239039027798428 0.4393423948910498 -0.9503247227165891 -0.44093725018199537
Ni 9.038661008952298 6.841304951876055 5.876086120037452 -0.16925212156302463 0.9079907378350686 -0.6685115045246809
Ni 4.840570875367753 3.534227967847989 8.54834149048129 0.7335442165552979 0.028592724036028177 0.7850724663415769
P 6.915959208462186 3.072622765671847 9.035126169292218 0.24924608288916433 -0.3220155014424067 0.3735658627158728
Ni 3.923857383972251 5.813254206058556 2.6669651594370873 0.8664203705924498 1.0711989671968585 -1.5305211476439449
P 8.464402487247364 -0.09560934958938845 13.255906377485596 0.08224290526131642 3.800544529198835 1.6328975904303424
Ni 7.427537812439994 1.2914583965232 3.9565384317157664 1.547994878948676 -1.1757050547317496 0.41253118823547663
P 0.7532684000021577 5.903413933938118 7.963674005949305 0.14635284836734794 0.40536603794560505 -0.4874947862265604
P 3.9812359690156693 7.9830933807258315 8.633758749944326 -0.04417309497278844 0.6366323964278972 -0.09783021817661217
P 5.707524130436634 2.309138178576593 13.09448635810517 -1.1782743581208224 -0.5698004264050123 0.6649952638413064
Ni 1.0318599201758978 4.724015700839239 9.778434180771331 0.005404201734706821 -2.840124369919457 0.213265036808865
Ni 4.991176917518544 1.1224274428772845 9.096561386006368 0.8650623139026585 1.4176170658533456 -0.04138370515310937
Ni 5.702130117111603 4.882434721053607 3.7445620492997507 0.21804188937221805 0.48735388977332195 0.1555183169166999
Ni 8.045513792657253 2.4980305936581484 6.453062964952406 -0.7482480984243759 0.01775192466678233 -0.5958665273644448
Ni 1.4326480855155173 2.2960516720217057 11.037133677812305 -1.9580899469388342 0.41299861479019834 -2.5565232065891905
Ni 2.50177489156762 7.930645405800827 2.117050134982201 -0.07673740206205494 1.8325020990329792 -0.6495753297418103
Ni 0.41280977132569885 3.905979288260936 7.055988535825131 1.5671287715646496 0.8040307526116346 -0.7092640038516945
Ni 8.11984366699875 4.8857434199488585 8.491492111899829 -0.8516244432301978 0.28921979506862444 0.09941453194459653
Ni 7.813700972578754 4.873908102051839 1.6902214898498995 -0.49802628188550363 1.1989198022853158 0.16405489363280135
Ni 1.0160949430867596 0.32928690417131634 6.579513651555037 -0.8545164200660121 0.19655518025335184 -1.0603522542903419
Ni 4.257785734661051 3.120112326286041 2.83276711953929 0.02296869298103141 -1.1588959535942105 2.4272368267858258
Ni 6.131046857092923 8.623905870965217 8.60433728035616 -0.2149948750157781 -2.557193236073022 -0.40476131448207064
Ni 8.550382318203233 -0.03999818437601044 2.25496356330373 0.5967622997058367 0.8688354077918456 -0.9394936935393562
Ni 2.088780685765687 4.1371155396577715 12.124308185149344 -0.05902352972205964 0.2100789257713995 0.34609851053353946
Ni 5.062337113926777 8.458433853946126 1.874322315775027 0.25880364467061234 -0.8064825565862369 0.2884836882335483
Ni 8.022881180046038 4.733812044627141 5.534851754393116 -0.7001504715862006 0.5269838454601181 0.532455924318283
Ni 4.868236046802838 4.7950368762854865 12.922281092493924 -1.4877328488338248 -1.1533151170723235 -0.9421856385492225
Ni 0.505440365102948 3.137462142341812 4.396050422613197 -0.19364186326129876 2.0092376734572426 0.6011488588093067
Ni 7.862654887325861 7.387509043452346 3.480348077014535 -3.020351759547063 0.01416317887425948 1.8056024464286582
Ni 6.4246220565494445 1.317436780286195 1.645010946205852 0.514674431965146 1.0151592026934708 -0.16550679558797946
Ni 5.485414973504714 4.352421937516542 6.183124109452635 0.5180117238684949 2.10206272510978 0.8033805206221455
Ni 5.9880220914024 2.566567927916924 5.097971893709274 -0.5256340163004432 -0.30220412314343437 -1.2056373235148077
Ni 7.696617518394696 5.219801523535512 12.694000331656266 3.0999811384449316 -1.3919934517479704 0.8660853558505341
Ni 5.697245847313851 7.465054936047771 4.357878973677674 1.7310075446309026 -0.010560034904033426 -0.008013871443412006
Ni 4.08349978865209 8.327244406152621 5.801344743648478 -0.8887874254337402 -0.32542272735174277 1.09525215149132
P 6.194134569641873 6.602874734007054 1.579425490373232 -1.4075874495314855 -1.0894617700617881 0.4828408323943168
Ni 4.413109221455212 4.764934203983593 10.585319258585583 -0.9483616854529472 -0.10858128604552914 -0.23281056304096032
P 6.669855033491594 7.266653487166419 6.5159764378956675 -0.9016007751483246 -0.004532597763030903 -0.13375649975957607
Ni 1.4108032583555532 8.423428375718215 8.555246198259894 -1.1649079641162454 2.6391826305626354 3.4261093765041317
P 8.951448525466823 5.331546572779333 3.6685861667683457 0.7379320612103485 -0.6684132883839198 0.4698156237792425
P 2.8970485587484873 3.3954572435942167 9.691307890282289 0.10713915428236387 0.09108415770203022 0.6051996318399125
P 0.7052589009901383 5.926528485884216 12.561147266351005 -0.09717972907680683 0.056344954448631995 0.26058233383758994
Ni 4.097494565491948 6.954532891381053 0.36441008681370735 0.9578210310936343 -0.7049872308532116 -0.18075960798199192
