# total energy = -340888.39531014796 ev
CRYSTAL
PRIMVEC
9.05416775096277 0.00000000000000 0.00000000000000

0.00000000000000 9.05416775096277 0.00000000000000

0.00000000000000 0.00000000000000 13.25168971283421

PRIMCOORD
 96 1
Ni 6.349705796897281 2.2078225354415277 11.558945030089482 0.7143517027872471 -0.42664345926714264 -0.7380657585747353
Ni 4.789165698152336 0.2641299860092326 5.718911904688992 -0.5997640626466381 1.0350286879238884 0.11787968062831958
Ni 2.680187509632287 1.741596286835889 4.794116516957562 0.9382672773314227 -0.7079092895960131 0.12853998855564314
Ni 3.777462072553798 4.614945406546298 4.8097666455326085 -1.3420762552025531 -0.15844937452056582 -0.006037978663963795
Ni 3.769123184258966 2.826638669424807 2.665577704906401 -1.5178209264684568 1.052813008490503 -0.5841888339162004
Ni 5.372788282947761 4.766485008490496 2.5807138980674953 -0.8864950298551378 -0.6938623245846437 -0.36439525196019823
Ni 5.305678793217798 4.617598277632493 11.555288051824245 -0.17153551828056265 -0.07148515252418013 0.26967838260158716
Ni 5.577077464919855 7.957644462660084 12.06879063618609 0.9437365279761101 -0.9307151760157777 1.3956927549764286
Ni 1.8975724308696282 6.641639320556644 13.207084199684047 -0.7737084474790095 -0.2672075524635914 -0.6373181096410121
Ni 2.901797314088652 1.6611137916645933 0.1617173916643073 -0.808883966938878 -0.8997110143247796 0.9838629636833506
Ni 8.060255343273909 8.905833103037939 6.644569249169248 -0.23539143639425913 1.243491932468736 0.3383247801253915
Ni 8.752527938425454 2.6102531196330654 1.1477497360659523 0.0021448142571446932 -0.01924830670665072 -1.2885877963661097
Ni 6.864299408446452 0.8597928027856226 4.615801930794605 0.8423368472806848 1.2882715506772715 0.19752037238009854
Ni 0.5783240859570592 7.240536285974635 1.8545606080198995 1.39660781059153 -0.6433571167462404 1.5539984048302786
Ni 7.795393780528278 4.113516554585276 3.786432036325449 -0.05651773258107041 -0.37183088230263706 -0.38450513533619585
Ni 7.684860503325986 4.024260571077724 12.464883303106854 0.5309914239576146 -0.6739074787292717 0.8392049865199225
Ni 8.296994661672363 7.513519436994386 8.742298539950426 -0.7589590570839768 -0.5781837653727011 1.2822109463054885
Ni 6.967643676630181 0.9932150155029374 0.3219281698516763 -0.18689477434545232 -0.333818921835238 0.28705389776555723
Ni 1.9940355317308034 6.798946427217246 9.023738283442894 -0.014898000157754988 -1.0282116650020547 -0.6896068917423994
Ni 0.36747334877620874 4.890300749458824 1.2623926999099646 -0.7163857024981405 0.19600187885304307 -0.47300841968492735
Ni 6.508153728666622 2.2738726875705186 7.449092697103465 -0.346629443336345 -0.38341061672043647 -2.5759710309011568
Ni 3.360445224471952 4.49279563240343 0.2985747555423814 0.3053442114343128 -1.2667241635237991 0.3396015899552861
Ni 5.990816704355959 5.835365702038941 4.727275030586478 0.6148338124955669 0.3685920636503652 0.2581089325964329
Ni 5.237953620095817 2.602421264719895 9.435984490653354 0.24859148002430093 1.0416436221372447 0.3657378820310217
P 0.23709876884938302 5.628242565630058 12.060866428764117 1.6279818982962801 0.4680546752240778 1.118179449711455
P 3.977803637482953 6.113319591032483 12.54715037469825 0.7463339121207986 2.2392495907071437 -1.4442395535368804
P 2.3584567206327582 8.612613887589362 1.3167475838408724 -1.0775123110093958 0.9824444860692692 -0.2980132249905384
P 6.564923359077695 7.891730123044037 5.4974768456659495 -2.0924275160128607 0.024050613191300516 -0.9535979941512222
P 4.899427350328738 0.9082959782421003 12.701320212309817 0.5252835749395598 1.5275859762750208 -0.49624322184315184
P 4.354647144235624 6.384220283520408 8.175973942220446 -2.188699131453102 0.19859123684677413 -1.6178635789153557
P 4.752532536327264 1.3322302103166195 3.7327362957907018 -0.5512298624916764 -2.5059838030787422 0.8325304027132242
P 0.4337009625887814 5.63798484989199 3.44464445541418 -0.816560252537213 -0.0252150658130469 0.03554935785951942
Ni 0.41131362795490295 0.32292865536370563 4.45968363633065 1.8749127027887065 1.4916869483855666 -0.2624168159431674
Ni 1.9794673761755537 6.325666982105989 4.792579119311023 -0.6329222945661617 0.3472899597384793 -0.9679871729933587
Ni 6.265520147206347 5.739409634559427 8.685673776219828 1.1885019493861015 0.9405614726822382 2.3670871538791234
Ni 8.648875828545716 2.151143446705752 9.886462825674625 0.20756747220345542 0.7034695086571047 0.8312517931111167
Ni 2.616246978537711 5.44003358519067 6.982328630946564 -0.48274364469482023 0.07120310250738704 1.1497819071080844
Ni 0.9946727364752153 9.023229439227727 9.060074468572994 -0.5960778720443025 0.7942942420501611 -0.3302209200713345
Ni 1.5385022549777123 1.2381483555157498 11.23790960115623 -0.0027569939198468646 0.045346289345283196 0.12407835323986373
Ni 3.766053821466406 7.09284470523055 1.3349754339116173 1.84482359671281 -0.9501974531101055 0.6625128637390848
Ni 5.815111529275054 7.986744557100463 7.542265513484356 -0.22024429634017553 0.41076252637082805 1.1171916318768889
Ni 5.247677796022689 2.9416718678893483 4.981800355680229 1.0955804813650163 -0.06059910173929564 0.8813322547072757
Ni 0.801037593435292 7.55119382808537 6.857935234089842 1.8900950669560994 -0.4162379476631025 -0.40751959395349824
Ni 5.216368484705068 4.618376936040044 6.958461845338336 -1.0786597943502778 0.3784699848857095 -0.057676271665545835
Ni 0.5815681941829424 7.697771746223305 11.14522752065545 0.8448202758241707 -0.8262527972346286 -0.2675595364863715
Ni 4.827718343493698 0.39788448667488663 10.305017071403011 -0.02397887941310064 -1.3407403099999489 0.761720678989514
Ni 8.436392624959264 7.524791875568832 4.648188688048259 0.32154807488768494 -2.681432797481098 -1.5268796942366156
Ni 7.629476160546953 6.415511486502971 6.658775238023311 -0.6348632203426162 -1.798108194934142 0.17480904682551185
Ni 2.4777182153336583 5.127773455427182 2.488124170075516 0.20068771436448662 0.24052695784861156 0.459959299810453
Ni 2.282075763352406 5.361715036058967 10.923288144501004 0.292933753585102 -0.22550374496690193 1.196864976638816
Ni 1.2787381885512898 3.325867358676117 3.8066798711720646 -0.5168207888841873 1.0735237586752933 -0.29228095049245145
Ni 1.5375696757221557 1.3282011057659133 2.390631610366217 0.12543486726775815 -0.3864167505366119 -0.14420186346261618
Ni 1.0861469910275383 3.2153793523114733 8.159648372747686 0.9516956349221867 0.8946120025353173 -0.3649521529049327
Ni 3.7052550865046268 2.8459421545980774 7.133636446202002 0.9893579253596508 -0.7036839386607558 0.7306712658828771
Ni 4.005120060919987 7.052942988927264 5.805644491706024 1.0880114107685068 -0.7227684660960326 -0.5697068382499414
Ni 0.5719019649282595 0.08271253663385493 0.001276637621684405 0.8810147234668569 1.2106545742237407 0.24778543918323778
P 0.23672935881417223 5.617024452060789 7.929493244976813 1.6703498217395298 0.8976798428273636 0.24661635857580108
P 8.839330242532464 1.5008912430594357 7.722700585682763 -0.5249881551863281 0.48062197036612714 0.43759867272706576
P 2.101336471125001 3.170841902232994 10.195001692583416 0.16055562223029124 0.9852184492699808 0.11359853675446242
P 4.191943753727335 6.3252685987346835 3.5217162456770463 -0.6573611443348163 0.6255594264431872 -0.12547214826359682
P 6.831242642795603 3.8981360173893282 10.145427409108178 0.728577616578642 0.5913472993378525 -0.4393243971689208
P 6.464150474472393 7.607302504266776 10.143678143941443 0.5075038823586357 0.6410593218509991 -1.2995594648862652
P 2.3144172497684106 8.453287701569641 5.308427638479808 -0.9608850147309386 1.3418093746944117 2.1454886575038983
P 7.0582125144295365 4.291322296533066 1.2980054570544417 -0.0028570098328208862 -0.13553441759560528 0.6421996061030295
Ni 5.105255740780876 2.9141471985991316 0.5346848092975238 1.096189575703925 0.1445697883249962 -0.2694438979932779
Ni 1.8935523804864518 1.180572904194536 7.0704120997590225 -1.275073821040075 -0.28331577087936366 -1.6669395105064002
Ni 7.105592973112334 0.6879084864022414 9.054256260518422 -0.849269569844776 -1.484058485306031 -0.03385422954528363
Ni 3.0073598533171526 1.4894105586318058 9.117546702384367 -0.8764898390133099 -0.13286509829355828 1.052195686621478
Ni 6.168948396334817 2.3882902026430424 2.6342901235908505 2.238641267699183 0.3841832332204029 -0.7867498540439999
Ni 4.1789872399923675 6.72997177897617 10.362396952705584 0.7919812776462684 1.2144546646961214 0.27001545422603174
Ni 8.272856251038245 7.29442669111127 -0.013719780057718999 -0.889742590258158 -0.5853931386369466 -0.7351228738963275
Ni 7.825734295920224 4.03360447196835 8.11969414227273 0.1547798960887786 -0.1643971074635685 -0.39193793746515726
Ni 3.2791750167255747 8.57849778433754 12.332168220873607 -0.8665378700069205 -0.816250177495962 0.7033908329003693
Ni 0.1350836524590105 4.706256686083086 10.03733332463838 0.6004024675615853 -0.7076411235362909 -0.9340771505094752
Ni 8.611319141632617 2.321352742096143 5.411115479517635 -0.18646488589688534 0.41561085560206484 1.2547528500945357
Ni 3.989764192789656 2.61962418302628 11.591119919822939 -1.5484373658027333 0.6087179294058161 -1.328329852150738
Ni 1.243481260190729 3.642038888812425 12.270176146631416 -0.49993892552718416 -1.0374077296790263 0.5515859602795146
Ni 3.2716147868382945 8.4460443675459 7.574109020686229 0.3640098435963215 -0.4823582363309435 0.7061159451410162
Ni 6.088013192787037 8.298053999273336 3.252706968786071 -1.0357138869163711 -1.312551763380875 -0.16737290226244078
Ni 3.3798573596555785 8.440919708724103 3.484637618809514 0.2763138856402338 0.04222111345274019 -0.5486762428318873
Ni 4.011494194860879 4.559515792929617 9.345263542839499 -0.9798409870081511 -0.5631394694450689 -0.40945640596489485
Ni 7.4628342071632545 5.8316263308491845 11.089543484931186 -2.093857306480852 2.6680548335122953 -0.6275229779274611
Ni 8.333953773528505 9.008380604479056 2.1595348491722564 -1.1436477691858884 0.5521300057084427 0.45866603492032626
Ni 4.689026605274111 0.48550981461034404 1.6552548398561397 0.003557635444271292 -0.12645790921563382 -0.840235741777282
Ni 6.159749362124665 6.045531038737795 0.2840165595714144 -0.8754346582759182 -0.7284112662041068 -0.387702559227571
Ni 7.740951071172333 9.03429363194899 11.358274798878998 0.12432620758461171 0.292893901486102 -0.11504786760647928
Ni 0.21346105367965626 4.6883565968769165 5.76284182012623 -0.1559397207248347 0.5539248928253364 0.48900402378223523
Ni 7.283951019279434 6.217116567592696 2.5540249284402674 1.4913246799501414 0.4483985915560471 -0.5979316374235896
P 8.39535913771477 1.9005603061544218 3.0610872834382534 0.0020306572767836 -0.26429320703027387 2.997639919771844
P 1.9330194967483123 3.1957589712746635 1.2325302445635853 -0.859410772043836 0.6960369636384593 1.4309297238018517
P 4.84392530337182 0.9697647216010749 8.187384004141345 0.7582972551302618 -1.1932937143477902 -2.407024870614326
P 8.519020957835094 1.9492807816316118 12.180317155566387 0.7390165525237788 -1.0226123165374066 0.1680861262793815
P 6.525764084511843 8.017112234995 1.1101586433162407 -0.10782666726769172 -0.3812192654960725 0.8216775191591205
P 2.084024902808259 3.579664728700483 6.094690641340174 -0.7743568796962856 -1.1145976458974676 -2.012714062041617
P 6.947624912222066 4.125277918206327 5.985867696384237 1.8527806467763577 -0.4688992826125602 -1.1886492735972432
P 2.6204843289415995 8.360627351070931 10.333760431642723 -0.29889897002960136 1.2498009054058992 -0.4820931555950149
