# total energy = -381165.1553258504 ev
CRYSTAL
PRIMVEC
9.32660068802982 0.00000000000000 0.00000000000000

0.00000000000000 9.32660068802982 0.00000000000000

0.00000000000000 0.00000000000000 13.65042285418154

PRIMCOORD
 96 1
Ni 8.93905241969844 4.972878183995849 9.614306701190628 -0.3172167945021827 -0.008932269492623325 0.6441729277793165
Ni 4.2689250196226505 8.425072784103396 11.275044116501684 -0.6127980130124607 2.334133324660922 2.0647912423528316
Ni 3.5246529606101493 5.790970287206844 6.344975962180565 0.39173456320509953 -0.7475469585922931 0.5547283625632382
Ni 1.7597989715270845 -0.09722887918697044 4.169330914509119 0.01966096876403711 0.01522170204576088 -1.7842489204535463
Ni 2.0111695124288893 6.802785212660025 1.5049729250819388 2.0003470558358325 0.27266189070994334 -0.6922175898923691
Ni 1.6593235026514854 2.6439793669920935 3.612939495087389 0.8469311515195865 -0.025444922435665852 0.620794400954376
Ni 3.6186557686299357 -0.27535949045113467 2.3222368261546107 0.5555984238730173 0.3893843178053681 0.675369665097095
Ni 5.824182312145672 -0.299883786878164 0.22661774275868427 0.3611145243263974 -0.6120703908178169 0.2580667665045878
Ni 2.438812805744026 4.922262722231449 2.863872630677232 0.37702193958527325 -0.1474234557237074 -0.3273109455133911
Ni 2.9069615257116017 6.524582041668634 12.26682923438434 0.09766386780207696 -0.538346321660789 -0.3894465385018712
Ni 2.634568826929392 3.6101219290289728 11.76841196464522 0.8339452807828799 0.20470866259842163 1.2341274605347003
Ni 5.288117286195352 4.034687444127369 7.22864992322991 -1.9301808792333917 -0.2023656162875418 1.3512502083923374
Ni 0.5506975297207587 2.858425895893667 10.261678177359277 0.8122022326788335 -0.46412628670394906 0.2585791873646321
Ni 4.528251150884698 7.223275003271403 0.25027373266456654 -1.2511466208005162 -0.6059115703052727 0.7100520469706287
Ni 6.387285153400028 9.345720188136456 6.504167045490987 0.4515273669930159 -1.4142772028468353 -0.09423581595713447
Ni 7.618592298710105 2.0417700891838177 10.257500792925102 1.006981551978685 -1.858854106663947 0.4954500365178951
Ni 6.669340210462672 3.5780197695683014 0.6383088183104473 -0.6177296459861232 0.6281007048078022 0.029583627194387757
Ni 9.185964845486298 0.8567937652964107 11.85353584883974 0.208968209205724 1.075041737981716 2.509262988050646
Ni 7.603697717461212 7.295985181991738 6.586124548762529 0.9374671500276307 -0.3581382153068929 0.5478354920981469
Ni 6.050660155894506 7.303726260536874 12.055439032517997 -0.23430154576419004 -2.107769288576254 1.6629252471406843
Ni 9.186561747928332 6.0271571222393945 1.863214184929704 -0.8213499606163724 -0.7951437345346499 0.7419396397078448
Ni 8.27754461491429 5.553598973890881 13.463507644115822 -0.22637432049731335 -0.30810660467079837 -1.8130648162439742
Ni 4.203470936213298 9.388809083170823 5.200824967348126 1.1486508788274348 0.008335002228256613 -1.5283007429538582
Ni 0.7066336294019596 5.108113893519304 11.80764337764794 -0.0004936518069668918 0.9583285668576723 -1.8420002683314018
P 6.427818559854438 8.173515711188456 2.4074838214778027 -0.3127289339341582 0.5737990060414441 -0.15977220709704743
Ni 5.565779514348648 1.5104429763671463 1.5514389822141326 -0.5130608076211228 1.1049320977832455 1.6090698918831257
P 7.356458860650365 4.006894174170135 7.821132489213221 2.340521487575453 -1.0162138692102305 -1.078282356406201
Ni 6.2180912908852 3.325045053353529 4.096765298098964 -0.9628166845360129 -1.4254409327731388 -0.726470083317336
P 1.3344873283761451 6.834057304662241 10.424049631493665 -1.0227146464432257 -0.5391397640963618 0.876580084734271
P 4.464018852161384 5.257376810430572 4.292088565013855 0.10303927318137739 -0.6002906245740695 1.1327828014469263
P 3.236638205727816 8.391888738966538 6.845318242295249 -0.5955991326356711 -1.056662207033264 -0.653119852559959
Ni 9.02868105201019 8.98035993400736 2.45536938722996 -1.0727066620906365 -0.17222714503094855 1.3098829582994602
Ni 2.017707459489299 4.338100416694062 7.506053804545014 -0.5856623331379333 -0.8125904692561876 -0.9251690493865679
Ni 0.7969664200632995 7.157438529235122 -0.41929691838737526 -0.33272594588137533 0.28309182779401565 -0.5141859223645016
Ni 2.903790481488293 1.4517786582359367 10.518688513678246 0.37028436375112356 0.5160324886549371 0.0743305923927752
Ni 5.111732614574139 1.88245309676453 6.435641712485354 -1.9796489040565324 0.6283966387816662 -1.9005424875416688
Ni 7.06504922312896 9.406622890425293 11.754338124254124 -1.2226981356518363 1.383568718019385 -0.02553722503915602
Ni 1.4577756624582527 4.906547400124759 5.015711530172223 -0.5329596034275789 1.3675204063072706 0.6359333134783436
Ni 4.6840147084537485 4.966955792578787 10.537088964114025 -0.18605325228076344 1.3117516360770827 0.010033472976602073
Ni 1.1159650749875547 7.521427773067667 6.411317005312379 1.043681735613196 -1.064166228719793 -0.7745258011739822
Ni 8.776713608666352 1.779935102345094 8.118111039986793 -2.3439482538688146 2.8237086475655953 0.5796837469569952
Ni 1.8353630900483973 8.962574106554863 11.327366346186274 -0.1379016322762012 -1.9007674590682815 0.6295207250837803
Ni 0.9332662947216949 1.7804200855792474 1.5510015646433288 -0.18400408306121857 -1.1482135341797 1.420427024498315
Ni 6.097936694623774 8.318208593777896 10.020802860176557 1.4021143422320563 -1.46459703414731 -3.345587053478347
Ni 6.785092651214094 4.736448857346222 5.806889861867918 1.2818211670662378 2.0315273380933787 -0.4780228421803832
Ni 7.4814073296493815 2.1355490587878414 6.011100446548665 -0.130437205578356 0.7622163876790099 0.302641210680853
Ni 2.6131922582240295 8.853294326659254 0.13231555085781455 1.3098053109839893 0.0006008668087925136 -0.900421667238559
Ni 1.9476833417581196 1.7247962392621514 12.925858028713913 -0.6978105105991144 -0.4015620908184826 -0.15938217074748035
Ni 4.213040028487165 0.05886204206513327 8.480734869483186 -0.49578170882570094 0.37024425454180754 0.3148444376152642
Ni 1.6459118509070214 1.8800375071944218 8.08743864840681 -0.8106166333592685 -0.6706426919350708 -0.1563079026975308
Ni 6.64441953350773 3.8984258085316665 9.774330649939701 -0.9748903278710952 0.7437450683476998 1.054780673739835
Ni 2.391592226618698 4.623942073623364 9.755110391306188 -1.2144047852947926 0.7574788729940244 0.7301938120258263
Ni 5.744337283922894 7.143429975048624 5.185208507208397 -0.019604661604804948 0.2058036954348133 -0.41327063750466253
Ni 3.3188894969200473 3.350264181529489 5.371359062377335 0.9063100076985359 -0.04213498149683711 -0.48825017633534623
Ni 4.3718533844709855 1.4293388570557 13.112719270852898 -0.9986609479281315 -0.5906201913638409 0.2567141091314353
Ni 4.821516781936803 4.32532297379426 2.3613591179296476 -0.2902520929878808 -1.195221784608438 -1.3764192514587974
P 7.771772387897225 -0.15032801470627313 8.231055241280457 -0.06764058196710931 -0.8203824544967807 0.3005966694469984
Ni 6.423211219129984 0.6582994541582111 4.18637994050973 0.2265884933906485 -0.25082216912703253 -0.9581532176220723
P 8.071118962577557 3.942242178417266 2.2169926663631947 0.38578194516609043 3.3534741695359087 0.29192510981492953
Ni 6.681212973098766 5.728472736205694 3.305777229056666 2.016440104742953 -0.8029796856393009 1.3806345750917255
P 0.9078345200507597 2.978972209382678 5.925075612730696 0.3927894868321752 -0.786132017954343 -0.004231521582844326
P 4.111734492153111 1.987703785176406 3.4845159346836536 0.09718332862123263 -0.3798090154121072 -0.0396024448829705
P 7.218471803933157 5.603953290836889 11.354134622731328 0.0700569047180858 -1.4225738956379888 -0.4823091282605628
Ni 0.19204683210416065 0.4007118012585898 9.833846486710874 0.09947958085457707 -0.5875461804242075 -2.312643530218262
Ni 5.439627913864907 1.125282349043688 10.186300590851102 -2.104484961398027 0.377789156768601 4.146611158053175
Ni 6.708884997247462 6.395856299403618 1.0901434484091659 -1.3564638913827929 0.6728710670449572 -0.07472602805898099
Ni 8.768897917315961 8.451700228978533 4.792895309841247 -1.1009741415767618 0.10799301764222691 -0.17729916023721723
Ni 3.4303237215673748 7.228628472048401 4.7128217799023755 -2.022048709178982 1.2208351143011684 -1.532059695775658
Ni 3.0272000613789394 2.39123781579374 1.377437257060729 2.0473355087702285 0.2599601268725587 0.6138020287969429
Ni -0.11399157854741918 5.5486558755427815 7.395389957111937 -0.5527473275774674 -0.2315916030321947 -1.0525576979465874
Ni 5.1333889812992055 7.3416015858040975 7.691685800717435 -0.8562231183444738 0.1629089529538162 -0.5994354756626258
Ni 8.271202526467674 7.536835317352684 11.41526116343593 1.443490848296314 -0.8636993721168609 1.117351811603837
Ni 1.9209439776751027 8.50327633061058 8.571059266203934 -1.469284155210334 1.1012109401779164 -0.24330529192469713
Ni 8.602455401994886 3.887970689195405 4.511068754494693 0.3920163561115765 0.43922412414563067 -0.7561035899130527
Ni 8.025344006554032 8.285071181644321 -0.05822223726007747 0.5697564605409542 -0.02883620750540195 1.4953913938203471
Ni 7.921660187052497 1.99080021659446 2.4506053596144715 -0.42457989186989453 -1.8070628330242684 0.7149101463938785
Ni 6.07999231496011 1.4774268100421093 8.323782170330393 2.772670192931541 1.4265277380794141 -1.8972602172459712
Ni 4.81873745494108 4.8871107643560086 13.206101859929008 -0.9144390645635735 0.04364473327314419 0.23100127774636345
Ni 7.989240735411599 3.4669772621485597 12.155332521512614 -0.33075031021224327 1.2435515820620777 -1.7182412461041698
Ni 8.642093454786243 2.156263438846572 0.1806944937847158 -1.2058916056174587 -1.8519843761273072 -0.30842747834532686
Ni 0.7163071796031824 3.9087317022574197 -0.013640153460555426 0.7428364404905013 -0.2791801514444353 1.2848920926820775
Ni 6.710629071570282 5.95270286919624 8.436821502950755 0.6754195444984239 0.14814953525645452 0.8207341814092447
Ni 2.2636592454095092 0.9769614187987561 5.944486134017607 -0.1454125959412657 1.9826303552823599 1.822677142522758
Ni 5.020966136982258 2.91059889996775 11.575476307498466 0.9509641560728009 0.49926375383703053 -0.1380877801450783
Ni 3.2657651795789717 7.231137327625077 9.811883274824199 1.3799146662065653 -2.2094193947195886 -1.1251273417841976
Ni 8.8252678916856 7.392002535753392 9.377294461999952 0.22310850526184797 0.1633146730326671 -3.3420875249655215
Ni 0.12253661006917019 0.2077780094319684 6.711681112124368 -0.45810167777642397 -0.08147388830577582 0.06737293012801944
Ni 4.659103358099462 6.688357149201867 2.7014051125560807 -0.714115418406725 1.7869616913990192 -1.2889035278343157
P 2.708659342546932 4.387260928756003 0.5396445752823968 1.4435101315700234 1.0478255825782408 0.06652498030542736
Ni 9.10190419376665 1.4116462956097693 4.414696989908082 0.2783244883123594 0.032674350304569534 0.22265213445071977
P 8.67554797134215 6.3329203981715985 4.721804228994929 0.11308868699757943 -1.4369365921175639 0.48922488154378974
Ni 3.597568324544934 2.542813729667892 8.573680040988492 2.64145162910247 1.3676265928678317 0.2495728701009637
P 0.6457728968160763 9.091626279842867 0.678109153953233 -0.15511671060290705 0.2642713526534029 -1.5877137948048528
P 6.637368623411196 1.7401664771445415 12.995311358484898 -0.7910600513835795 0.6984193478277069 0.019970272474339797
P 3.906353419089938 5.265966609635475 8.39814968598744 0.7446189863122208 0.43752282518380775 0.8020286345799413
Ni 1.1286492518807894 7.176828532000589 3.596244879911735 -0.2156070546784803 -1.453607882125658 0.7501453154470886
