# total energy = -340866.7282121389 ev
CRYSTAL
PRIMVEC
9.28241246303567 0.00000000000000 0.00000000000000

0.00000000000000 9.28241246303567 0.00000000000000

0.00000000000000 0.00000000000000 13.58574892028622

PRIMCOORD
 96 1
Ni 4.229048453169998 5.521874983163892 6.196446445700536 0.36918727403220286 0.3429841332742738 -0.6222015657145478
Ni 2.634320747378799 1.658024474877469 2.851757541210479 0.061650425821945444 0.5259019252498491 -0.7729939379104881
Ni 8.560277700312962 1.5498472425954064 3.0242693162675995 -0.3447684788682063 2.618955247772167 -3.4451519949578797
Ni 1.0334388022703687 1.6797731667632485 12.205966458371512 0.9491088480316172 -3.356365889261407 -1.1575168138584968
Ni 7.904707335638115 2.3142724556460688 5.893783183858065 -0.05453926869846091 1.2285134567820328 1.5569268913309833
Ni 3.905909118160288 1.1541751383174588 0.4674084425757197 0.4080235301731102 -0.5852751250018435 -0.9122690534954482
Ni 4.853244264462885 -0.5455877032114856 3.198234717082002 1.3351044518704103 0.581634957146095 -0.05830619194006087
Ni 5.176671354252134 2.172520738280411 2.2523402011595475 0.24028038905544427 -0.3407737558865163 -0.04333028735651892
Ni 6.372255333586435 1.6765892993638363 4.301614639122311 -0.6662772158775234 -0.526343640772958 -0.34856291291363195
Ni 8.341110664839153 8.035886385458786 1.082072144736081 3.46890770261658 0.32069909662382834 -0.00445854999198587
Ni 2.3459811758687845 3.6462243532449814 5.156158151435923 1.534748812572047 -0.08374828616224932 -0.9361268339496521
Ni 7.418838031593151 1.5263998692691243 9.972944813572479 -0.5206620170071484 0.5252321528763342 -0.4660147619759135
Ni 4.656967657580766 8.12951807775578 5.840594961704622 -0.4997370939290232 -1.302324429225912 0.9428772652996084
Ni 7.484613204748351 3.375632753943934 1.6661150253886279 0.5432998090113225 -1.2415137256964426 -0.5755296155793056
Ni 5.133350336313196 1.6833561778891173 11.36267137321419 -0.21622797609193084 1.108656083602052 0.00888598963572018
Ni 5.007323025287491 5.5793888094226585 8.93216733618265 -1.5657825419494003 0.6507873477720405 0.2572542979056215
Ni 5.286343054905349 5.670514250413992 12.93781690213717 -1.7932444390839375 0.8695704861856574 0.3509573812877375
Ni 9.475579241964333 5.136070083100448 0.7699148316512813 -1.2563014255285783 0.008544032915269157 1.2078057919210359
Ni 6.8022816455764055 7.220407905070614 2.3691370814506305 -3.596418992797393 -2.7042492811549814 0.732870330416725
Ni 4.2797861184912405 6.465460034920243 1.8314672758825805 0.6711659114283925 1.7814016808127384 -0.06280870779610473
Ni 7.404988672526322 4.916708116969532 12.184446113826915 -0.9189480081775205 -0.993120991946509 0.687270787410055
Ni 3.2154554482755566 2.7241188034193575 11.897298404048925 -0.4245958327094945 0.6946573096821133 1.428361191743727
Ni 6.790873560929533 9.534336911463685 11.79007911671036 2.042694410453792 -2.11105695818859 2.460383231630808
Ni 3.5079535404705178 6.138171461637829 10.658712721756851 -0.29978291529645146 -0.40418975824931674 0.7867344274250322
P 6.5795408813889695 3.947039486809835 5.038355985898902 -0.570217973558405 0.40314897568962826 0.34603423295450725
P 8.09604569920686 7.209120491782903 7.341629711278022 0.6095969895766599 0.10418264275720121 -0.9559857776571086
P 1.7670464066736613 -0.03669616032097804 5.1762657128371075 -0.13096479594705188 1.094259705671064 0.015725381155056787
P 5.903558492191361 3.814644440985306 8.014151617191372 -1.4094571557503726 -1.6424332978349196 -0.8332906779180164
P 0.3732430115747428 3.0563920320763605 4.943093373770782 -0.6472058010683693 -0.46207943147724934 -0.5071084466924298
P 8.91734425207151 4.321139265034624 10.556955205782176 -0.8416261943669054 0.19482765603928384 0.6791661560250496
P 2.693412583718906 3.3023852389329713 8.446463259075614 0.11410118742249382 0.15136289998742963 -0.08667291600821202
P 1.1680987566822343 7.8353398689448035 0.5719562516706974 0.5961845728254958 -0.839219898918258 0.58019745336862
Ni 1.5996288194556005 5.617715889574763 6.670086171615105 0.3885631074556534 -1.7200477031852892 -1.6980814833268432
Ni 0.42275911144478184 3.6214124653189517 12.534809835704658 -1.6187534377194768 2.83661558543525 0.03538789258099067
Ni 3.329424905797366 8.530843171089828 9.457678109953353 -0.7299526425492977 -1.4614644020555991 0.5168506136808582
Ni 5.3863888940623825 7.527182347295591 11.122734012105033 -1.167854962559711 -0.984183066026931 1.0124641723598111
Ni 4.963593581209852 3.503748607724355 0.15575887744062214 -0.9302372079380947 0.5321209095763675 0.03723497309205845
Ni 0.8809529033866932 3.1591112059594315 7.211152411822936 0.44066059948184105 -0.08793095678502921 -1.162065609571444
Ni 1.8588123341097753 6.240398667672011 2.295665860304607 -0.0262897869344644 0.9589664575519872 -0.15732168867402582
Ni 5.029118129234486 1.6320708502455274 8.519052651058535 0.3246423975422925 0.016382040902449206 -0.24244242970376959
Ni 9.035787832294533 5.371880483726287 8.653605857729604 -0.2475622674288382 0.7161705011635408 0.35459652070222153
Ni 0.42188934941759554 0.7264063089850307 6.770349219218629 0.3081140608699661 0.0475821206543374 2.90839564349203
Ni 8.943047251572885 0.6042590462769766 4.819706909028262 -0.004247205312128169 -2.3935656597856263 -0.3056622568953639
Ni 2.988314820684852 7.790719313291819 4.358743245272985 -1.3636457538432127 -1.7947868438703927 -1.4647140193411485
Ni 2.973602197279406 8.548674685008983 1.8105595705460333 0.8424998552211101 -0.7965565557217765 -0.62107439408864
Ni 6.527930669316869 4.151809500894466 10.006311372621827 0.0028184432854015977 -0.6140969343295424 2.1180421312571713
Ni 8.29751117453292 4.489067384926059 3.918741124845265 0.10378926397352449 0.006341111726679402 -0.738057016823987
Ni 7.58105746795503 2.532353448887426 12.019543132085534 -0.20443252611889956 0.3207690306298153 0.590964462077137
Ni 7.185487470211758 6.408345352387933 5.09147644644297 -0.6939204315160888 -0.20781301255535822 -0.6869414290950943
Ni 5.76430374371912 4.737548278263843 2.464196408750626 -1.1319353658449667 -0.08968599180292297 1.556388759439326
Ni 1.980746101336236 4.258371593446216 10.823303814446863 -0.43166096708639207 0.9264725986893398 -0.9293746028274833
Ni 6.295935340122979 9.243231181105202 1.1767499648928814 -1.0361990540829058 0.6115109187699211 -0.260970313304628
Ni 2.0965998885434116 3.112476366849677 0.4345431337875035 1.4334149521175505 -0.06331341534666515 1.345125583551838
Ni 1.5427461972293708 0.7199114051384751 0.8254143744532765 -1.3459766186982238 0.8464148740048004 -0.9767407508162728
Ni 4.182766345725485 3.0634466653811807 6.479940598019609 1.2143446214808182 -0.32139612269085294 0.9067329541685675
Ni 0.6568439116346122 2.7103529860627167 9.451836687928719 0.19365549010805355 -0.550517152695368 1.2663729508319672
P 3.1051989556510207 0.4474531127353234 11.830307234889869 -0.3321849857762408 0.7610817598539344 0.1260287920980152
P 7.625510940187636 8.893182133002503 3.292560733814786 0.11548161270978821 0.6352000348567448 0.6710406987044379
P 4.606610571161495 4.338172491500866 11.357876079049364 0.48279840919215555 0.013958004841988865 -0.564085635408422
P 3.373460669479029 6.885591295458979 7.639252623272445 1.7115589489879879 0.6290409572338844 0.049870145357565725
P 7.158568474706525 5.348618758644869 0.9954811621255419 0.682763643568321 1.5130152775496974 -1.6807422207174472
P 1.5371860322957038 0.25181235109186256 8.516606735432456 -1.712950687129192 -0.04660124479830684 4.113591508594045
P 1.7999154284267747 5.615311744803778 4.478677580902264 -0.52124102943907 1.4557650376779767 -1.0042713521363738
P 5.0395608430080685 6.678816280329819 3.8638003832603096 0.6716755040749595 -0.33919921231054484 1.4525961530316918
Ni 2.8277012416410447 1.04017783355892 7.291715395922751 2.371346957596742 1.5536209668862018 -2.3922631389241187
Ni 7.228279390652834 0.967561522580494 7.817959480260667 -0.05577802620156846 -0.9749337795145208 -2.0378998172786256
Ni 8.2815361430624 0.776859004250407 13.530345764062437 0.970739281817199 0.7803259527955271 0.32788404440804175
Ni 0.9856343792179727 7.362391682742352 10.266981001476134 0.07137048132318677 -0.023270283381850245 -0.0799394539391204
Ni 6.585435213163391 5.659960147693493 7.2892973275334025 0.0904984604018893 0.8037764705089834 -0.41785928531660943
Ni 6.863025751295799 8.728837024236935 5.590508211048768 1.8249384277531087 0.37158302795788906 -0.1370156301268221
Ni 8.636904013380445 4.792676524576112 6.42308396654766 -0.30711261618864527 -0.1710650064020473 -1.3308035105022111
Ni 5.2681680917331954 7.964068361933275 8.38592522290802 1.529497848585753 -0.003695703684032345 -0.8614288309151293
Ni 6.973022336377526 7.208721348056446 13.084651668447195 -0.15157681577044865 0.556747449875796 -0.5851026039797212
Ni 0.972054210106195 9.068471205802783 2.888574372890619 -0.36309530220185204 -0.9356948886185562 1.1124656871561294
Ni 1.3358133810920771 7.6578137347939155 7.639999857458022 -1.0117188095533545 0.20325650353292735 0.8833878516847238
Ni 7.340225282305629 6.645074711825846 10.358127792015628 0.6248834834220851 -1.3452060590807866 0.3937053137782252
Ni 7.898061128471996 3.132015844621578 8.345032484011897 0.5188527317125515 0.5711901076636873 -1.0312339967681463
Ni 2.3328744097814087 5.418645276607446 13.099174930642882 -0.6538600731600933 0.08520173077932423 -1.4657722854023336
Ni 8.868063925472448 6.950224731908267 3.246994300354222 1.2978679361164551 -0.7231914125660642 0.5342708660398348
Ni -0.05345834034971913 6.137577387254265 12.214212953408357 2.069018135949985 0.5629399518397531 -0.20063937762505446
Ni 3.068013612204827 1.4949417741769748 9.851121507051712 -1.5887049550735284 1.1749638056903506 -0.052122174616536045
Ni 7.969136559018053 8.42629536199485 9.182349695684609 -0.3443704720988392 0.18252029942684048 -1.2773978411875613
Ni 2.106634176178293 5.650055813830015 8.795889457316797 0.6811698167186397 -1.3216781511621754 1.9420886864145712
Ni 0.5315861125838673 7.305703991173229 5.459324520021974 -0.7139796641598091 0.5687653002722786 -0.5984995941119177
Ni 3.955932037738805 1.1244435719025414 4.677641446128784 -0.37596290219313955 -0.05194142606429765 1.3268483825092052
Ni 2.8655085067075317 7.574077093948156 12.456256493855491 -0.019511587670366395 1.4164027338302703 0.25912297568324405
Ni 9.501941292734974 0.4725611096119109 10.215287247693846 1.002616333031454 -0.0614251971850168 1.0066023142623957
Ni 1.1778638543620636 3.9858306875740994 2.7719000204411457 0.2169594549413167 -0.89441325626095 0.41356914258168775
P 4.177206180791817 3.2381787934468704 3.8227711929042134 -0.4158008601256839 -0.5593771741891592 1.0613313303741592
P 5.3578826060635665 0.7777389769310608 6.428151235391214 -0.06506587926139762 1.148979208701131 0.426920109967297
P 4.6665656718402175 7.962221161896881 13.783828949358071 0.4790417703632008 -0.0645971671550952 -0.14585996789132943
P 6.1811119006747965 1.8418440845292352 13.721470632149588 0.8194152054875049 -0.9343363177081329 -0.7290643264070735
P 8.610087124409887 8.088313449808288 11.700481560774254 -0.5400085398545602 1.0782877557228396 -0.9697267813922846
P 3.282195992304047 4.797085670391623 1.2031454323475985 -0.10540365964849589 -1.847395214094728 0.9839550091765249
P 0.17394590774869195 2.5292438407859597 1.1659340981471238 0.0742845696461882 -0.24260518053387894 -0.05749166645856551
P 5.656971210951187 -0.009194229326873436 10.1266272153943 -0.535582899983039 1.1273906838970777 -3.1242922043864705
