# total energy = -340888.5111077838 ev
CRYSTAL
PRIMVEC
9.06884602523698 0.00000000000000 0.00000000000000
0.00000000000000 9.06884602523698 0.00000000000000
0.00000000000000 0.00000000000000 13.27317285093952
PRIMCOORD
 96 1
Ni 6.582730584254593 2.1692951331595416 11.374498332629038 0.4683493236463611 -0.7197366212482443 1.106738554864365
Ni 4.539447064140255 0.5696985479215946 6.0062830012536 1.4922829300983527 -1.0786016874188327 0.431404885211528
Ni 2.7212160225671016 1.561927320242923 4.675355508658378 -0.37966863317950095 0.42558005099963475 -0.19499169242097386
Ni 3.4470048245549165 4.689754115209791 4.711512090166109 0.2250517450311479 0.05482363270809914 -0.2337040213895072
Ni 3.5078205048054483 2.6276073957335218 2.621557568668934 0.4084043105512966 0.49079891089912897 -0.040198683706072706
Ni 5.057704397763446 4.419801780879702 2.779083421032747 0.6292656716501808 0.2769962564192391 -1.4606748162747683
Ni 5.383720337120195 4.323599464133857 11.704416596353788 -1.6287879391373432 0.4140869627583707 1.2620259867171812
Ni 5.684724399630691 7.830295432054267 12.309527173539067 0.3782247016441228 0.7994439045719006 0.1982564792151747
Ni 2.03880351026588 6.206582065055175 0.4703756413197685 1.6614412063959902 -0.09601219113126691 -3.0329378237421896
Ni 2.6398231310895413 1.7047162981052282 0.2582480818798442 0.6115911371885531 -0.4271612794438256 -0.22562252993295334
Ni 8.162396566974408 -0.28813446336890275 6.820565601017241 -1.5056848053265555 1.4400967350131004 0.1588322117812813
Ni 8.743247074634159 2.3074227242564467 1.3099303938054723 -0.9517969363867415 1.4793736782358522 0.34321578966910565
Ni 7.019649439475306 1.085713155966803 4.878196569950891 -0.6333809793701349 -0.2737906049977478 0.35109133576244056
Ni 0.9418540542945422 7.274393319319838 2.0031475290489076 -0.11564899152558793 0.3745572800948646 1.3811608799088408
Ni 7.586842265289352 3.7619749096699198 3.477359158489685 0.6716215109085724 -0.4433517731607591 0.40218301223193315
Ni 7.840207680565127 4.201677900565688 12.479662349168663 -1.543210055965523 -0.19290421376432582 -0.1718489357559234
Ni 8.286957164684079 7.452550795985763 8.934398393629783 -0.2193798914573512 -0.3914386292312355 0.2842490813269104
Ni 7.088572667913129 0.7910609130876024 0.2946622186096323 -1.2088380898402924 -1.3216989770977818 -0.28074955281408426
Ni 1.946772862609692 6.88730777202884 9.158966595802735 0.5062478984643475 -0.5991282288348521 -1.6147643711647415
Ni 0.12250106281779816 4.7816124547948835 1.0502439929742808 0.36636394565079483 0.9419974337978164 1.1207433537838891
Ni 6.542319807159996 2.311385809891622 6.9953204467213395 -0.3825318136599089 -0.7962089425743707 -0.8527819538734088
Ni 3.4388337944466953 4.144643929033389 0.503901350647261 1.1687088259195744 1.149619670498607 -1.1447859965553897
Ni 6.254039335372954 5.713282195203153 4.490819005823616 0.07207573492032747 0.32256931706334774 0.9947472146960225
Ni 5.179562479410687 3.026400823013103 9.790969021578366 0.03132940624090089 -0.4411948747187563 -2.2305638900076876
P 0.5140620855343316 5.827640341334855 12.23424124285493 -0.41558565879108433 -0.009423350196428933 -0.05925724299942053
P 4.24235167418985 6.006341948751606 12.555598516100034 -1.6228278648991665 0.4047291756925545 -1.1133707154689019
P 2.539177079878626 8.610597066428891 1.1522095612559466 -0.5985530730576725 -0.2960234482540192 1.0440841132579373
P 6.540370005302873 8.070973531989974 5.507743152271133 -0.0350356514478945 -0.3125584697945649 2.067227619708466
P 5.040455452962297 0.9538793438877728 12.574592306842163 -0.21237286401189878 0.09321663066400075 -0.005952103818376846
P 4.064656708662127 6.340438229758105 8.041246762187825 0.07645123828020382 0.43171521736309515 0.13284118703415831
P 4.833350220352487 1.315354470506612 4.072886686268353 0.7066291373320088 0.22923492987456004 -2.7979616205084783
P 0.39822208999121517 5.468550321173799 3.3413881389352156 -0.907578075777682 -0.09124922252498478 -0.05336478877438552
Ni 0.4972266801038087 0.16588279381189933 4.985443834053897 0.055831762257639334 0.32069729685161547 -1.5265480219288095
Ni 1.675723197932107 6.8781845131066754 4.329788951424491 1.418607454791073 0.7940217051150648 1.1904235918888466
Ni 6.069887351602109 5.901234025383927 9.016758024074642 1.3700434298394406 -2.4938710789756082 -0.4820206504858666
Ni 8.752624261240042 2.6619873903398092 10.26442353606322 0.18455301358615311 0.1921603936197658 -0.42646065383237525
Ni 2.532783543556433 5.463426423270198 6.783546572269452 -0.9186759854630566 0.3899566453690703 0.28670936994194496
Ni 0.6639746418095197 9.232175760787888 8.886044214457726 0.6270771486392942 0.33194458763066054 0.42995426880793053
Ni 1.57700881088662 1.112384631603071 11.369892265823307 -0.3275372025915843 0.9891674066153995 -0.6858229992199351
Ni 4.398807402743707 7.001167131638953 1.307948850987885 -0.935610556434866 1.0641510592111414 0.8096807518085605
Ni 5.727955587783731 7.959680655754585 7.887662230229153 -1.1652221529225544 0.7248443747884549 -0.7210789942087517
Ni 5.358209673752353 3.2504466596652626 4.836265854292323 0.7490333133298327 -0.5174959605743409 0.3348532766370233
Ni 1.002696941082615 7.662113685820133 6.775410003775449 0.11129302854973736 -1.923769319280093 0.622377943391412
Ni 5.171554688527713 4.787752063433358 6.731409777494577 -0.1657543928224113 -0.02452909548961582 0.48341547395086415
Ni 0.7130597699568507 7.681176399790698 11.033484336010385 0.37781023981452355 -0.9021083109123625 1.0500765833959465
Ni 4.654167964105841 0.4168494993611215 10.360520654197238 0.5800974374556461 0.3241898833859062 -0.3909933141637008
Ni 8.322343801179391 7.27771251689987 4.334181900352817 0.23585140674981314 -0.5215451909430502 0.2556761547852242
Ni 7.256944859910052 6.410059759326152 6.760770165924505 0.6755529847524946 -0.8497519087978332 -0.06124239175024936
Ni 2.5351414434766744 5.367224106524353 2.5765216801923247 0.32086544699836356 -0.5936767188019775 0.11722430643250778
Ni 2.624188440849172 5.200375480629739 10.682766674335355 0.2046166171052476 0.43510007467492806 2.403154589025642
Ni 1.3313428457350174 3.350294652441635 3.6549670630972764 -0.5727499959516394 0.831979672416077 0.032648896383272806
Ni 1.492323928366569 1.3142662090049622 2.284458592802466 0.548969348592274 -1.9064621954602137 1.4560339750686473
Ni 1.2744177003528843 3.7004972036725508 8.029260468631737 -0.8754248880839053 -0.15991824575660846 0.11916703198117543
Ni 3.7482265393657435 2.6043458061357567 6.922835882519367 0.517187942415619 1.5423641630254599 -0.5974369571753582
Ni 4.16583782177802 7.0318561059854785 5.874997854348318 0.6961665472377881 0.39957565651607313 -0.8847505363602053
Ni 0.6281862554431802 9.187466350761774 0.09124619249041495 0.6514967151342393 -0.5695939668211609 0.6273049483793842
P 0.17114363128779156 5.837071941015821 7.934065700659502 0.9598678863203339 -0.6200007014084871 -0.9921030922049561
P 8.750230085936412 1.908484195443312 8.048254259373865 -0.10822904491243296 -0.2286075807032063 -0.7735351551259388
P 1.847369243279827 3.325554840970795 10.18053671197771 0.4706818284342797 -0.9939095492860752 0.3592067657807233
P 4.4281179125214765 6.409243563199915 3.474013661256696 -0.7036191468610914 0.02184974888523979 0.41857379488513075
P 6.986838355200565 4.299657711097561 10.400088028628057 0.7292170499348538 -0.8924867286621985 -1.7593213039739313
P 6.5083025663875915 7.796450499352957 10.03196997242623 -0.6505271521321184 1.848688478984855 0.775945050119012
P 2.520141572445601 8.599460523728675 5.653097706623577 0.20584946107108418 0.394388712998495 -1.7353177419704824
P 6.936451847674177 3.9420640505012727 1.3530010633870184 -0.14742371283402353 -0.7513285371219125 0.029837909297038934
Ni 5.211112994112685 2.6561107782309006 0.7044588765554781 0.767753258336839 -0.08857424679598296 -0.3810351745097244
Ni 1.5758661363098878 1.3601999132204323 6.782286002696707 -1.1468464786288444 0.49139129306748924 0.863581615592074
Ni 7.04987590268363 0.6554354165599073 8.75530319830327 -0.18331168497988432 0.5563728401451966 1.6719282219702434
Ni 2.7182505099751055 1.6110351205048716 8.984252559904947 0.6207108401016342 0.5378799235473317 1.2205160403988529
Ni 6.616258107351254 1.5829035606872235 2.533636015066059 -0.5607113196195505 0.36963747419574405 0.4561597235587047
Ni 4.459568669919157 7.024945645450002 10.143769797144472 -2.0462049947102114 0.4597826650232727 1.169675817818534
Ni 8.348688798365165 7.268308123756446 13.47983633733662 -0.35828065442202817 -0.4850563519883969 -0.7059506232077455
Ni 7.820673386610513 3.9202172008556526 7.929698144499548 1.5179664509073858 1.3594193744666911 3.6797075657144043
Ni 3.212185199036424 8.153744888036291 12.41325663233799 -0.012271361168185318 0.1612433923259352 -0.7549962157814868
Ni 0.00805041445845464 5.2579263763753215 10.127218246588964 1.1391730212439863 -1.271666338020423 -0.7285624470699904
Ni 8.800099669249516 2.814806511708987 5.424440361858177 0.2839647173172723 -0.6653089384269832 1.6631191083190453
Ni 3.6804641231963466 2.443047313899557 11.532714324161814 -0.15812695818414058 0.7771300715660487 -0.25668222745223535
Ni 0.9027754906548813 3.476614606245639 12.479224323914249 2.897775701884339 -0.20029973489744857 -1.1236191326697873
Ni 3.099323412469489 8.691790443297815 7.6518377765908046 0.8500802386715295 -0.8702250890505207 2.182896922949028
Ni 6.232963337624336 8.029574250698046 3.4455429266043667 -1.7640878721246391 0.3642384146673598 -1.0116730439170833
Ni 3.4356324918626755 8.549463976573712 3.544135791115503 0.027829106397126265 -1.1584056442213535 0.3777621601854075
Ni 3.5536544517166004 4.312018547987133 8.696688526939825 0.16883303174773504 -0.05602690898758093 0.10757367071662118
Ni 7.372182684088923 6.288156333449677 11.2755735483599 -0.3625242601897305 0.6217289969535035 0.8456908513545822
Ni 8.402557742696832 -0.28538206865431337 2.370747754152866 -0.7739347045572026 1.230979658934338 0.06442824567739872
Ni 4.407177947460564 0.5333379173823043 1.7036779152557373 1.1502945850784447 0.08937103166566544 -0.8252567518699465
Ni 6.065062725611462 5.7133728836616235 0.3332193236130859 1.2734748519840713 -0.533151664833727 -0.10466035372456814
Ni 8.187199860366176 9.28223578986378 11.086749295208637 -1.0930538582884206 0.029327288209207557 -0.11296038894983126
Ni 0.38922126048798633 5.242046827297081 5.6070660588729595 -0.5363231205831731 -0.6326037348844783 0.4397933663855394
Ni 7.4816255157715075 5.849251400988452 2.282600386288399 -0.1184898034084927 1.6531733099602433 0.8791097931346602
P 8.719704350815135 1.600333882405315 3.5484761407379164 -0.3452922125821602 0.442092189722045 -0.33515846658226794
P 1.7251302701070095 3.3755060438965225 1.3281669359193693 -0.06344557004915524 -0.6284434328592016 1.1657597705935794
P 4.942883740493541 1.441202844326568 8.16004138770792 0.35140372479653675 -1.6893088793405358 1.4629479285796612
P 8.658271989047002 1.7998122156577292 12.522508111373202 -0.673684306974872 -0.022855050221302575 -2.221244926599607
P 6.589278290956186 7.84505044424747 1.3250717388317603 -0.31231241522202985 -0.40825415812667754 -1.01552918443838
P 2.0834947826002996 3.405687162875611 5.895691146802189 -1.6212517786612983 0.4180865708360671 -0.8440389175734561
P 7.2285956477920745 4.2655679195583796 6.065654014360691 -1.5007778549432411 0.6643751137588043 -3.7593328308472156
P 2.5516195363808225 8.666252573392434 10.219214432630931 0.3486184487419157 -0.010433022407865904 -0.6008544674973394
