# total energy = -381163.7406028739 ev
CRYSTAL
PRIMVEC
9.33299540711647 0.00000000000000 0.00000000000000

0.00000000000000 9.33299540711647 0.00000000000000

0.00000000000000 0.00000000000000 13.65978217194368

PRIMCOORD
 96 1
Ni 2.6373924572352654 1.7221242806101147 8.263826899438595 -0.10602021018657225 1.3261019912614838 -0.26318763267092093
Ni 7.533696415974266 5.760026002685798 12.639300259235844 0.8326676996220369 -0.8543708956270835 -1.4446720130886086
Ni 6.885631892903567 7.174002779649131 3.8170625222455685 -0.5268360070283443 0.21096004282477215 0.20862085316863424
Ni 5.935812967921498 0.13715676466192384 3.869215299614143 0.03334823644314257 -0.12266630338368552 0.18796178215738596
Ni 3.39125581428058 6.562878251715301 7.516910090746077 -1.0597040791833814 1.4970613253236023 1.367635077508264
Ni 9.103944865138638 8.734376919855745 4.622196688609828 0.5677867384090931 -2.4234889297076196 0.105257878099251
Ni 3.9009960149855583 1.3875084024792106 5.812414904833796 -0.5865570770380608 -0.8999825228186114 0.26078236566353796
Ni 0.7663546378667353 5.243976697202516 2.0812588705207222 -0.3600043219813542 -0.47954930612723873 -3.086351206366323
Ni 8.476160940711804 7.951357285698865 8.819451837912874 -0.6801223492907319 -1.1439200490106687 0.5284324049811867
Ni 5.197918365721859 0.1916782562209319 12.788437789879879 -1.6367048799915749 -1.4953145178358247 0.22647845017534543
Ni 2.419728342383818 5.3527714226473035 13.192289559855995 -1.2493602183240546 0.7191961753637419 0.4033199540498538
Ni 2.1302001642292168 7.592587615901915 1.0490053318332722 -0.2820217346582885 -0.12659212080065294 1.0284479493825773
Ni 0.5861186338029029 5.491758387674649 11.399784228885435 0.8207712052947671 -1.815815382405918 -0.12120463123649447
Ni 7.599718024260825 5.329373603595225 7.866340232212188 0.6254367848223937 0.988122253180337 0.30350715822557406
Ni 0.0195442253198875 6.674239550849485 0.191439331542937 0.14047864897475806 -0.22317561105435757 -0.8258252227789068
Ni 9.185431246528227 1.8578540303007332 12.319238253873115 0.8977852580569763 -0.9120651650147583 0.7085574647029732
Ni 3.558260431000921 7.731322590057937 12.89389130303083 0.6773208752861948 -0.4484199317122858 -0.8689503361031551
Ni 8.182264920787608 6.503949719806714 5.883663923751017 -0.6819185219592063 0.35006572271140357 0.15443665381674693
Ni 0.8658453003625725 3.116091115791375 6.924307825153992 -0.08970604640758098 -0.989477995877283 0.02444322064402887
Ni 3.95951389510384 8.923155414457419 10.806417590983672 -1.2068010048056055 2.0167807759118235 0.96726186479156
Ni 8.632684603784165 1.5519091135292171 5.1622224588497065 -0.4342786072148972 1.353569086333501 1.5101202153900897
Ni 6.156314313324136 1.396020094132779 9.129692732390682 0.30895635426560336 -0.702606389325861 -1.5394721861896457
Ni 8.742104639909643 1.889175562306627 9.904776520699942 1.4421217358629292 -1.8505900668829418 -0.5743466510147979
Ni 2.0730635674055926 1.161183268050448 10.40848107338698 -0.9069304148913543 -0.524582177997161 0.7456507700108449
P 5.385343576014577 2.5590792942252967 13.079555377122862 -1.778903596981233 0.641352941832018 -2.377268208177183
Ni 0.12723205752990133 3.988315518396507 13.450869525814069 1.378202311501149 0.5808646546389739 -1.0333525857730463
P 5.857005156164118 8.72037742700448 10.065729623310443 2.2946172688441706 0.6399995131279171 -0.7217868189090537
Ni 6.967043610331284 1.2118334331863199 0.04616286102728025 1.3132071375766867 -1.0001444744521937 0.5984839103826338
P 8.26320065545838 0.93166158275398 7.726382635680488 0.4832478380247483 0.8015455242959357 0.48079474849856557
P 8.193940497825562 4.91277669532732 1.222487980545655 -1.3933918747573937 0.7687644732101728 0.7729299174417721
P 3.4738528221030354 9.212468933721635 1.8891204976347455 1.7590544234657899 -0.6959891411196595 -0.8211933804338502
Ni 8.987627745535105 7.397406686569596 2.5141101232884675 0.15503469241206203 1.1182830651688547 -0.6254696949428582
Ni 7.1454811462134895 6.075901226386477 10.044707051545462 -0.37692372344451214 0.46904840659591474 0.9751939751544431
Ni 9.06937545079125 9.017614659222511 0.559280672707507 -0.13393236321580806 0.7368694242737891 0.13872772772192238
Ni 7.903749677009334 3.4671703975153654 11.226482640280597 0.39150007859679026 1.3924122844529438 0.5663178671730504
Ni 4.4761045143107046 7.249292052203227 9.366553885139306 0.2440465409660958 -0.5490084293603255 0.15725972508783884
Ni 1.6123682566562076 3.267481631484941 2.888524692996467 0.1419256658339298 -0.7679139522844195 0.351470316368414
Ni 4.274325157347824 2.2603767817555003 11.015972266276144 -2.20656752709309 0.9408859459011923 -0.3060121840356149
Ni 5.354423362803753 5.107752298764486 8.478981371871571 -1.3600269261437028 0.2937698763331521 -0.8841314147189677
Ni 4.68954078232107 5.128032897408351 3.46448996128411 -0.8778432677174107 -0.07473554114067775 0.11439994960983522
Ni 6.037654611916825 6.089536732423608 0.7350919037308167 -0.4497985572273673 -0.22510188154279298 1.0008638691167215
Ni 6.250736226108291 1.450767444176454 11.286067281754145 2.3170424306169064 1.1460491795385295 1.2017536721896853
Ni 1.8143902714951765 1.0628321642727034 1.224014858565966 -0.2885739339545094 -0.37636990782357116 -0.2711238567988621
Ni 0.809233217871109 9.28407167315823 8.615388697016192 1.0081609169987669 1.2653041432478207 0.967000383600057
Ni 1.0411516163437133 7.550374478457737 6.856664142295733 -0.5220722670911138 1.252467910715101 -0.9549987311534909
Ni 5.440753568719878 3.9206979679249034 5.791037679249917 -0.9996418237841621 1.1231159677811238 -0.23355001231014616
Ni 3.35399849730575 5.510919026890412 10.236831424938588 -0.6188424194343277 -1.2778017614941994 0.6273753966060034
Ni 0.3264121753200637 0.970202186573509 3.048003182359969 -0.6542547374953507 1.8879985894383873 -0.986528940551288
Ni 7.972235196037717 9.377980271204507 11.4225558039573 0.2393308806579814 -0.16617991039560412 -0.287957126306117
Ni 3.392375773708681 5.900114261150776 5.421608795596014 -0.3713613988653862 -0.2639342810289584 -1.0875290718154496
Ni 2.103619793802284 8.969251077919013 3.4600633216445407 -0.8037787845018286 -0.3879167321209061 -0.418130536700125
Ni 4.846269771288584 2.6613782549870972 7.5399131240997495 -0.006830906878904365 -0.32371551485264893 1.5280642014630197
Ni 3.0984797537844857 4.345974561760591 7.142084869247773 -0.1856390475614803 -1.2343819997476677 1.0765923702982876
Ni 9.055534618858967 5.628608096793369 3.9767043390256687 0.1716753862925366 -0.08591829723037461 1.4278456855598893
Ni 6.3696945833630965 7.626485054592441 8.042346522835892 -0.8578621966097935 -0.039466176415422355 0.47220726393987067
Ni 6.187673177310966 0.7085833973671872 6.227358006346205 -1.4297169344406733 2.1932098748392614 0.45434221073399167
P 6.688005718819895 2.6755550747478103 4.811152510120951 1.4743451146730093 -1.4208934226117722 -1.3688764061145329
Ni 4.273811842609944 7.67241272413982 3.341688276591872 0.1411414793697376 -0.7405072781366925 -0.6981393546934428
P 0.8620747702879655 8.679330913964575 12.341626242840855 0.6352301167637318 0.4387692959963992 -0.19426047068190416
Ni 4.32916583734384 4.552065762521661 12.353360617748784 1.2629785804384377 -0.7978161391604904 -0.19903835168652173
P 3.203681276064115 5.236706293915094 1.5533361285005225 0.8287251700345212 -0.8942008831398276 -1.5761870251121757
P 1.5074467242336036 7.120543382947772 4.806440280827215 -0.8321287963994315 -0.4387579831424895 -0.3074915967946188
P 3.6464105709877113 3.601630859854136 9.373520032782093 0.27128892162181667 -0.7301621874569425 -1.174824966119641
Ni 5.930278501747632 3.9448610925861844 10.23729620810125 -0.860682182557092 -1.1369456745753646 0.9334426022492698
Ni 2.202736203189231 7.48811406725055 10.481410031446352 -1.3848591546960343 0.7343505145066772 0.7240391052783401
Ni 1.1273511603265607 6.363114821723003 8.661558091140135 -0.15262171209519523 -1.6085770114071072 1.7637083772980335
Ni 6.961490478166948 7.987867963054962 13.05126613526855 0.2945808022702217 0.0035584067752196785 0.016709599445197027
Ni 7.726320104612419 8.588614200288388 6.494748319805341 1.639336404077151 -0.19553548073958582 0.16712967590338312
Ni 3.0043284978621205 1.2112081225056301 12.747800062031232 -0.9617165094932985 -0.5626468460793664 -0.3097364269647375
Ni 3.1918190391214774 3.3513292606687757 4.917180002478804 -0.43940333003597226 2.427054535571691 0.44098301581826627
Ni 6.474074802062118 1.9483934170674726 2.6387149426599477 0.5720066900277117 1.6010822456919587 -0.5314771053447814
Ni 3.68679444136599 2.155277922423447 3.0720580442765337 0.819337558172034 -1.15277672807035 -0.5521678009249136
Ni 4.5798220903481 1.581158720593124 0.9919293994786702 -0.3837867691129326 -1.8833639188798532 1.4689324282978702
Ni 3.2131822652125055 8.438054321170664 5.294272208519489 0.9084612497135838 -0.14438749711086102 2.647312201648305
Ni 1.301299525501129 3.732264794146894 9.670442743060734 1.317418861665189 -0.43689161935771215 -3.0709896363085885
Ni 7.543216071113124 3.029676912918142 8.376765474767355 0.016642750763003596 0.7929863218720149 -1.4687233976108578
Ni 0.7847275722847338 5.357540583211967 6.388092716868226 0.8871568318088529 -0.6651353889635965 -0.19533776290648291
Ni 8.757056098274791 2.17041604069328 1.079200371314401 0.906620082739787 -0.0679182611085282 0.9326108503765939
Ni 1.8077078469075067 3.2653630415667823 11.63126304328251 1.3543134206986933 -0.36030462683059233 3.251045533355336
Ni 2.465861337826349 5.709011850735792 3.3797855631377773 -0.7770598804497456 0.6140257147719748 1.7450275130590784
Ni 2.727325199311783 3.100486347759833 0.7413804759196042 0.05989179125962589 1.651075804001266 -0.5733603758421287
Ni 8.923183413443121 7.3618199757416845 11.184055777245556 0.006961518919497688 0.6230703414727463 -0.13071925559514908
Ni 6.832135164221272 4.876667336766293 3.131682817629589 1.448897621134182 -0.2146657738111335 -0.606044496338711
Ni 8.592748717177127 3.3187104423253313 3.2032874236652327 -0.287277326630273 -0.20704039605539182 0.6762281564426482
Ni 5.433231174561133 6.203576601190001 6.416587284617689 1.5230569780564156 0.025199124973446927 -0.6215377068783038
Ni 4.357519476865266 0.19530692476797945 8.27489116528871 -0.004436952725431069 -0.7270236418279609 -0.6123776376455905
Ni 1.5309005412570873 0.4086993277007447 6.568757105413308 0.06616708274537636 1.9330294044257805 -1.9087561337007124
Ni 5.232665106978695 3.8501311909593 1.4684404039518892 -1.1144449223696873 0.25683212276653833 -0.07304118415739032
P 8.840297082768405 4.638899950180432 9.595655585650235 -1.9253772871971613 1.0375303712998196 -0.40620344624523597
Ni 7.092171077435878 3.5816955820339365 13.510918017150754 0.751385615612093 0.6600903703405212 0.33329595945223245
P 5.483974669649346 6.427503155843581 12.208552663593881 -0.37614879295170056 0.2505658301418523 0.26211445421140017
Ni 7.975184422531717 4.2244309648259195 5.944996635231927 0.23616276734264488 -1.6891106472868007 -1.3212086677249246
P 1.8974912610602777 1.6927066796319927 4.548338164225131 -0.6016846767081185 -0.6133274031533695 0.6286789459087754
P 7.784791319754531 9.384046718106722 2.514956625956207 -0.627062493351275 -0.7966879390933183 -0.18482297941808815
P 5.388610124346538 8.019702809798735 5.354607222809865 0.26797811208102884 0.28234080856060406 0.01284703116599723
Ni 5.889063994793513 8.409000707006676 1.5419573407110152 -0.082186083881452 0.9205112388995824 0.171722180370072
