# total energy = -340861.3322819309 ev
CRYSTAL
PRIMVEC
9.39793751357704 0.00000000000000 0.00000000000000
0.00000000000000 9.39793751357704 0.00000000000000
0.00000000000000 0.00000000000000 13.75483150920286
PRIMCOORD
 96 1
Ni 0.7861290094414357 1.8306994191350867 1.0759059525289065 -0.6704958819445613 -0.9385971498670159 0.7468920986171136
Ni 5.176017427192575 1.0644667830663288 9.536389742798534 0.5296151124353782 0.6600032099433537 0.58212475229832
Ni 2.379106661017492 9.344294021759277 2.9656930237853087 -0.09180869457288059 -0.5261011857448488 0.17604369056356134
Ni 3.510778094779593 4.075077248887778 0.4667701786466395 0.35031614815931283 0.26404638112679035 0.3721985500547009
Ni 2.777541617093279 8.041570728493086 0.1954893162519876 0.32912254480083314 0.4645296927899548 0.012689165431894276
Ni 7.902688008875953 3.6756367135049786 11.99176442538734 0.6623290298630528 -0.07361248327982807 1.357015907231521
Ni 2.818563614056927 0.6644163215431076 11.462809034436287 0.5667737237635465 -1.2765426922761176 -0.9138955333552776
Ni 9.340224714843982 8.422318766290388 8.952552276734465 -1.4818136551359125 3.820147648141744 -1.5342271357406223
Ni 2.061512762875565 4.276475048413774 9.71800864316996 0.04020331169176302 1.168882632493277 1.9009055273080426
Ni 7.640363380869927 6.3954186070384464 8.378494304379533 0.2556938953970371 1.0703219639085437 -1.1208595676467794
Ni 0.4826442347912667 8.325754959004826 5.475151896597734 -0.45672125248912954 -0.28582568178541096 -0.521162867902967
Ni 7.572265926116528 8.811656518915818 1.9723329150434592 -0.1452788985768788 0.2714218476552551 1.343969358460208
Ni 5.816900373570353 8.382612480569561 8.867134423263082 0.7003780142159745 -2.5848032844808064 -0.8540073416400775
Ni 1.0281061630772446 8.53982117821169 11.495902931368198 -0.3145994114839937 0.7041274539560777 -0.7428680650593852
Ni 6.511191798469185 3.9145604772637 2.3282666388011704 -0.5150148460237001 0.3196531718578172 -0.5435723459464187
Ni 5.488489449424953 4.4393882940872755 12.003043829913288 -0.831851888588961 0.6202873794109703 -0.71216189422478
Ni 5.320266369092926 6.671060112409303 10.576722622496558 -0.1865456185361497 -0.6646404516050489 0.2715180069134872
Ni 9.197047137812786 6.350421282533992 2.146345124843895 0.28448845103122616 0.42297963726231025 -0.9761619954946671
Ni 5.147043586038183 7.189741678141417 3.9280220828652417 -0.9650918537234348 -0.7596041468671435 1.1387207641979162
Ni 3.576695228044891 1.7442383946068944 3.9111725208134374 -0.5828089228495381 -0.0075888680908514465 0.2267191054312418
Ni 0.5790388792027523 6.9811074667799105 13.067860216252711 -0.5444064118119399 -1.1988894632680127 0.9848050158816458
Ni 3.0217564196356275 4.7000682830397755 7.770971216563466 0.35969836070516115 -0.49902618390492776 -0.9838395666445829
Ni 0.15651043088969083 4.82824675190282 8.321686591883276 -0.06608943542990553 -0.012803579522571497 -1.4580674605589083
Ni 0.7334545098351242 6.755857702009072 9.752945475635563 1.8653818804801356 -4.083438382049432 2.3051991581250753
P 5.803639883830214 1.491875580296509 11.703133090874868 0.10794596645437539 0.8974818678839447 0.34610108163670067
P 2.9981018110772077 6.353062102957081 9.131254997115555 -0.2574638428132663 0.7802441917149981 0.46208483079388807
P 0.3032197528141152 6.94925785676621 7.247117965853322 -0.4840361382539986 -0.5748230764305843 0.3155761735749662
P 3.624173608035807 5.7003471533313705 4.155513255717598 -0.9588394450558195 -0.5386476549512916 0.9367004470649352
P 7.801021121555737 7.45406806682402 10.300374392229557 0.1857632318441704 -0.8748476754241966 -0.4223995963891241
P 6.091179178011146 6.741253307213766 6.751297822758955 -0.335206546211384 -1.3894819981800264 0.6728073036865574
P 0.370836033170141 4.709560199862979 11.480703647132389 0.22764855922404664 -0.003547351031626149 -0.344608042030942
P 8.866427698366937 4.330503790806445 6.000958038709722 0.7509955792625259 -0.4157561229306775 0.02153633140987904
Ni 7.44418143662797 0.46485581878833604 8.591611331904078 -0.08404293458453269 1.1141132500618813 -0.7103037579701186
Ni 7.684994185813883 2.4196117714214607 5.646262023314007 -0.05580296590223292 -1.1021054269677277 -0.9085538094273902
Ni 8.551155090774843 0.7756503091861167 10.64150824409303 0.6834401008100551 -0.19364751968825358 -0.22401019114051102
Ni 1.9229683690065857 8.39594815380929 7.537647683730436 -1.2501330919343374 0.749931913884702 0.16465576044159386
Ni 6.513146569458518 8.817755780320034 6.480024478714262 -0.2323171683443096 -0.019010736774547905 0.09414531312585722
Ni 3.866048324153425 3.897381047607446 3.028744725922493 0.6448100471426831 0.09349508113636801 -0.3790862783134697
Ni 1.6139547877553369 4.732500565175296 2.5391422582441967 0.7057431351826298 1.1132339327807215 0.7916544904344689
Ni 5.19289612285047 1.6610478523108554 2.08256414276069 -0.43389345596133655 0.12307690855854288 -0.520225443690362
Ni 5.820650150612391 2.9994081243825796 0.005023197566338997 0.40339708714469236 0.8262818507003511 -0.017227676732196138
Ni 1.8244873824814851 3.3208081871912367 5.057101565478987 -0.06874975587088805 0.6986744012613064 -1.5186297955229975
Ni 7.105959065786109 2.6702453652412825 9.967094396691976 -2.109645165442728 -1.092456591024054 1.8456124111626921
Ni 7.038087161531479 3.898612177413228 7.342810584337388 -0.892113918703812 3.0047497913437478 -0.17832991549457675
Ni 3.9376136178254013 6.26834909479435 1.9990860235787207 0.2451001790415908 -0.07380942978198256 -0.7675912788376781
Ni 4.037917804215553 0.06602896872093761 7.4384205009719055 0.7295420373744403 3.358356437328874 -1.217482909999484
Ni 0.41382689802929484 2.821345403541747 10.22292129074596 -0.9414022234159788 0.14428105343998376 -1.2770016341904071
Ni 5.274451424030434 1.23514272507247 5.627142859368337 -0.7058770896573328 0.6007567655772105 -0.03597050455733805
Ni 7.8009271421812505 5.160604809776681 0.5812821668717609 0.5371211910044362 -2.0501318405684437 0.7788815070395166
Ni 1.9138711655562282 5.796516247244086 6.262836264686933 -1.0019519599745779 0.8729609999244451 -1.8243681570719354
Ni 9.311598597375193 5.948744038038397 4.472988739847672 0.6191607220056949 -0.6098448439214078 0.7986072676032181
Ni 3.890840083143139 7.286878759611352 7.274173687974432 1.6090578076982678 -3.0524920917250333 -0.36968786781770524
Ni 0.0964632493548613 1.1201495624499744 4.089325461853778 1.0739726732872537 0.19835598090751644 -0.47192110015801947
Ni 3.6342387990433824 2.6476339277396703 12.366775962165944 0.5388088631195043 1.3604776405278762 -1.0453686363973156
Ni 7.137517339738899 4.438194756031288 4.6090379813240165 -0.7405707843847762 1.0040728629723223 -0.25261165692728754
Ni 4.825089044920051 4.479724241617167 5.76097700698802 -0.49456994790578696 0.39739227571150915 -0.2858735043042109
P 6.224902429968933 1.9488408908029025 7.436398064832942 1.9500997296445062 -2.0581997051782426 0.6460621743822292
P 3.8040407328667936 8.573428202528302 5.395126579634423 0.46270009578038374 0.6159491570469328 -0.5908029967986083
P 8.26538260883427 2.609036598637791 0.3566432680350893 -0.9342491573109653 0.7797567105556183 -0.0972226664996003
P 1.7395206300076387 2.586068039513128 2.802753463886951 0.7284950841671648 -0.13603141183668185 1.4155738101710718
P 0.8882338406467615 1.129284357650127 8.84692885774834 -0.29599105235418705 -0.44039191920148674 -0.1901500480579564
P 5.562197472835236 2.6742864783442304 4.005874596690409 1.3198567816827205 1.2095060624415943 -0.058978021196104874
P 4.169263377998815 4.054617939061923 10.27703273498818 0.3283879806276538 -0.3412720356791735 0.05312130530501174
P 2.1737241360132407 5.800726523221111 0.5900372853989853 0.2710958317744041 1.180336897076806 0.7936987745580072
Ni 8.820011285307727 0.48637051698968276 12.93343399857376 0.8741102830375396 0.7094131278350492 0.1681421763282975
Ni 4.6047450034974435 3.0693945645631713 8.000497982667216 0.6702634542187812 -0.06472340832031433 0.7492873383221677
Ni 1.1834352732296318 2.6984579734623297 7.150848314009904 0.059557033628026466 1.4138761107536748 1.4520356525425315
Ni 0.7947694731317857 4.093920113472455 0.40767970714408935 -0.9232350655886488 0.4221165179310666 -1.1755376759159495
Ni 4.508340961148509 0.9511746471220508 13.664571916827773 -1.7270917545162643 -0.7987455929532953 -1.1218394150615456
Ni 6.746694712996573 0.9175958166177867 0.23732611439243906 1.6400025769062399 0.7979048422195548 0.0077433913908447295
Ni 3.59383706595135 8.566896636001443 9.443118033001257 -2.606846894544407 -0.9001995239254238 -0.3895352415609356
Ni 4.785730482884826 6.721329679822488 12.989595132973543 -2.0221957762798075 -1.3621869099094992 -0.7242054556528753
Ni 5.810913887415521 9.279062937927735 3.6683448538385197 0.5502708410125168 0.9656703519347238 0.058597240817918436
Ni 2.2200935593852082 0.7404305988033065 5.609096000085566 -0.3241163498354934 -0.7309412317148122 0.1435644869889334
Ni 5.351176185361755 5.224698743176928 8.621817242657999 -1.168120300405956 1.1819762324524417 -1.2154226850363457
Ni 0.6460132804310309 8.75423512110416 1.3795956022154576 0.21546101601891923 -0.1840763310600507 0.27257755852625315
Ni 7.008305097756495 4.94292038465206 10.042182037319733 1.450700992891508 0.2532233223693574 1.475248600323885
Ni 6.037845882989679 8.207143590464574 0.11936602291738353 0.8440461166623076 -0.7902604383004197 0.7375453672948912
Ni 2.263408653086343 5.41411417245581 12.273188481670392 0.7085003862127927 -0.6505562055978409 -0.9302184388850174
Ni 7.382371202027761 7.114830718737698 3.5394211285357913 0.17154991645826587 -0.4371744407054535 -0.05998615074564507
Ni 7.511386087323742 1.7079623560548487 2.6675434582247766 0.38404233676716437 0.026148633370909804 0.23721717674908824
Ni 2.9833094575329278 1.9433712912077494 9.302585035568127 -1.5771391046128 -0.04462560912917476 0.29197987431226485
Ni 8.97419384709137 3.533652674529769 3.2652870523317095 0.738073214773903 0.31815833247984565 -0.11002933134596533
Ni 1.0328427235513977 2.285747550401942 12.202722746679916 -0.528434976084348 0.4165243685552698 1.6074256714114832
Ni 8.487437074872545 2.636929676985582 8.365977191491588 1.8546297841699544 -1.1575088434386966 -1.2798938681365377
Ni 7.127057435358479 6.2013042090352055 12.59886178663698 0.1120785005655102 1.6545231391199184 -2.030986377988244
Ni 6.606251935762953 8.771856253820504 11.371311655229327 -0.9293617473116769 0.9019589298186917 0.8873427225674136
Ni 9.21027943374058 1.0027223340282612 6.693926234015774 -0.018765453532961232 -2.2425711988812087 0.549577414489918
P 3.207901366682356 2.3963048865486436 6.581398150386077 0.3294899554425809 0.1100910378218362 -0.5365123537758437
P 4.492693395296396 8.935493140677556 1.5084920734995846 -0.27551452966739 -0.35765793323636463 1.6789403916220182
P 1.1257601311068581 7.590676485578563 3.474842261563191 -0.6128574054954865 0.16695278400588667 -0.7091447046650109
P 8.34614848326854 8.119489027880395 13.975596656693048 -0.31959609336763667 -1.5185734883637654 -1.409505749600121
P 2.151009321199693 0.9970741736215825 13.442459183577318 0.9907146964978615 -1.1161451928902455 0.6003153071644177
P 4.310561367540269 8.410477365105004 11.274835248762038 1.081437614205731 0.00024039814558023115 3.219332775633088
P 7.910920602081028 9.510806677475637 5.047803246167226 -0.18688089038838138 -0.32709522995815926 -0.8894530840421973
P 6.303647747851729 6.133733038778934 1.7533966846506688 -0.3925318622954143 0.31234712511470725 0.9590047669890904
