# total energy = -381172.76198820485 ev
CRYSTAL
PRIMVEC
9.25739360104326 0.00000000000000 0.00000000000000
0.00000000000000 9.25739360104326 0.00000000000000
0.00000000000000 0.00000000000000 13.54913128681233
PRIMCOORD
 96 1
Ni 2.1137222122804142 4.768483547990791 6.64133763090764 0.20807012287148682 -1.4373968195834341 0.36248260831851764
Ni 2.6623431412351377 3.181340410019855 -0.09403290329464425 0.3757926951638625 0.33217907223896986 0.36992440930854353
Ni 1.4869781370211002 2.3544144511617198 5.67185613913577 0.9315770097954408 0.3746395553960257 -0.4433486878369654
Ni 1.2743172865756636 4.717030953233011 12.397767468350018 1.0182365560672142 -0.5181405361368754 0.3161392451672878
Ni 6.4237333321713335 3.8996863969611115 7.1426282825651155 -0.1164743156403607 0.5754542822566799 -0.0016128530130746417
Ni 8.92467381244895 8.266436083471397 4.789780182434885 0.8071132481917004 -0.0392453186538679 -2.9842277601309957
Ni 8.19015515853363 6.827614909014165 11.958260662934613 0.04590319029001772 -0.22916628142015372 2.006493792163518
Ni 7.419653014905554 1.8079504949631247 1.3044713954105895 1.0442049551065178 0.32365792214183614 0.10944723359025021
Ni 1.6433170035683116 0.13045334199490705 8.23562284819769 0.10356146423343456 1.1003920438210468 -0.961929653945369
Ni 3.2006605908869816 2.0905787277725962 8.405366420971827 -0.12870891003333962 0.9296265709372894 0.5668935371708623
Ni 0.8021744650467141 0.540279091398726 2.5640916435844088 0.47343779391286206 0.8958314767647152 -0.40078407500187746
Ni 5.835138976774707 2.7381426816951433 2.9023327439267863 0.03396427276058666 0.5212358872327475 0.07780878074936277
Ni 4.925951816581983 1.010694483244012 11.626834855910097 -0.2771525794914453 0.24604171701925368 0.43331032976435696
Ni 5.587142654182733 4.386477192704749 4.878527113867944 0.6982745947197264 0.4676654102054591 0.7722406046842313
Ni 4.179667015142889 6.744696432719555 2.0313536251777102 -3.1797791817101815 1.4801393527572833 -1.2913884990396984
Ni 6.533701913158681 4.067060076921651 0.7833291884816881 -2.304389003518954 -2.7061374993166294 0.9477775308147033
Ni 7.667945574099227 5.996217628949119 6.313325950717718 -1.879384365406815 0.12095163468542396 -0.8884452116029731
Ni 0.8712836870051991 2.63455244503815 10.891536729436554 0.9642747571387781 0.15977092154546677 0.12502811874764275
Ni 5.088307989101228 3.6931076542443297 12.254687966947028 1.3193844700319923 0.04301121345420334 0.6482144448385416
Ni 4.05213715811101 4.024327947126416 1.6466394822042538 -0.20601349745277422 0.07334174611694466 -0.42201984445220214
Ni 6.944822771955557 6.9014981689569215 4.072137757422666 0.03545139882907443 0.06767400630820603 0.29893290859133037
Ni 4.045555151116986 9.159330230570617 8.420161587747986 0.675527787941514 -0.949786590824932 1.7290491353529513
Ni 1.8854441384891019 4.777990891426603 9.44779617591234 -0.17439304233401579 -0.3007725329032304 -0.3544759359639572
Ni 2.2189972946095757 1.0637300923421273 12.55768709482028 0.16906545947351528 -0.6655159122314668 -0.11319744466130183
P 0.9947069641460115 4.401788922055122 4.229008924113557 -0.5010000198018468 -0.3747542265970191 0.061594375773029404
Ni 1.5631294584456241 6.496061349955165 10.98323769523219 0.905762362725182 1.6837930917286295 -0.3932628269241679
P 8.202421205322773 4.275184804403555 8.70214643168814 -0.7812466648375834 -0.4610340209318705 -0.0722611114582562
Ni 2.7674608478696467 8.997983113975913 3.8247977840513343 -0.6311670024379518 1.3826420924400575 0.9984948546639125
P 3.5611249907931457 4.1878042642958375 8.346508836910926 1.2554221082474184 0.7473577253996226 -0.7850315858013125
P 7.554588786979935 5.725892472504003 0.6149353437240448 3.343706291515867 1.958481783060614 -0.6421440702747457
P 2.7955014936993186 1.4294804641098777 10.391628206673886 -0.29884703374574334 -0.41692083266274005 1.0513240826498025
Ni 4.745043826881274 1.9696401351285433 0.4615819866783421 0.7765052934978562 0.2816872341370052 0.0258760964358135
Ni 0.8539936525990985 8.795949751616467 11.165961059857695 0.39932934483322197 -0.42427701591749506 0.5675717941848095
Ni 5.113367754126293 1.1273839321324297 4.642244171655068 0.11459766744293812 0.435841580826643 1.139471783431328
Ni 1.8082282167772183 2.7571573685667663 2.622244739976893 -0.031970125148693324 0.5585675338036703 0.7087934919731794
Ni 8.906334915324955 3.994139585934418 1.7127048730802705 -0.3600488020660444 -0.03795051110184432 -0.052967553335966845
Ni 3.263786759230505 4.47055284322475 4.066162109722748 -0.4971006847474407 0.044495254198897556 -0.08400282537521662
Ni 2.483832816529437 6.998636002133136 6.143690689451075 -0.04764125602704698 1.9350999138015643 -0.7462801760647277
Ni 6.904571623699559 9.047028786344882 0.06607372253043967 0.4279562645412952 -0.29204080945718736 -0.5009072029777244
Ni 4.104756184487984 3.1554567369463116 6.199052681611916 -0.18789133393076674 0.5916563459378391 0.6568194128987334
Ni 9.076615416939676 7.927087798830166 7.012732235677157 0.23811243486984798 0.37116625213544463 1.5531568827655897
Ni 7.647773713002214 2.815534493889286 10.696619525693572 -0.55194488628083 -0.11954318437367155 -0.19092677832298088
Ni 0.33790875990484537 5.859828446047647 8.019663588340197 -0.5139902614139278 -0.837430411118003 0.068863655740933
Ni 6.439822682601168 6.06857341891436 8.09933179367053 0.2531191926913254 -0.6222128785684574 1.087284045684179
Ni 2.7395683203408248 6.975918357740261 8.346753232107329 0.1141423250730744 -0.031662621210603537 1.879312374518299
Ni 2.525157822466597 7.648264354873779 13.023330300160055 -0.340623089241265 0.00045508525954760334 0.24926742304540297
Ni 5.729762063113711 0.2612297670335433 2.1050471085475038 -0.2157456371388736 0.45444968284613346 0.6418715333396494
Ni 8.156393443333625 8.666022229589577 2.226271754660073 -1.0758585774560567 1.1865314559232918 0.21166066843622258
Ni 4.673613776296343 8.277646787366985 0.24381938650800206 -0.4707790161337763 0.807982538170531 -0.32206255263025824
Ni 0.23593116124835742 8.790089821339087 0.12321776299838288 0.34197626083504973 -0.2662179348568125 0.09335341335218116
Ni 9.052425846932104 6.722117649233727 2.7888583879061946 0.09489761791084945 -1.7696692228671589 -0.6278932167826864
Ni 4.481911665421188 5.767985842126822 6.885519907252724 -0.16098679623043888 -2.826963149947151 2.1574170335103684
Ni 0.38905586066712283 6.06501857969396 5.58651037418598 1.062112431514558 -0.5293893695778173 -1.5811399982420768
Ni 7.071389860031911 8.791080362476022 5.915211730214235 -2.0374578446452007 0.10535635135032824 1.1674649262101442
Ni 7.831718127870349 7.081054579162377 9.737273028657365 1.3668244086815104 0.9308581293515452 -0.9622759815411944
Ni 7.901241155331834 4.666133802103418 3.9792305532144816 0.5979370367402282 -0.4198356923166899 0.21246105285033087
P 0.7359109659433104 7.708168950173815 9.075926666840722 -0.3634704261530837 -0.23182120254449756 1.635481549107435
Ni 0.6435129183942984 6.422159575224802 0.27550651975672596 -1.9046927622646161 0.9597917816667599 0.03717712327092952
P 7.183293236324112 0.5223308562932231 3.969813932237941 -0.35084065320421515 -0.3838222503365583 -0.39162400576916423
Ni 1.9127997371773426 7.916932437828135 1.955396709023052 -0.33807384045684996 -1.0591268665236726 -1.8986979781337623
P 5.449642584024886 8.06984606866819 11.752341046656614 0.5428935747118393 -0.3138833592535755 0.16754259507108563
P 4.319675839021384 6.4639474508521175 4.993085510702881 -0.26426518200581584 -0.5317491280592455 -3.219846482044713
P 0.8041111118303282 2.325864648672876 0.7490583166225114 0.04929293269785705 -0.38013991638896466 0.2930841631200372
Ni 6.172080339027125 1.1024722854082145 9.553668360141803 -0.07268328659733933 -0.06819439758805029 1.5474264080397155
Ni 3.2391991212893996 3.814490601790933 11.03198713099946 -0.808592146730072 -1.4703727602888224 0.0727071978567393
Ni 4.895337615275042 8.266732320073096 3.874347058643192 0.8898714025265384 -2.057670315037334 0.2952855416467302
Ni 5.503733536016558 6.101363107765037 13.24946528728594 -0.4098248450479071 -0.24949162324106708 -0.7534340135006895
Ni 5.536615798805266 3.576149740935621 9.412392199051661 -0.2946180832660603 -0.16435005627571694 0.012109895889656564
Ni 4.821889452841032 7.946602384967157 6.459372446834612 0.5014106249767042 1.7666152665321835 0.48241171527669824
Ni 1.821975446574862 6.806563595505853 3.9030440536935056 0.673904136295162 -1.2158664574419835 -0.11230424342307109
Ni 8.313593247504526 4.008951416019421 12.68495404186815 -0.29657906364717307 0.5919754198401548 0.08245424994117413
Ni 5.482061977123437 7.465773350832734 9.603556455346856 -0.5451535743906095 1.85825221141389 1.0527186490044838
Ni 3.2184347869889853 0.5757987856819444 1.4000725012154835 -0.8257113229088618 0.16428063649036223 1.0354773454255328
Ni 7.771600612512842 9.137806789978345 11.431144659784554 -1.6389941902463836 -0.09301428484520755 -0.37160693921728905
Ni 4.295162260230703 5.600973200524606 9.969721558356987 -1.4935646250242536 -0.22659826358266136 -0.663890717923218
Ni 9.104915269795836 5.068913749083675 10.621299518232568 -1.9298463787121087 -1.0080236200899542 -1.2248717462643872
Ni 5.538948662043654 1.4694261183703714 7.31348274259563 0.8428176435718452 0.4625329740749002 -0.32133698731814336
Ni 8.90652932059482 0.9888377764748287 6.315453299813676 0.02536650378924664 1.2434304831031813 0.6680834158483269
Ni 8.951742431929294 0.825880799097762 9.675503068506 -0.26587057881972276 0.35569078220766487 -1.0402405711421312
Ni 3.3335319641432655 8.470848596038246 10.84412869003136 0.236844881011334 0.13772911125407894 -0.598822267558659
Ni 7.676675296455576 2.162730855074169 8.156821134927329 0.40431111431852956 0.4834900359425415 -0.2932129753884176
Ni 1.755266666829528 5.081022420178167 1.6404610975800467 1.6747039849431675 0.18774735215373473 0.8604764943041889
Ni 8.89477243046485 3.7974199676179663 6.310616311551542 -0.10793131116635607 -0.15946855981369956 0.20037146867564845
Ni 3.5633097357306838 0.9387089890308954 6.486403111000364 -2.807214506565314 -1.8002594369491898 -2.7971368106143375
Ni 6.329270885804223 5.5050203137551925 10.937508947062884 1.0431333193088939 -0.33730225239814815 0.0351444091116169
Ni 8.417590809488857 2.1468821968832157 3.478576810250661 0.7761846769336438 1.0084583936345277 0.3214236334946787
Ni 7.048126029404653 2.3281512249422485 5.554791765798325 -0.05652184634612846 -0.1287744731639524 -0.8110089837016807
Ni 5.459159184854501 5.351069854809188 2.850845896811934 2.5193843927553643 -1.4414619907917432 0.8625886555511855
P 6.413976039102837 8.841801623123356 8.175654376880411 0.18637155485213064 -1.0680000006435864 -1.4943644952177295
Ni 6.44349786794101 7.207371717606047 1.6339707387846745 0.18278229483897554 -0.19885683180333497 0.6968229498748645
P 1.3860632871732113 -0.08944216170767351 5.7294945244328 1.8644812230427374 0.15514087897262316 0.2387960912004339
Ni 0.7151744038243055 2.8114704980097134 8.45347894804544 0.3311678573656361 -0.1552738050060616 -0.7483373157040725
P 3.361341175127859 5.542984885741817 13.181625254017865 -0.6903555969829659 -0.876258182618478 0.4301329604776398
P 3.7354880030750452 2.098123503722145 3.392201623109964 -0.17445731991304794 0.31100963725020636 -0.8708717214955841
P 6.636301608678738 1.887119726767468 12.861512907960151 0.08414912114509379 0.973690136915407 -1.4301848752160273
Ni 8.89157862960277 1.5931419291553623 12.704072411550369 -0.4154578749639684 0.04797369966580125 -0.4591406605638995
