# total energy = -340863.6603711976 ev
CRYSTAL
PRIMVEC
9.32033835464419 0.00000000000000 0.00000000000000
0.00000000000000 9.32033835464419 0.00000000000000
0.00000000000000 0.00000000000000 13.64125729626049
PRIMCOORD
 96 1
Ni 3.5395569431673506 0.5489343769931604 4.898206900782301 1.821657700119308 0.8628979592614882 0.1312897833866384
Ni 5.291221337121727 8.978552245204192 9.245170776756273 -0.30953253848404755 -0.337715942896799 1.471085727195447
Ni 8.950581909744699 9.060245011049728 5.523154229416061 -1.3345269821003856 -0.30133689004713266 -1.092630654708073
Ni 4.228106260863283 7.633441011110888 11.923058709139122 -1.8679609540612219 -1.8034432339938102 -0.2119910551924478
Ni 0.4485794976219517 3.3270066265549767 13.519522692562214 0.30469809320988167 -0.709124907170669 1.3448054812082582
Ni 4.1385284887535905 7.579094118053805 5.291102968824381 -0.09945258427138355 -0.9485480904321405 -0.20810174744037063
Ni 7.50006696898315 5.53922622090768 9.514027121551882 -0.42414074744994695 0.13693541170818999 -1.9686165575017707
Ni 2.5338924326444325 7.629368023241578 0.20249087540563268 -1.261295279198744 0.6236290421896936 0.891734423877206
Ni 3.341555674756332 4.175986928677517 0.8808129858040972 -1.7255547490464476 -1.2676754716934746 0.21655347775214964
Ni 1.5143965399749335 2.1260530660877883 10.198217316990434 1.631410464361855 -0.3839713743199129 -0.9609477496480741
Ni 0.03189419791482323 6.4445945701911445 12.020798301562667 1.8689480005648393 -1.234494871176448 0.6165705926810156
Ni 1.931416439829678 4.818027757888655 5.668733254644168 -1.5873363568607757 -1.4042882099549234 -1.1772664856815982
Ni 4.631462544662174 2.7506089405098533 5.551132021146254 -0.4387487271711089 0.7948030633657795 0.060730228000521226
Ni 1.7494554737598085 8.68950991155881 4.343730650592135 -0.692389339583543 2.057244797464141 3.0215311245671446
Ni 4.046928203216805 3.4030605876844207 8.083399918812148 0.15172696819506773 0.16762152793813712 0.10830360690411026
Ni 3.885695669690058 3.1628288661021386 2.982729171605498 -1.101208111964439 -0.3609687427771525 0.17732358571724943
Ni 7.7175570649335885 3.192691230251494 8.0840271775847 -0.3813930720697754 0.1367685471130225 -0.6576902455394609
Ni 0.3210791327373232 4.3556737321842025 2.0030684051452208 -0.018773681063077346 1.053700553301779 0.3635578436605674
Ni 7.698757942433822 7.8740735072432395 4.045888053454299 0.3536069030954426 -0.4461455338558123 -1.7914973744858438
Ni 5.6717148308899175 6.598165785574705 3.3734424164004566 -0.5967026501124949 -0.503447452901075 -1.4881126007707468
Ni 8.623605798918332 8.589884814682263 8.405401765048468 0.2502482989014335 -0.7442937417623181 1.1779478280193392
Ni 6.369146431055991 7.355210269979005 8.055953386369257 0.006142365452312002 -1.3053591022871776 -0.23250151644097378
Ni 1.4244645950070407 2.071762095060949 2.6431985649897483 -0.6585561930841819 0.2542844166440202 -0.4631155860512476
Ni 6.633983845944859 3.559092372398639 12.79543119651199 -0.299922011977477 1.268695685427873 0.10964443720272085
P 1.963189473345643 7.135352808081645 11.042843157024778 -0.7503294064334368 -0.34901234174622475 1.4719329056870907
P 7.435038968149801 5.296095874091176 2.950412762362346 0.345385800737231 1.1496407535445299 -0.7093663337575138
P 5.67745615932812 1.8654657254973317 8.968090165379706 0.40818422412069055 1.4137987205485198 0.3884085841556601
P 1.5615108504540194 1.4439534225464608 0.43196972260616956 3.4463614418849486 0.5342225293004025 0.20771633907649387
P 7.000599355874599 7.7325162080233865 10.148945348177834 0.6997228971304787 0.5592463050382498 0.7140241442444993
P 8.667346146906135 4.239085619467509 11.880075172627262 -1.2350913671098664 1.2105872113209148 -0.4513677014867001
P 1.0250787753553487 7.443045138812814 6.389210323473069 1.1177932700166298 0.18382564850182537 -0.471056438164879
P 2.8353121756500967 1.3293039402114986 6.802281195958875 2.278736593058172 1.5061206073123932 0.668869659195048
Ni 1.692610730018573 2.0656759141029184 5.127748194249942 -0.9074094114103017 0.7341584531005292 -0.5102742460149212
Ni 1.50898142337981 4.0739292234854325 11.637533871195975 1.0658646994681384 0.3242726729076996 -0.18292216285094948
Ni 3.602077772978173 0.7136965226620297 2.4143255397835026 1.4130322746961408 0.2058641163591035 0.06858417682730125
Ni 9.03927424970889 0.7836186331754124 0.38672413997101196 -2.961015583680591 -1.1665632403314812 -0.5292361318294047
Ni 2.553837956764164 5.773120112395842 7.531324587787048 0.7794366082120383 1.6519345524571356 -0.21969690847713774
Ni 7.075851767903903 7.330790983439894 13.57048630278964 -0.9518164767707672 0.6184860645361735 0.10154237692087674
Ni 2.202470520413807 4.756429641576829 9.47287130339511 0.9277501798501829 -0.5658098171883804 0.9054119213642986
Ni 3.0713217839490894 5.661369255295102 3.672717549546331 1.3746215361284262 -1.0398271377537962 0.43922695235910814
Ni 3.2666294745701068 2.5699062201204335 13.041546847709593 -1.5425197147667178 -0.3980833882412628 -0.6777592483751941
Ni 3.564143995797188 1.186833247831023 9.081380742379784 -0.9703585014390126 1.0440961974427954 0.3113929887315541
Ni 9.26413673331293 3.922771975740662 9.653726877333858 0.7838493925677533 0.41306366370017894 0.6075845871323213
Ni 4.060144443030721 6.064408647589287 1.504821756363625 0.49494275786417347 2.1939020158102798 -0.011335222507161123
Ni 9.111003573832933 7.632042960354832 1.1129313528320677 0.1890773838190679 -0.2552933175245087 -0.12098583035746906
Ni 5.128600073177299 4.810403721098963 10.925296913523267 -0.6024290110733108 -0.39122651322042945 0.28331757065157653
Ni 8.431765274172333 6.778998990701356 6.914739466742178 0.29876450133426613 -1.2322078749144842 0.4952770012751405
Ni 3.0403036978413946 5.83585530998926 12.638460853723538 -0.53244615412627 -2.474511186391758 -0.5403841780264242
Ni 0.5470460764386474 6.755586300706605 9.450730839588369 -0.29123039774075005 -0.9056685174597952 -0.6243759476580473
Ni 5.708409003067199 9.029664980845599 11.825633212118769 3.055269397359854 1.6172855949246985 0.3037434426060962
Ni 7.070856066535597 0.7179661696710244 7.78353760434873 1.56868943118355 0.04461506760621349 -0.3637625034722058
Ni 5.934501771336568 4.913514624527277 7.28687354902299 -0.12820008871772115 -0.6534245282845714 -0.5298997335553326
Ni 6.501551157992864 6.382558397975755 5.516442653753155 -0.42159406976869324 -0.1817011459596548 0.2832579210582347
Ni 7.587044366686577 2.7043893825146426 1.1700911240103342 0.690291833624566 -0.028987902591917813 0.12724980898930985
Ni 7.0967852478912485 6.0009371432643475 11.665934806288334 -0.8295497228183455 -0.1579773199801537 0.7796158141023799
Ni 1.5900963282461769 0.26017817773585095 12.103806167152733 -0.75467457077601 0.2567922706675384 0.6608195351970618
P 8.941587783214073 1.5183949651372537 4.09554215614022 1.5249976467225543 -2.1913586805631358 1.0545263916371836
P 6.204726341805436 8.441346582020504 6.230903444161829 -0.05230086628624541 0.7304439803634194 -1.1071594444518675
P 3.4397361191849556 7.863690650294931 2.898903912340058 0.828277026753509 -0.13704648336475753 -0.02793040786168093
P 9.077310550611985 1.4427324582195051 8.953957736303657 0.2719720637317703 0.17634939472943822 -0.37281381504119665
P 5.286328159475532 5.772933705628368 13.140349890741579 0.5282796814534063 0.037580015136303026 0.47143413321927197
P 1.5372127283137669 3.9495213468731993 3.6930293629641495 1.0936752939225036 0.45747381438443796 1.0415490055409093
P 4.034765161639117 5.405367521184509 5.695197423422471 1.1379178086806467 -0.5661342904073347 0.5255771949205787
P 4.93077589119538 5.746883359873859 8.983723168933924 -0.7894680243061113 0.17508286931218878 -0.3609864833889654
Ni 5.056479294841559 0.9470023007988104 7.0510428912207725 -2.29864258795348 -0.06362091928475494 -1.3941436653217538
Ni 5.008451591201849 1.9908056359469353 11.64270386289187 1.1503213245513222 -0.8353429324613548 -0.1780031282827773
Ni 7.360028884918211 0.8158455671701768 10.325313179189642 0.05295084116541848 -1.541790807020493 -0.9658536715901237
Ni 3.375006369179564 8.525210986707114 7.466405634912672 -0.4281701803243142 0.015527149101321648 -0.7916719739359657
Ni 6.923240547372835 1.5292158779891267 5.183268517908274 -1.7915284848340953 -0.6075953857655987 -1.1941884582479176
Ni 5.139010891140728 8.191608115297042 1.1791449007065524 -1.0001354755911291 0.30245223459849846 0.1919613902350823
Ni 8.155836656618757 5.237620071134542 0.36060389167869983 -0.2486848110690556 -0.2700133973435027 0.0883050522949963
Ni 5.702872722073217 4.25384903545146 1.4204773542507692 0.4414892660307236 0.7029144074845829 -0.031567490393635954
Ni 5.80533120181537 4.063714132627849 3.9557324203654374 0.7795875319676058 0.4500497540062249 0.4724160375165671
Ni 3.665428112904255 0.27700791273725256 13.586474411235896 -0.2432412714559811 0.6909860314781132 -0.9197262811044417
Ni 8.175763540061741 3.343876439011385 3.4970729767923223 -0.7080095626193031 -0.016527565341377986 0.900549965286307
Ni 3.143517124991819 7.185477587855439 9.306925474752777 1.5727008663357882 -0.32389652051520346 0.5821355509315975
Ni 5.32557610436721 1.8441594319750392 0.833053707909551 0.19998760297366847 0.04251859008850097 0.5154647890769252
Ni 1.1213858317708567 0.26662785189045574 7.061423884101406 -0.07644609607388125 -0.21072658665772742 0.2807253844443682
Ni 7.0854237554137 3.138856955804966 10.343797274252378 -1.368034369829212 1.008391030731702 0.6101886004140717
Ni 1.374843113505428 7.094958461570002 3.1683595548930956 -2.1988938125979165 -3.31479603623942 -2.6140740084204657
Ni 8.73806887448582 1.9069039499068303 6.389892572242024 1.6907193865348171 1.4100084002681523 0.4235432230752641
Ni 8.976641575837583 5.987683622096936 4.664150835406437 0.336318291218324 -0.8849706227908114 -0.542904887565749
Ni 1.576125141023991 9.107629611341652 2.0440061273840513 -0.9052342581358538 -0.2561389533542557 -1.6881811934939959
Ni 1.4249212915873524 2.9006757086648993 7.727253944977592 0.22299100584737727 -0.7908114257078832 -0.05351828363311428
Ni 5.684278647017672 8.910718822520357 4.080591401354957 -0.4381113506974261 0.502180156152877 -0.5558606763954685
Ni 1.4830708827009067 9.078997531857626 9.232579931647235 0.6401427235740008 0.0024047527867506967 2.106700480992107
Ni 8.860491519024453 8.587414925013231 11.93664589842031 -1.6786866237399993 0.7328001393004219 -0.28497670352155435
Ni 9.026039369218227 2.0809146673439285 11.472843492132585 -0.3889698559757688 -0.6358281553590469 1.321061600624099
P 7.07742690508906 8.621872215980822 1.7893101726796146 1.8513709109130245 -0.4389875826547924 0.6436612782502206
P 5.457225883895812 1.5883254639551727 3.345899884472317 -0.6489520943355147 1.67187397169354 -0.2815620214130506
P 1.5073690048411592 5.708875019985884 0.7610811229539528 0.1342177556667108 0.17260792540913497 -0.315425764040031
P 3.282940066724093 9.397976792359353 10.956466921146456 1.7983689047946962 -0.0938681482050706 -0.6504610747808733
P 7.040937780356 1.5019352475692882 12.395865494329685 0.5773831238482767 -1.0011706017238629 1.206226106138742
P 0.38241814364235954 4.7712023778991535 7.580501489148236 -0.07846749737928421 1.259991729895972 0.39358909991533503
P 3.591228899111179 3.128651185285757 10.747591613954834 -2.604498191806573 1.8567853970603763 -0.9055687586571372
P 7.187882235155855 3.609273074202674 5.856001221384026 -0.5372484606109199 0.31481769814238686 0.09280294016534986
