# total energy = -340894.3546764131 ev
CRYSTAL
PRIMVEC
9.04298719334454 0.00000000000000 0.00000000000000
0.00000000000000 9.04298719334454 0.00000000000000
0.00000000000000 0.00000000000000 13.23532583661621
PRIMCOORD
 96 1
Ni 6.3649335807276275 2.1282941367373436 11.416064018854247 0.5627522613089792 -0.512685426559575 0.5405543850557013
Ni 4.54076414226315 0.6077113388148497 6.159402761921011 -0.4760430927461931 -0.854977933083463 -0.9134435334195236
Ni 2.686698588533288 1.7072255296284438 4.743091030749584 1.3562533180338838 -1.4336304105624664 0.14799835439057094
Ni 3.4764859505819103 4.3069215395264475 5.099981558597013 -0.4827079063608783 0.47236384412239296 -0.5404276296698499
Ni 5.313424086794338 4.613795305869693 2.814889260392783 -1.1108924291317384 -0.15773126540761867 -0.0654677426855066
Ni 7.216954779816893 6.3076553006033285 2.751319774161366 0.9840581104132924 -1.6913269382118292 -1.1574808184142389
Ni 5.091093206602354 4.413493142189043 11.468965493234915 0.1940031032554594 0.8281057912829674 0.021905798934155823
Ni 5.666814978644277 7.741746448660198 12.405973589140755 -0.8512215513648244 0.22963473641613996 0.5577095566787492
Ni 2.0367158066428086 6.489545942602091 0.45638961031974656 -1.1152162533180727 0.21001901906774156 -0.11167149493507865
Ni 3.0818228657279767 1.9736952297267611 0.21482791381700406 -1.1419297580535173 -1.2826603751380814 0.27066311511235963
Ni 0.6873556388683303 9.251427925665444 4.718777151404745 -0.45364955554234127 -0.38485429114549846 -0.5201403401757235
Ni 8.518475737374514 2.077906612763141 1.5196667433319364 0.6856936727309223 0.7334251744789304 -1.2469662641705814
Ni 6.59665108150203 0.9212452651378149 4.831065730495281 0.40122090542898 -0.37604337772208785 -0.23459953662058308
Ni 1.0407121673673894 7.50866345683768 2.4849188007648086 -1.1556224250492615 -0.3984759956939911 0.29471732784808596
Ni 7.6831478924231495 3.7942836453100863 3.758872212228504 -0.18221562370222813 0.06074848283296635 -0.04751347219993107
Ni 7.495406437787755 4.055092435500319 12.683121248375599 0.692179280455266 -0.5761564505300271 0.18697293588155542
Ni 7.9278059076998995 8.948587331557034 6.6915427620603385 0.4712922083247689 0.32558573529216833 0.5382861578468149
Ni 6.936549836638129 0.5471866263311209 0.41664296923507105 -1.3770990511346413 -0.2992370700953104 -1.354324990662919
Ni 1.9035668649708493 6.436599253286055 9.148204036817503 0.29312272966745645 0.32282539893821177 -0.18034103238733457
Ni 9.118586445553987 4.4413817143240815 1.5419287689097703 -0.7483730540380144 1.5150983853309714 -0.36025783275305695
Ni 6.506103651933887 1.9968904915705925 7.164122936436692 -0.39187237433454447 0.077341354194641 -0.7204243913438882
Ni 3.4538875258849373 4.342379091842106 0.6059796067902518 -0.28692868504160257 -0.049128896316167 0.31307037643397695
Ni 6.166340541603892 5.7192281317229705 4.730516757223716 -0.3495098502079335 0.3122517371874235 1.6691542587695318
Ni 5.5506397237095 3.115146273094261 9.118041153433449 -1.1782630452669127 -0.4821396925622342 0.7593208112987697
P 0.4226402782622949 5.522027712608571 12.515627946096746 -2.1332319516237326 0.18448847889680484 0.6608133645494749
P 3.861527297189514 6.083063673642939 12.685689456704507 1.0401312992577763 0.11811262257473205 -0.8694023360389092
P 2.3704924595300687 8.661255460279879 1.137787729303977 0.44675694218756606 -0.12008311603754157 0.45379070910589586
P 6.325298168383958 7.864812459745072 5.593513429724233 -0.17526593185727235 -0.47154237666236215 0.9479564795947288
P 4.835249016315537 0.8516061259825858 12.597409103995721 0.3974143871986962 0.6264521134607857 -0.38192940418921967
P 4.035758529136922 6.060971656222088 8.193076507712254 -1.464946961287561 0.5437510376161281 -0.1663989683849457
P 4.620215826691962 1.057197532802596 3.788572094674389 0.20670666686505693 0.27619792888765976 0.15555662635380307
P 0.22287888520864665 5.619881875732196 3.5194980142988697 -0.19273529228662933 0.036353341818053525 -0.21011697809818652
Ni 1.5961595623902607 1.1646915201466994 2.544967852128465 -0.17938381068038786 -0.590414503110938 -0.8846353509385797
Ni 1.7927450583836542 6.638890874122902 4.815620308573541 0.2632048590621015 -0.3268995690075854 -0.39119668842375854
Ni 5.863174399960831 5.555857527250978 9.216075271999841 0.8573968269376007 1.4322463857307461 1.0180897460767047
Ni 8.686512523176495 2.3941941286500232 10.284496960358211 -0.22842966036444529 -0.9658274463378785 0.25816832507945864
Ni 2.178256640319086 5.335669834995439 7.000706212730624 0.6150721537586181 -0.7917843311441138 -0.09270472402458872
Ni 0.5339449803592212 8.907893889725749 9.032262995247933 0.4508167140792365 0.5992493277937486 0.3858518791720774
Ni 1.4671613517850923 1.1215202998572447 11.543798019866523 -0.01900045236190276 -0.39621419624300797 -0.48537388322881564
Ni 4.181386792970476 6.883594104335019 1.612181926887298 -0.2978838985015257 -0.3692818906285382 0.3767231773979319
Ni 5.726480607356012 8.0145281537359 7.907603874577434 -0.048967431037638245 -0.6325970500162589 -0.42465265408935904
Ni 5.464188767285706 3.135547251932344 4.999710205028609 0.0642230716451281 -0.5978213370979704 -0.18057011767900516
Ni 0.8509224761598203 7.529914476460683 6.9967227769246945 -0.016899603968816058 -0.2844146603704973 -0.08168857541974318
Ni 5.295717918104193 4.576728101854931 7.228235001892525 0.02141600378193086 -0.29603347555634824 -2.0894121262253047
Ni 8.235520671840991 7.081870638911179 9.24247898565739 -0.29291447031139234 -0.8489970329096798 0.19873393307222548
Ni 4.4661233269575025 0.16845909329831765 10.488479619777824 0.006602592918182177 -0.001227444649197886 -0.811373566129951
Ni 8.297863024726517 7.33140282422061 4.634666520035605 0.014647831820161869 -0.0825846048714513 0.6385064735221584
Ni 7.571810635572758 6.456647555628268 7.0029036585895135 -0.7473638960472095 -0.9115337179913205 -0.9211810112730973
Ni 2.19655964615609 5.1084557417837 2.675402089080924 0.7620870611899971 0.3466587539123836 0.05000358561163647
Ni 2.14033035253233 5.313342699910676 11.285232794769255 1.4400985347853135 -1.43174939148967 0.8074940285698867
Ni 1.0458847559734992 3.1452142051140424 3.712058476745795 -0.6913950939910738 0.635062480837616 0.5853136915492629
Ni 3.7021084780686926 2.771386162477726 2.773343064880457 -0.06997900029229884 0.3014569605647647 -0.5609440044556468
Ni 1.0346624090151386 3.2337179196035475 8.21326045486057 -0.3896252301715806 0.12203252645442855 -0.4612427945085669
Ni 3.520163578147488 2.9148350664265363 7.233819950709192 -0.1452876403276272 -0.46413528556501354 -0.4540833006456502
Ni 4.113645776801999 6.727114256013125 5.890063722024235 0.4515031986232998 0.9218955208416186 1.1163333976416514
Ni 0.8851302876619045 7.312502981236746 11.213404348443504 -1.6438463761323627 0.48936912043113784 0.8140655111398174
P 0.2190564145726281 5.48354075962325 7.9742968085440795 0.7732667319559006 0.4674522657533885 0.09996063425605364
P 8.384449625956414 1.5224863467014906 8.264507966905475 0.1922292991844883 0.4181932716172604 -0.9911039615164802
P 1.8453209852296721 3.1564817670077714 10.599854857173925 -0.30025574116781195 -0.31208770080573345 -0.5076517207904095
P 3.8186725814476357 6.123874674306179 3.864238384714185 0.40854006479821253 0.018762882429799944 -1.39203664628108
P 7.0413761427955155 4.054938704720067 10.394747250162355 -0.2738823933806057 0.0669731235864395 0.9091999276518212
P 6.289551240481945 7.647627039197976 10.083028251345064 -0.820023271385149 -0.10174395140872156 0.46892242254101174
P 2.487174121740969 8.482846368304457 5.80764774643269 0.18531328879094536 0.3711292282499221 0.14662795640560555
P 6.921457091212261 3.845991445397037 1.6666984787593149 0.08888406472691789 -0.5220061897398688 -0.8290283030972367
Ni 5.265758501929295 2.8341173638074175 0.4852096101233689 1.0744701817489626 -0.17886701894496937 -0.28996207255128775
Ni 1.3924934075182243 1.0628041847882395 6.851835133732472 0.21244048402504057 0.20436979120176413 1.150788751106044
Ni 6.46192866007926 0.7946497761981068 9.353444575739058 1.1991038932716638 -0.03784740986507675 -0.18212306398842182
Ni 2.465082104320119 1.4828328483836732 9.182192103733698 1.011964349905257 -0.3373495606963158 0.08465537135755097
Ni 6.308487255414101 1.6803497720456495 2.4194177324944675 -0.13194052959675986 1.221048258753239 1.5025174633421672
Ni 4.10597732376357 6.6870719092511415 10.616636832585147 0.3554226161479427 0.20907028200122701 -0.9306141316615392
Ni 8.327822440901416 7.10798678557979 0.6185674447967289 -0.5448614970714875 -1.8437727868507923 -0.6343657118809075
Ni 7.635952542885934 3.953530647676509 8.156732742663381 0.746418758525121 -0.011885438583676305 0.0643498270309795
Ni 2.9932377643548094 8.33603347316426 12.196538008515748 0.7282811683841458 -0.051673260004575526 2.0187980634521683
Ni 0.07353485798654386 4.713141561860466 10.085808065571493 0.1390041213117606 1.126161439475667 0.5154336787286736
Ni 8.539916659726064 2.3154568402000266 5.838657957705542 0.37597704326052667 0.31997096020855215 -0.4327680841076418
Ni 3.8927436885676454 2.480599870138448 11.23054442614284 -0.6452044543676243 -0.49489339268347676 -0.40145024783096667
Ni 0.8010938087867674 3.263568819933562 12.574657852817205 0.5277909147424458 0.2962103674538447 0.3681817155858239
Ni 3.2546614776660476 8.2857002071125 7.960558702581838 -0.12131930243748784 0.058200776710448154 0.276004324819615
Ni 5.607547241363781 8.016517610892096 3.445407012607298 -0.8524266274165191 0.21379108451566406 1.25170223619367
Ni 2.9472722610596063 8.404461756350333 3.4357717098803575 1.4324646723891394 0.005118295063171831 0.9975905976820882
Ni 3.2367201913119885 4.114161227065195 9.271226641564425 0.667397959745528 0.8771673246963088 0.14480247316109257
Ni 7.354109764762466 6.2317032521720055 11.65304272950808 0.672974168281725 -0.573208937865929 -1.0443023999163306
Ni 0.3976780167442782 9.023644124268067 0.3272340517394972 1.0155135007090963 0.33691710114458745 -0.03143867812525553
Ni 4.4978551685988295 0.33178719573106413 1.587471060409928 -0.4091800123750566 -0.33143370943251305 -0.6957235461630986
Ni 5.759225263549585 5.335082040835655 0.42895590043451 0.2852695521716248 1.3529522786851087 0.25566432771068226
Ni 7.850370809388504 8.667052014994066 11.158081162124521 0.6404337724518583 1.0071108784676979 0.8412464424299836
Ni 0.19553470089543892 4.812017582523412 5.580807128587091 -0.32478766487090516 -0.09754611127729007 0.5830948295210732
Ni 7.921530074670808 8.704263906802009 2.4403160756216 0.5840433094772716 0.3269715598961014 0.9634856855785795
P 8.329929456889568 1.5081079972544371 3.549899632541668 0.5055079349745294 0.23746040310814587 1.3081178959792377
P 1.7778241297121835 3.103932969122974 1.5581157157715477 0.21902765032425503 0.2278339357619754 -0.1438110557821007
P 4.6413131155347145 1.2695720842265272 8.177048717422974 -0.4238383857181798 -0.5913925507534912 1.3602963777550057
P 8.440579446722365 1.4982601843312664 12.409295982591603 -0.1788580200839049 0.5927254106323018 -0.7300413456083621
P 6.26182544211423 7.675289536656175 1.4297459927679956 0.045832484953082356 -0.20041929119444837 -1.6863392551892509
P 1.7453959780661874 3.113274374770022 5.940596838090323 -0.916743544327034 1.2747632317781916 0.7379976243409613
P 7.148318507928129 4.129064069762519 6.039133746738006 -0.8565792161323118 -0.04394143857795658 -0.834187478700673
P 2.389066754979281 8.394568728491794 10.165378213130971 0.07237603976956568 0.8611771199156394 -1.140280138265236
