# total energy = -340872.3622442688 ev
CRYSTAL
PRIMVEC
9.21123908688729 0.00000000000000 0.00000000000000
0.00000000000000 9.21123908688729 0.00000000000000
0.00000000000000 0.00000000000000 13.48157948997381
PRIMCOORD
 96 1
Ni 6.388823235131619 4.490110546860911 1.1722296399334449 -1.2158908829220156 0.8694730413758445 -0.6242718179800152
Ni 2.2996594980269176 3.645412299868776 7.354026594785825 0.7794924011506381 0.6270509233870492 0.4524159402455563
Ni 1.2906880152970452 3.489106785837506 1.0611863119382912 -0.14818218826660287 0.2594183954364758 -0.01474784773313589
Ni 7.575083434259621 1.0908133409517966 8.248704103289084 0.598682142436369 2.1744063689795134 0.18863104031026867
Ni 0.3069304569915818 8.827397428020083 11.904625505695327 1.0000082059846453 -1.1317996115980506 -0.924125695723718
Ni 7.538745096534748 1.631218308668606 4.524566107340926 0.6510244034835111 0.5028481287541792 -1.1385857812819489
Ni 7.3790959027584515 8.989588923751276 10.177810195655354 1.8070448353021396 0.17595473039418086 -2.6028172045597238
Ni 2.5698896156022233 4.896243284155549 12.211520038854937 -0.43594416784277823 -0.3180135793718652 0.6404404573200777
Ni 3.8767341440474126 8.288742595707006 1.8677647675893332 -0.4460234064556512 -0.20493800500040835 0.09033056736545733
Ni 5.660398457620109 6.9897460428617135 11.290755380473197 0.8385737806938267 0.4549855007449454 -1.4176852000871198
Ni 4.02274149291356 3.4919991148731486 9.031067132819741 -1.7183800856748792 -1.0197079984064181 -0.4037511280500014
Ni 8.265235513863185 2.7480073435073837 10.221827943307026 0.2903431100397903 -0.1950775672665608 -1.9236567049616289
Ni 4.177794278445316 5.020751601272685 10.670522131372653 -0.8727673958564002 1.235330479703866 -1.7210586609483067
Ni 1.862936236122824 3.9080615677742285 9.914366918950945 -0.40850535490553513 0.08175748098446566 -0.40572547816755283
Ni 8.870515237624678 7.236340121247661 8.334959066100106 -1.200929633626493 0.14525395887621437 1.998956603246209
Ni 8.901336043208309 6.258336823924892 4.156330249404379 -1.0452539651963224 -1.1733242132043988 -0.17226108359267753
Ni 0.6769809290046307 7.745012370723105 2.3700748143102603 -0.16068417738835553 -0.8539849730425744 0.6070713949413288
Ni 2.906035359225485 1.4110696973569583 1.2617978854009009 0.30863676614265556 -0.16504708234274154 1.7851202673149065
Ni 6.122351303054855 2.0190667366137207 10.482831162809072 -0.9365436097720967 -0.7577966613447594 -0.22564849807488238
Ni 1.8326312599213461 8.39351122771783 0.5597108034677752 0.5532332660749505 1.2473519296447744 -0.7062642977934224
Ni 4.082955362040933 8.19138901106463 8.63799869575202 0.5126921114277945 -0.2876951308939819 0.5220938643576686
Ni 6.5184622123533815 4.890744174492242 3.9901429182092953 1.564106696908874 0.033238707448471794 -1.0960821035917834
Ni 2.2816791595633052 1.5580902825094776 8.337615587418192 1.1412602427903182 -1.548666451094404 0.8648427416926847
Ni 0.2991294587104172 0.2661790146776128 6.960000188865534 0.2686340004974728 0.11833322322597041 -0.17416035749791942
P 0.4210724457752393 0.8711510830576074 0.6588007066554342 0.23639082419305096 0.7180882870115439 0.2336032341455848
P 3.0015835410303273 5.875794069624777 8.927084219492805 2.0013801250860372 -0.03604223833553793 -0.7851539703117897
P 5.52574856640029 6.886939404750865 6.251111528079165 -0.31965574296097854 0.9507355850017627 0.538428339851634
P 7.09315141150542 3.2616168170691475 2.6337750845818495 0.16647301615599072 -0.8387193051327556 2.8225241403391905
P 3.646213677658906 3.6877932103560096 5.464973732819826 1.079053944464903 -1.2499556858162086 0.5810536307213284
P 5.868830372965714 3.12239815132169 8.34830615136331 3.101780653547516 0.9461556789405642 -0.6095864480536985
P 0.5805153077986742 2.7390540192314456 8.36762488284883 -2.5630332397935667 1.3166760699618936 -0.6094067279427247
P 4.317197168972114 6.040555501027765 1.5522825963407747 -0.08826031509998992 -0.5995378055684448 0.2885438520475224
Ni 0.1203826031838098 3.477813806863946 3.247281365864783 -1.0479178851817308 -0.9184420150753795 0.4735504082313263
Ni 1.9523957889704693 5.9849472513838995 0.9799883193201611 0.5791494717200799 -0.49022504067352984 0.6047283486304488
Ni 1.8163918456224994 8.026028849128785 8.2320004425463 0.9483807116163409 0.8340270418634087 -0.09427361117360539
Ni 2.095768723492051 6.95461437744152 4.102781632793536 0.8627084689585013 -0.2964098850591605 0.9795622794254678
Ni 7.996442349566734 4.224743963460188 7.7500472339424755 -0.024412881626725697 0.11516613835189843 0.6503600304266348
Ni 8.15988657379744 6.932203433034775 11.249569167679985 -0.47844116066472436 0.3405169026807039 1.0970771205152008
Ni 0.3774194631866606 5.264223069648813 12.687366196023634 0.29339680926444955 -0.44333428965926236 -1.7218096801817184
Ni 7.992324925748478 2.466954020145836 0.95383392739722 0.6367174999425357 -0.07867627095598063 0.18323480899536185
Ni 6.2320018917181965 8.975689164150051 1.8555911941705265 -0.2845864100616711 1.2135822893934969 -1.4130641563753406
Ni 6.207997402970157 6.8289362329755745 0.5727824726858656 0.7930030340425633 0.9870022806432807 0.19415942632766564
Ni 8.365849877099885 0.48125683893791893 2.556282773400149 0.9001103066457272 0.32665762820010835 -0.4792909102595294
Ni 6.569437208796841 3.0537928434953656 12.47756549056753 -0.6436587071470592 0.4416689861416974 0.941658562401159
Ni 5.615189696770002 4.75363488246823 6.070458867210283 -0.6822882465937993 -0.1692894025588633 1.0184748973302653
Ni 6.872901476565135 8.904007302508743 12.155558077634737 -0.5775643866211473 -0.6978485629259015 2.863805001365848
Ni 8.54725601731627 5.628389402209733 1.1581926328716114 0.48970284962147276 0.5491202723478413 2.858994210240767
Ni 5.245708479325114 5.262215019554004 12.57440416695165 0.7435496645074421 -2.635867450146473 2.103052342716559
Ni 2.4602574494168166 8.686410204390958 10.746369315274844 0.6873977999062226 -0.5160031780788984 -0.15002746900545777
Ni 1.3318622534796003 1.5372728824440247 10.510657394604529 -1.4129276307974763 0.010918446684716681 -0.3705401885156715
Ni 3.9383481214977727 7.103900927379926 13.103744594421281 -1.0010559305228695 0.6114492122940501 -0.27405440018209576
Ni 5.221888215356414 5.437587798246994 8.510072087854226 0.36470352722923643 1.3351820991858814 -1.078018304111537
Ni 4.058342931521071 8.417543350182772 5.274923765956794 -0.06548522618700335 -1.6279842122891253 -0.42356867699656087
Ni 3.7097804377702737 3.747362292755693 0.6178742508010918 0.016599813340210122 0.824390032994277 0.2109541292875012
Ni 9.210879728694833 2.945054167489759 5.857570554452436 -1.4282763453394047 0.4917993271391853 0.888737031811779
Ni 8.463387686521603 8.22088339823701 0.49082271060516347 -0.8030051395605977 -0.2629752595497987 -0.17649749027152828
P 0.559501708343224 1.3940657502238496 4.108268767846186 -0.1826928204489628 0.7762476689610954 -0.29786332967623536
P 3.036282278219071 0.35676325980313056 6.836791577566644 1.3445404004723296 -1.7120145484681677 -0.17536491932898185
P 7.681602201674177 7.373781017874485 2.4201056587596 0.9274681298333898 0.04351206435002184 0.17724928083588828
P 7.78646294607467 5.392139545183745 5.854388992513228 -0.23124167589194367 -2.1025039264122563 0.12416602785766359
P 0.5732246121562823 3.24818683065524 11.556288687299222 0.4690949435631341 1.9518799614733802 1.9244753442081823
P 1.8356341238245928 7.108874996422114 12.352052227279092 -0.2790467111903646 -0.33518083517977115 -0.23100976238679571
P 1.054244722252749 7.382679074716621 6.0660365513822185 0.6885108304647433 -0.7850416131036415 1.1045921979453235
P 7.0756224237511915 6.370824474190073 9.347857300001616 0.3097865634763826 0.13225677528559804 0.2227549785771712
Ni 3.6054815789467676 1.6871121067204502 10.490205680726065 1.3469209848893642 -0.18700018957506503 1.2994576492010783
Ni 5.374656613624351 2.2825358047872375 1.5575809009946016 -0.06687362189409773 -1.083692728788495 0.19692850443237053
Ni 6.606530868117008 8.217816055660995 8.171536027719023 -1.791650098013624 -1.214000350767522 -1.0669720735997044
Ni 3.0883810458165053 3.2797998027900346 2.925354090711005 -1.1921192344237148 -0.03217967005633813 0.12738273502274836
Ni 5.139595006425107 2.860734485985708 3.976701878308628 1.3696847609484413 0.07894109458159308 -0.9277532651739765
Ni 0.07532030103327794 8.550507584671626 4.60341983964195 -0.19924249727752782 1.41826164141588 -0.39084444729066237
Ni 1.9154402982348069 1.8738607655377033 12.813958095395106 -0.6772023474304595 0.4147479933811374 -1.1974946398030148
Ni 4.112808987533028 5.181920649478538 4.032569884891364 -0.22369985898894376 1.3534734412959013 -1.3385057642424756
Ni 1.2984438785072716 5.767267252115412 7.714429215104823 -0.7043727371976642 -1.096289591616899 -1.0119563794854571
Ni 7.931420213698579 7.464474876743711 6.2508554556358815 -0.09233139984557003 -0.3556223908635746 -0.8650348030988328
Ni 6.475390458943622 4.5236394567008436 10.465615357179724 0.6314657646252931 0.07902105588990907 -0.3552002157244915
Ni 8.51945649811382 1.5731782919374473 12.317499027666027 -0.46930294580888204 0.5261572357937648 -0.27871658154445544
Ni 3.891840575953316 0.4017491086702361 12.784339356496671 -0.5747233176279263 -0.2546561981611421 -0.23634557277741233
Ni 5.085414498821127 1.2124661739891578 8.50993668264141 -0.8530583474632468 -1.4770473440955207 -0.9821338968073859
Ni 6.721072624671834 2.7257161452072087 6.294832673836099 -0.2853487421489925 -0.4126731131299796 1.1423681311425165
Ni 2.3835462512995194 0.15900901266808862 3.5723082229309617 0.17589919456589706 0.5474948209292764 -0.197733259721853
Ni 8.866047786725677 5.129849515598004 10.088265899409214 -0.13933013719261164 -1.572648158720982 -0.9948793693985123
Ni 6.4261195417090615 8.83040029192333 4.282127218852999 0.7362024801137514 -0.18019859327219934 1.7025857989551
Ni 1.5326948966774183 6.412790878923792 10.323289740528692 -0.30530975865195165 0.7749515758574912 0.3621977300882472
Ni 1.7419189785741869 4.4228685024017045 5.289524500843409 -1.5628782238184118 1.6212625772945755 -2.4361402999230433
Ni 5.702521453416267 7.0626069430908 3.093240895495502 -1.4046782463044905 -2.1058476460735087 0.2053666078973947
Ni 1.9537498410986203 1.8751503389930853 5.656479996563541 2.1837356168002393 -0.5734699048367995 -0.09298008917316244
Ni 4.585253434151204 1.440573295768306 5.604778233365584 -0.2346689564059378 -0.00047771096736691927 1.0651663878495332
Ni 3.4029724902569534 5.956171340850946 6.268273908522506 0.031398311805623344 0.541093802498939 0.7820074542630081
P 0.3259267951132559 9.250294620234689 9.32998104853833 -0.9214152387710904 -0.7583103677563844 0.3073694693944577
P 4.206210950658556 3.2884952123748965 12.010294075753228 0.33044229205352127 -0.7274807839700375 -0.3880416877345446
P 4.7526124349428915 0.5215845642594054 3.3136234722769116 -1.3870263375506822 1.0609119834485536 0.39743367047240585
P 7.298221224628064 0.2498760428298937 6.289089466340166 -0.5865660758991253 1.9644351724305715 -0.25989559218321046
P 1.2555102936820168 5.238376333107371 3.0338541956273657 1.2364915898915028 -0.048954575521831814 -1.2865715372670294
P 7.496161538790241 5.441649954631448 12.837065409467758 -1.8856863963654429 -0.5116209898508027 -1.1187584621433766
P 5.829194411690651 0.859606637260248 13.4365236302021 0.601413425324603 1.7273239251317287 1.4329112730082547
P 4.7390719136613795 8.833587380605916 10.919256901694531 -0.33714747198783873 1.093760654547458 -1.3904875566264054
