# total energy = -381167.23282766005 ev
CRYSTAL
PRIMVEC
9.29466650469713 0.00000000000000 0.00000000000000
0.00000000000000 9.29466650469713 0.00000000000000
0.00000000000000 0.00000000000000 13.60368394891796
PRIMCOORD
 96 1
Ni 0.43597655161554266 1.4575245221514492 12.744665321407568 -0.9687767587741896 -1.4265961294235046 0.33978490961068575
Ni 7.088884053796775 5.16292693442833 5.553200681889429 1.60591566252486 0.3520704118462582 -1.741811577224942
Ni 2.2670249029090153 0.023058208404617697 6.811078558173147 0.9774981978075874 1.3087555295632365 1.012332017657321
Ni 5.064096746599283 7.094479442969453 9.751719536941248 0.30806212458610815 -0.9646737923494095 -0.34365956207474363
Ni 6.141013974345424 3.9210107887529846 7.205313692453839 -0.2055506988837428 -0.7078758652549163 1.890198939523816
Ni 2.88652371312192 5.3905161358937725 9.39405147921064 2.470119485081965 1.1405115375497517 0.2966474549912633
Ni 1.3907981120673027 2.2444295688911073 7.502581290052003 -0.5528188042453511 0.044262312252485066 1.6069955258526003
Ni 7.786021212447189 8.51310578623775 11.402254313150973 -1.105739424175889 0.8597979801799258 1.0227007624861548
Ni 6.999097576374731 2.244243675563111 0.5018153210585085 0.9526950227209786 1.612404098462681 0.9481799084594446
Ni 1.1027378110047779 3.894390864183964 2.5148318627272968 -0.19957262692343694 -0.0015737722450230962 -0.4181449348778283
Ni 5.777081311461352 0.7517730666817033 5.181125891239134 -0.8812101273071146 0.1811013075921268 0.42611766867065964
Ni 1.1324435648185307 5.280355749723372 8.129915504039937 -0.833457542513184 -0.6640233868463402 -1.2189517812355266
Ni 5.249636877272041 8.384811505921345 3.383943586439964 0.2764272712896465 -0.4758119505719935 0.734549775001677
Ni 0.5406391426104626 8.217340206729792 1.9486323875173908 -1.4163194300878448 -0.22473267112883233 -0.9892779640513348
Ni 3.517445668340176 7.792880676250239 5.675674642106281 0.21993473551955672 0.92249381654725 -1.5779083786786567
Ni 6.441622075047675 5.344070687893985 3.133676328425656 -0.7102428228251962 0.1105803187534289 0.8624104781021082
Ni 6.511945521028543 4.164400923098082 12.733578643325892 -1.898457579988182 -0.002536907489240792 0.7097088046985971
Ni 1.1596862320363373 9.24844402379133 11.039416561968796 -2.744996895385989 -2.4755866788441234 -0.9272860957295707
Ni 9.242346722633064 7.645160543158258 13.100646397186615 0.47283487022154047 1.3970582678653876 1.3204995574730418
Ni 0.1782075683499579 0.7585302891543562 6.172154824651305 0.7840057156399595 -0.5097998774816639 -1.8548231311276833
Ni 7.4075516913138335 3.80829436932264 10.690618404383516 -0.03233162225317012 -1.1051838087827353 -4.68215446304753
Ni 1.4897119518939481 3.869202318240513 5.933872109492896 -0.10578006915130815 -0.10531418525848314 -1.0423537608303919
Ni 7.621793751829166 8.78025308790073 6.403091035487314 -0.42546640823990595 -0.2597611234878752 1.0566076996462448
Ni 3.0927258872014276 1.8358174446232083 5.457961023690623 0.8707171981955908 0.5871232339541759 0.5470883295194772
P 6.908604704306303 2.61107627436392 5.607057696876415 0.616119621186526 -0.036481382755485556 -0.17421743598809994
Ni 1.974475277975388 6.939221335427236 11.541460531820741 1.3559131610856454 1.0838719346788366 0.00989437629557651
P 3.6158018281828332 5.66287774540704 4.814683668427117 0.08230769706098083 -0.47045814245924783 -0.8323820500608181
Ni 8.13578880373797 3.707549480215235 2.052455670136409 -1.215829433556461 0.24805771900801799 -1.3493308798824373
P 8.939387071331664 7.436922837137193 10.037083455281191 1.18884673432003 -0.01799977901153029 -0.23061124139679637
P 7.533159813040697 7.809796969097871 2.156537344481342 -0.20813234356798993 0.34188652933472086 -0.10037175365154327
P 3.0656598186452175 8.20923525762917 10.246117714212717 0.8602291541800734 0.8333624116962164 -0.8076850615347704
Ni 1.1859622539485648 2.4207586851616663 10.663165677705072 -0.3621938734335053 -1.3482903544330649 -0.3993925939709896
Ni 5.258308801023052 4.5647593836029605 9.435406238423258 0.3605249703715146 -0.3907395462816819 -1.2570084788979319
Ni 8.58147735227466 5.9244017738981425 2.8738327756196362 1.388129855027506 0.5374837165501776 -0.19108875782214188
Ni 0.78635201408887 9.183214054997553 8.853998830050005 -0.6225494359722697 0.13958030553020478 -1.1069411577934742
Ni 2.661471955583622 8.51397948487933 2.690591215947548 0.8100355640448178 -0.8790683983737636 0.7843751831642363
Ni 5.325406997763191 8.471911824753848 7.161782122370387 0.4612952450130572 0.2904881202580868 0.37450148715626475
Ni 0.9421166809498769 4.631067533699117 10.410681641754413 -0.5905600275498668 -0.5866846037548605 -1.3411683986763032
Ni 8.520309152697592 4.117156133787912 6.986226322344292 1.0887822274962604 -0.07779078302723376 0.3190805871837989
Ni 0.7057588912028657 7.710046609295243 6.9596445059075105 -1.9535743184566678 -0.5896380299562296 0.23241846980886424
Ni 7.1925846468193155 8.30649464683665 9.063685574562795 -0.3594751889507616 -0.42701935454932266 -1.2255921693701797
Ni 1.5545422500325359 5.885986917667779 3.828811415933553 0.7272488704648895 -0.7276759306999789 -0.5155915444627766
Ni 4.022536429837973 1.1331499594649153 3.275236886094492 -0.041918751720972966 0.8355429642873028 -0.18174639737529344
Ni 4.802200931452188 5.241392508175421 11.534168866030098 -1.7202605905270436 0.01780668916411772 0.5186128477876036
Ni 3.565285316299933 3.3578934249212513 7.766315590212978 0.45864546609503587 -0.38542353338540714 -0.13987238284932685
Ni 6.716446771156888 0.7743451640336116 2.365925730202701 -0.8246476575310379 -1.5382069463239767 -1.3988495554378553
Ni 5.385887392026673 1.2303628753403977 13.001108885244543 -0.20335240568084334 -1.5683798703629312 -1.1019334201662376
Ni 2.0962818811447343 6.086640175906608 6.2391386969947265 0.6407248213297159 0.009845782445828205 0.37669900902821574
Ni 5.613197753500121 1.8024495922479353 8.437045672154927 0.3212840225930209 0.7956080757655781 1.0612498264039465
Ni 3.0589397748381635 4.415477746555813 1.180445869440285 0.12970187007422823 -0.36263918850103993 1.8871185008262787
Ni 7.327227184286783 1.2119315518695992 9.833572087124425 0.8906789860294984 0.7910217419464765 1.1546842295057083
Ni 3.094296685822994 1.4180314846187096 9.459185712940501 -0.5041928157075316 -0.6371854407178897 -1.03053311404638
Ni 7.437118025131589 7.64504900716146 4.455859354196373 -2.257269167213016 -0.4055647842199725 -0.9336889139321211
Ni 3.9832664642988282 3.0836542927952255 12.993177746405596 1.6814405323360524 0.49496564068230886 -0.8226938762387765
Ni 5.276693651161852 8.036354462592936 1.067247056823791 1.6572238258805332 -0.06600690301842825 0.1864404604168531
Ni 2.3217611933374225 2.1472724210140237 0.49431824314043177 -1.5561198220486554 0.07003453612058261 0.9843568726006338
P 7.1767744192732605 2.0699872698997073 11.837245630128137 -0.6285735306791627 -1.5145952204423077 1.1457786994859622
Ni 4.282210819715516 5.596458059314086 7.18735639696943 -0.3107874939370712 -0.2635385882524365 0.2362897798388124
P 4.290334358148939 2.607804551791191 1.6051526380460732 0.1606741500860265 -0.5848442081120121 0.2789212413560938
Ni 2.6725233139329814 4.933943533002918 12.603880868383117 -1.6280988834901187 0.6318642856152924 -0.7770457393823585
P 8.985088946019468 3.205637494626168 9.070963298353837 0.2384875588210796 0.36409417578001163 -0.1980433347631041
P 9.330822652092737 5.828016083332242 5.651065153879537 -0.6385051879705778 -0.4400869863665582 -0.4934132085935245
P 0.34647263205205237 3.069442747869935 0.5603150219121941 0.5411902188674873 0.577251997587051 1.5679186144557966
Ni 5.423419254949056 6.557758931713145 5.32449519098937 0.3147572772180966 1.2457146511516675 -1.080112210526088
Ni 6.909813010938276 5.8758278472928005 11.160258378765842 0.9070044626623992 3.1477599484911076 0.09199947042744801
Ni 2.1818578746876702 6.52954032452336 0.8820127206755862 2.4336956950372923 3.8924792078266193 0.5968880266504236
Ni 7.468794248222099 5.853762309259681 0.5995292194529398 -0.44168646964319414 1.322584979247161 -0.1543978301590115
Ni 9.419214929554812 1.3976854598695527 1.9362528213395005 -0.5710921486332423 -0.05017687796470713 0.36149299071173874
Ni 2.7351228921356174 0.8766469097629831 11.958508495313096 3.7603072789453433 1.5808386649515742 1.8500889588768075
Ni 4.257765847084049 6.298818820481186 2.657847035687701 -0.9236011906788159 -0.3853767393078718 0.3638607196129669
Ni 4.780665189403858 2.2545421659340867 10.83453144211814 0.5665976031969984 2.2767473305422854 0.21864558439448797
Ni 9.478886687841511 5.892641898810035 11.848930884725963 -3.895083221108369 -0.5194564267348214 0.5862739985800032
Ni 6.438127280481351 6.403021325489315 7.466531926420388 0.7495529332787285 0.15459811909527568 1.0839840347766687
Ni 4.408664756084762 6.09570247564641 0.19114109664527615 0.5405515568422238 -0.5736210857026831 0.10925208686030861
Ni 3.041837588662536 3.879630933941086 3.784122659883326 0.46604921475827477 -0.7558202543446789 -0.4089450135461151
Ni 5.530066257220332 4.461700122562006 1.2009452561850384 0.06012241921319324 -1.6734258895616922 0.904313031873165
Ni 4.921479385360791 3.7157566706462557 5.250681597775379 -0.25006832168014353 0.014432116264929984 -0.3771965174899246
Ni 8.116799800283184 1.8428163284222558 7.572028248991371 -1.1025587124550624 -0.2515492771010442 0.4246516256480945
Ni 7.631692571544951 0.10612835988616809 0.20282913964302157 0.09051183013832799 -1.8371614521818618 0.031169226513952774
Ni 0.5579365167804858 5.393787858466501 0.5656575961587976 -2.944670566663664 -2.806758649974818 -0.10798787543590435
Ni 4.1706934122507455 7.650226136346147 12.233098965829033 -0.7004484624425936 1.870663183483733 -1.053616992449037
Ni 8.665584788526427 3.668056442682495 12.461981055390687 2.038781191442314 0.43095159972419333 0.43593645453329444
Ni 3.311271378259867 7.611932110778982 8.120773270169098 -1.1176379753856882 -0.15193419910986736 0.6225224393890763
Ni 1.2734622434362588 2.1458503370548545 4.069501449689509 -0.898026427533505 -0.8500840953262714 -0.10236924369754627
Ni 0.2917158933575652 7.708921954660869 4.329576439688884 1.602182677844989 1.4815650294602163 0.5934653741221199
Ni 8.316021679896442 5.7128086933067515 8.922302545022196 -0.9865623648923849 -0.2556273038251597 0.5919268259904064
Ni 6.037378443987682 2.8329120773278875 3.1386285266834677 -0.2053889764948979 0.48006712630392157 0.30898309373848076
Ni 7.8878628721897694 1.0159070374978694 4.150008132177995 1.7689475142097857 0.26859749083258255 1.4726556427857282
P 4.311925868195669 1.0803469596476656 7.120208938497373 -2.069202226936333 -0.32467865009686664 -1.2567588247809711
Ni 8.429927816625963 3.501988638117312 4.284970406169616 0.4284010653881977 0.1765838793377475 0.9308121066049583
P 1.851627672169264 -0.0002463086595946344 4.585733727800744 0.2311177487195697 0.6954250410860732 -0.023429691777849974
Ni 5.022252158467395 0.07801942975990042 10.360469994929426 0.18299389662914936 -0.6892307393499033 -0.047669281051504996
P 2.9071857565286696 3.812644273197745 10.783558562115012 1.8112323910209258 -1.6401930956504913 0.13075756503225222
P 6.1948858607986494 7.54129264614052 12.74005423740663 1.6276990769485387 -0.4083104652859097 -0.182145432585925
P 1.819635430421161 8.73758127445926 -0.1702392508454115 0.11801234955144192 0.04064708409740096 0.5410174407350489
Ni 3.70039258708739 0.37026326016897415 0.8370702202326452 -0.4834244728119288 -0.24338731011554213 0.05734434224742382
