# total energy = -340855.3527727109 ev
CRYSTAL
PRIMVEC
9.45676178571869 0.00000000000000 0.00000000000000
0.00000000000000 9.45676178571869 0.00000000000000
0.00000000000000 0.00000000000000 13.84092677752567
PRIMCOORD
 96 1
Ni 8.323643184455715 6.269303524937325 8.061647380229447 1.1767288680105734 1.3760839796065656 -1.0439830689036989
Ni 9.07420745861345 8.504541581799272 8.255780515775854 0.9520085381769152 0.6642331888643013 0.040109209316059956
Ni 1.4827256897640273 -0.2835307423009574 3.543928121353734 -1.0833433158688761 1.5926084038929926 1.6991068392675641
Ni 1.988823213452409 3.393313112468188 0.6460490879168841 -0.16054379515574932 1.6724712389579068 -0.655158994477175
Ni 4.198026804953551 5.340053735707893 10.445208126905577 -0.8889715164200884 2.039516269836126 -2.0467050742750814
Ni 2.539159469054282 6.96636144057293 5.1630118058449535 0.31088416741593555 -1.0927887775524923 -0.19669376271374514
Ni 8.169781669228591 1.2696648453837507 11.704011881309713 0.4605033452393811 0.8665628097075849 0.8853884270545204
Ni 4.33850700216922 7.665093203055196 1.1772874129716648 -0.15517584597561662 1.3748408512280839 -0.3912010592991327
Ni 2.0993065620939877 4.125521811883708 5.464591723804331 0.3304762306152502 0.347891083657588 0.6895768098354124
Ni 1.5828444274228812 0.594463397725585 8.791230882556642 0.6737339292658849 -0.09954334421297695 -0.5342279286170413
Ni 6.100207166377018 6.732817250035188 12.002727346106072 -0.37051781991816835 0.3794323487989788 0.4058182949916753
Ni 5.167628596977952 6.7516740331552185 7.740233795651395 1.799261848922611 -0.430964969460632 -0.8992559290652319
Ni 9.12612508114553 3.6167763948785714 13.47949905861214 -0.21624983046880175 -0.470176606663087 -0.5673938738460487
Ni 2.6734644007848045 2.025241203319628 2.379740214890527 -2.3967815956197627 -1.322609404727193 -1.5158969699728666
Ni 7.720292321947682 4.564627634658203 3.9989071188859877 0.12114652430504941 -1.3377915117842702 0.20790531515884839
Ni 6.790843940719493 5.617382733590538 9.450792737474634 -1.916790059748783 -0.610940905199064 1.3466312215630871
Ni 0.3878709784476658 6.327812510475753 -0.061526638243342924 0.13703902716558977 -0.5216040692054436 0.7764664698401208
Ni 8.67924580013399 5.00762018655122 1.7505307827920167 0.40164282345774704 -0.31410318857386554 -0.1125577541947739
Ni 2.2534234098909414 3.787158873049874 9.846518502311216 0.27244900336818884 0.41396046448283547 -0.002783219172091981
Ni 6.3989557298398365 3.022333802029047 13.286569768848674 0.4945786896565353 0.5887438002767345 -0.6926047980284588
Ni 4.294107505304355 2.610520193940814 0.44984492152630334 -0.6150631548975536 -0.3364357906327947 -0.9252107012577807
Ni 7.046573694546898 8.192695403180362 3.979889570814583 0.6908968141984165 -0.5083878276254857 -0.0168918906593322
Ni 7.647352317832942 1.3615940272843572 0.21063423929070782 2.0053159698053338 -2.3404415262671368 -0.40568794006139813
Ni 4.448252723386846 1.634856617573415 3.5096719472444087 -1.1829277977324335 0.7282924812380553 3.31724604044181
P 6.238673073319584 8.451933615652468 1.7865175443190788 1.0221577454984911 0.4698945566462939 0.6512475752379107
P 3.8138647685017113 7.20400986575164 13.021875950467871 0.7914940535972046 -0.20593276481350983 -0.8326016222707917
P 7.37529073629827 2.0605905790983 3.638862662168857 0.45995801425887234 -0.7340113859997036 2.2365458186227354
P 5.947915473616256 9.30233292461369 8.025688988987923 -0.40805309785946503 0.8418187699936858 0.300349843543515
P 7.28819395970074 8.99867630175303 12.868435261142874 0.2194544534490285 -0.3387209871225457 -0.46683237278120243
P 7.880574978467934 7.818708842474336 9.887653524986996 -0.6278222543354349 -0.6196744284173199 0.7228571691550971
P 0.1658980817041417 2.6281286844972302 1.4763149509089277 -0.8803696336836904 -0.8716877896389761 1.2613420732762792
P 0.31826826558822185 5.123560086777682 11.787930240250953 1.5565394260845773 0.4968512877407959 -0.32665300021441807
Ni 3.0838216675488233 7.42930775996006 7.501519593412691 -1.8530421279678602 0.5056658007086324 -1.8790961447424348
Ni 0.22027446231606307 2.523716576960496 9.78308538087981 -0.04347092669944126 -1.0015878917669396 0.47608911549278005
Ni 1.2755847782990661 8.945642781323178 6.443297540457443 -1.4115587754744077 1.5907636373747702 0.8521258083466485
Ni 0.30452664495045095 7.006164951180857 6.180900769528924 -1.0967379920082272 -0.4576105970726183 -0.14690229311291475
Ni 5.922344389585884 0.8075299161629687 4.972962100063458 1.2944835930252545 -1.1738777717150235 -1.2784476226083146
Ni 2.299156310176029 5.765201377998355 12.682746068248363 1.0142320628935113 -2.5474168734125477 -0.22169825517788272
Ni 9.055473613397414 0.3062316991112039 2.1383951415063907 -0.954575527573143 0.9936624662722757 -0.03461219075723072
Ni 7.21130102913456 8.011787549074961 6.893099906555442 -0.5294680453345526 1.0734849350175575 -1.1642199369102855
Ni 2.614577144772555 0.19935610511370305 10.868891862462348 -0.5931452717785397 2.449486382212646 0.4981286117913228
Ni 5.134255684425001 4.523783880247266 12.219545361967587 -0.08902393273889184 0.3045014038180433 1.6109254570346256
Ni 5.665300145861948 7.7209542952768695 9.780649319028395 1.1509170491537921 -0.2219024007688888 -0.1115820205450659
Ni 5.294037132567439 3.751724386414592 8.237469387814311 -0.561907911030813 1.2810176973283358 0.31099112530744505
Ni 7.197806229980959 2.8119492212510613 1.7253408062640212 1.4722604642298387 4.473606372098359 1.0710567851920392
Ni 7.326995053553037 2.4960177215148756 8.899923120504674 0.10696611903960933 -0.7053479566267401 0.9632614853829152
Ni 1.2073447848215662 8.441805423715882 1.035051095081278 -1.1443478805767064 -0.7507803779279264 -0.7466902670189527
Ni 3.0932973429180652 9.115382199688982 5.402044700957853 3.1928648112495464 1.3610957337278493 -1.0457784702412247
Ni 7.670587581687462 7.297168426692168 0.6369592484309399 0.501362288237272 0.7267603608642451 -0.22202787060315957
Ni 5.528129815292222 1.8920237992013436 6.841362908174614 -1.5564404386128676 0.27237161316303415 1.4301038854664467
Ni 6.3526270535584795 5.9593770689730645 2.5319203178615117 0.8505029280312449 0.2466947772222203 -1.4039758209208273
Ni 0.5845602767209234 7.136081945415043 10.181912017925548 -1.5243821246257423 -1.2785000731128047 -0.10703373905275115
Ni 0.13289492853935134 9.112516800849779 11.086167585597186 0.5587274564203023 2.660222739062386 -0.9090916842087311
Ni 2.5396228503847134 7.427019223593437 2.707644920799366 -0.3127523309729259 -2.5833498398637316 0.016187665503455993
Ni -0.04674855650729952 2.4570274924256665 5.957384529252207 0.754138495766882 1.6091817348706416 2.214609937781592
Ni 4.6025587064207105 8.689307794737658 11.523540929601577 0.17304989804256005 0.254652084396084 1.3412416751163998
P 5.382060671825833 7.2629822326205 5.2778499933164085 -0.3788155411505863 0.13075473681877484 -0.1447083707853895
P 6.045584909957112 3.8872776107087277 6.089315813759495 1.347980022281498 -0.494849941040051 -0.08567121421657503
P 6.790834483957647 5.3763487876711205 0.19753662413461895 -0.15508405759275873 -1.1560402293129703 0.01894388809235447
P 1.7511558747500078 5.4023170556990046 2.1011354998349177 -0.6743854468069547 0.5933486460385974 -1.602842165805859
P 2.4441000989827977 2.1312042197990335 4.599616707810559 0.12345743182641318 -0.6566278657132176 -0.030819042263385634
P 6.976007337655393 2.8805674852023833 11.048837963888056 -1.1652769174198898 0.7169384896778169 -0.5631222430538882
P -0.20158317252833044 7.8746739590763095 4.201399086227676 0.15156421736495831 0.03354132629055514 0.06682785625782685
P 3.5756111105648856 5.234535187035229 7.953370294126436 -0.518707464383939 -0.38281437789733425 0.06344068495314881
Ni 1.4442555825763232 5.842179419421144 8.585444179387965 0.6382375361314879 -0.014950193551929091 -1.378000222792672
Ni 7.612948618238826 1.150027351275678 6.679257933646722 0.011052915380051933 -1.099980153094609 0.05322672053462446
Ni 2.9221866940846555 4.036382374727539 3.266334334139414 0.7261525520769172 1.716996060843159 0.39265193281304633
Ni 4.701504805610716 8.592839367151186 3.3322857912502903 -0.34990348610192645 0.6191640644398047 1.0700514838559765
Ni 6.44248520461491 0.719450582009686 10.14747521966497 -0.8281086194964449 -1.1893113326612743 -0.16726003083366034
Ni 8.559494824883771 7.432863502413987 12.097911545433918 -0.8146720343755646 -1.4028329655656357 0.2968911955709532
Ni 2.7938395223168304 1.6995314118351417 6.669264027728344 -0.026430683387702866 0.17729684624437209 0.6762811211677708
Ni 7.730117897505209 4.833369892785086 11.909826954763927 -1.7887408947866292 -0.02345900235388863 -0.18665823285461403
Ni 1.861752704533733 7.856734481855299 11.954353172237521 0.5486839561413712 -0.2811051363812901 1.1893126182128548
Ni 4.314449000034137 6.189904552482075 3.4173663862223487 -0.18278589438340134 -1.016154733837521 1.5528491217171838
Ni 4.434663356614788 5.202164691237907 5.8233481695580975 -0.8874656212985232 0.9931037655553284 0.08055806135972578
Ni 5.795387361809355 1.2328780418045553 1.9691351809661555 0.9283651877263625 -2.843911347765715 -1.2558298852087983
Ni 4.512180433462774 3.0085269297345416 10.507893218475001 0.7821059275140854 -1.638039025421966 0.6871381184869326
Ni 0.7594375537974162 5.6729601229568445 3.9977439371789845 -0.8080768976565503 0.35675136226169524 0.2969495596127144
Ni 7.181446031988154 5.9020028948561025 5.93147394747158 -0.41893014978328497 -0.8534653530936784 -0.46744455244390465
Ni 0.5804191607087563 3.036093390514324 3.8723869935067223 -0.430175383679801 -0.2156872730971124 -2.418179087458932
Ni 9.066121927235503 0.7828071036701433 4.636779890511208 -1.5094740971656584 -1.5960899346836899 -1.2152020843851072
Ni 8.000004423815405 4.023105081096385 7.492979191789974 -1.0964585130945954 0.28675462135758356 -1.562485102145051
Ni 3.886265737191254 8.997314528047271 9.030360236640366 0.5655995009497872 1.300639071103689 -0.5737028467832119
Ni 8.937528879659693 4.811855759586457 9.607250133828362 1.4847022895376172 -1.3004022725025346 2.107954922224499
Ni 2.6912620265781326 0.18379594917303252 13.508136024832838 -0.6743016288438968 -0.4194199449355099 0.8850544407538693
Ni 1.1633046449068325 3.87677114829832 7.618143217520587 0.6161152503111518 -2.53229930104482 1.3998396872652665
Ni 5.45247572052781 0.38602974691633696 -0.2548597317376142 -0.4120565625919033 -0.1633990052163573 0.30693623851178103
Ni 4.094257757222315 5.446811120182325 1.0195665932353717 -0.47573636013905163 -2.0170168031820292 -0.24727713208825158
P 9.22310417387166 1.2784785474238047 7.943460553388483 0.7301408473007038 0.8437090450378631 0.45904424419535134
P 3.8969045942674994 1.396754267826118 12.425844621628292 1.5505448990640394 1.665471667711622 -2.2925472736890193
P 2.9172975482105055 -0.041016813152710725 1.9841799433862435 0.9728938662663568 -0.0811157336354087 -0.9812954600664906
P 0.9878911694336968 1.5538878226518025 12.227531597346154 -0.44567579330824536 -0.3545713238912409 -0.9595439273220119
P 9.53071372318376 4.905279109858661 6.251946584246 -0.7482267582681372 0.27386311010689607 -1.7698589702804617
P 4.818125592690058 3.4652885268746814 2.2812480402691078 0.9146262408737152 1.0866896066332898 0.28669677153645456
P 3.460626343284824 2.2332615936362257 8.76111298743093 -0.7069893488849051 -0.6028267607323619 -0.34393801254711087
P 2.624317609473473 7.30817609748039 9.580550858109817 1.0319443925716099 0.7611673775892053 1.9339202916711664
