# total energy = -340859.4492450516 ev
CRYSTAL
PRIMVEC
9.39971561247821 0.00000000000000 0.00000000000000
0.00000000000000 9.39971561247821 0.00000000000000
0.00000000000000 0.00000000000000 13.75743393667005
PRIMCOORD
 96 1
Ni 1.2968881450618135 2.3272755567173857 7.653081972219966 -0.11320927173584373 -0.664864651800713 -0.034667726585514494
Ni 1.7298860388385668 2.6235357893464037 13.066287882265597 0.8317377316085999 0.14988168745621283 0.10728879248635072
Ni 3.112537187977643 4.022636440582718 6.558278310351606 0.2650416551605242 -0.957790434966015 -0.3206751853644284
Ni 6.318216156687595 7.092113531927532 2.0644679715248615 -2.4305975157279427 -1.5977886625423516 -1.0716648510896833
Ni 2.6049337524032974 6.533714033876912 13.54874707891988 -1.5476153841220701 0.1285649282563076 -0.2167846199263492
Ni 5.491388983556486 5.454504499996734 10.115373162208394 1.6434311429718147 -0.4465036885261794 -0.4117809403330134
Ni 7.540508159667301 3.72507904721689 5.036073345305747 -0.47155214685437497 -0.8389375917911488 0.2503657983159043
Ni 1.1736014767718776 8.200330587791756 10.07617822858264 -0.5789450690187578 0.7512891992435449 -0.1890871540110808
Ni 9.143977424959715 5.735527793825966 11.109141162280865 -0.2341781328124483 -0.5268756020170281 -0.018980397757244732
Ni 9.320532280898252 1.6436812481335499 5.679770561517166 -0.22633626817052632 1.0960245108809703 -0.8567879897090083
Ni 0.9088650699620087 6.012856999469933 1.4403616423254813 1.3999654142098534 -0.28421771386834277 1.3533574845433272
Ni 3.937202426547401 4.140443074745403 13.34992523697097 -0.1865175935116917 -0.2699015543559868 0.1672021810125314
Ni 6.278671553645832 4.770778595396121 3.1886701835414075 0.4188000519633239 0.7197247941737024 0.4459059070411805
Ni 8.081922371838086 9.17221417027406 9.608494444697875 -0.58546795773894 -1.4576774242093413 0.7110115826704206
Ni 2.6050747481355594 5.493372323523639 3.8577221922997356 -1.1811341961671207 0.5557683737919782 -1.2631140775750378
Ni 8.75508299623453 2.002440189016592 9.62659923669187 0.619006712926334 -0.19882700700666403 1.0264188347676904
Ni 4.978061121252301 9.256604815890638 12.078573298964908 0.42947578650961515 -1.242352162437338 -0.7447205448870916
Ni 8.120094616419165 5.3756878856622485 6.727660243404199 0.5423042778672725 0.049325585708005375 -0.35607233391679965
Ni 7.11499243941592 1.3023869786200335 11.453063592243746 -0.14539459821913667 1.1391491099845865 0.12506977061885557
Ni 1.2666116614874094 9.004504446606095 5.787711254307699 -3.2992611738286146 -0.2786708159081846 1.8419334196492085
Ni 6.309342825270571 3.0115560445315634 9.388568361543982 -1.021381272343783 -0.656636864574282 -0.5768285368963872
Ni 6.723165299459685 2.1848604674172316 2.3856769289918747 -1.8614223816117557 1.6292684783181877 0.21597986463686672
Ni 5.630250980403636 4.647679921415867 6.967521243156849 0.29098537160947946 0.9237503146621705 0.1809347001072755
Ni 6.241824668948017 3.3196411192396247 0.2592892716868118 -2.9189140265248503 -0.3114490387804701 0.06953522788666089
P 4.336521139744493 4.314243814047089 8.696252996933964 -1.2495543366127317 -0.5352555985506072 -0.6872874995806034
P 7.161737224518531 6.154087724619086 8.479064110929052 -0.8576025151905037 0.6701647238573877 0.5171555465157868
P 7.75521646075595 1.3829989386119892 3.952606680282804 2.6688788720754872 1.403945481903524 -1.984234723655002
P 7.322021172954029 2.9004702069400365 6.979558518805835 -0.14822795390287377 -0.3218666345693682 1.054892259617035
P 0.6322070040036092 2.881022195603358 1.2325846914348348 -1.3557534955793296 -0.05468093648264777 -0.6701127875735298
P 6.182211673347623 5.336021086319192 0.9051155234553865 -0.1679529431356269 -0.44191118405949054 -0.08459212221978335
P 4.497021281636125 8.497023207333044 2.3765827042609726 1.8090240705156975 0.6028889814288649 -1.3401571838029693
P 0.9489294772700442 8.95154644956847 0.2024444922964956 1.433753566403892 -0.7762692662276502 -0.3795953567394043
Ni 2.5429614282163846 8.11399420106996 2.4886508121205915 -2.793143373184228 -1.4667199940275835 0.1752181093384724
Ni 7.073379898967647 0.2563405809394382 5.3486289246980645 -0.53773259933619 -1.081877529956627 3.617856593845879
Ni 3.3264747123965925 1.1064687087841738 6.555636990300564 -2.1441696815821594 -1.9640073408645338 -3.3850570865485126
Ni 0.45770974578454854 6.376729385576346 8.727110382925288 -1.041718184128922 -0.05805036717551292 -0.34024565129718826
Ni 4.873348290759019 6.5979422897800175 13.273364554352675 1.5523562412411653 -0.17121001662034385 1.6334424071902192
Ni 5.899994615651904 7.604595419838144 10.359498812876195 1.4598170962601633 1.78753144785956 1.336849459585975
Ni 4.861438851240618 7.155843602909978 8.394579468157632 0.04370104043237635 -0.5905086054866411 -1.8229849035711636
Ni 8.336626462311736 4.537515255941786 1.2895667066712195 -0.14301581357431498 -0.022881789694179946 -1.342035631772605
Ni 8.660634655049925 9.248718454599448 12.75569966332411 -0.05873736594020852 -0.013764143663627909 -0.7167497707057785
Ni 4.228086021919492 1.8584365477996192 10.903385150219309 -0.11742022449339778 -0.7401041291610028 0.7948092340133667
Ni 6.712618818686484 9.118945982625458 2.0713194241412487 0.7778116710141056 3.245888928855061 0.09799194056545704
Ni 4.182581999260788 2.2046656679423076 4.011089830082005 -1.021845356464395 0.22795092095581387 0.39818391837486905
Ni 2.7068360679668224 5.9538737848069765 7.894290891173042 0.3322538913409633 -3.0447070484629757 -0.4322438361730556
Ni 0.6912522567887618 0.6929855643240366 3.661527570828642 0.23811166353889962 0.5559141553412232 0.10837225535851659
Ni 8.88649101870276 4.49196423470566 3.4579861317351477 2.140912608097442 -1.1629307857852167 0.8694108206793415
Ni 1.937140365548295 1.0439606008146654 1.423027627001185 -0.03378300998771601 0.1018586226097149 0.2519652815925403
Ni 3.4473550535225894 8.666340282348797 0.3553365044752682 0.6335694412318572 0.008296178570521196 0.5051644355921816
Ni 8.574053875725543 1.2786432973071045 1.5695851709151978 2.066256771154764 -0.8767258662835158 -0.1294398746620932
Ni 3.71560413400888 1.843218408430802 8.428987126687314 2.17421996400032 2.1590414564876688 2.6160146770866044
Ni 2.887667794450642 8.979444805125388 4.580056488279891 2.9962954899288077 -0.18074546691460483 -1.2835029256440347
Ni 2.1974278870195225 3.4327854945221774 2.424843663471175 0.9751744347704173 0.5648194282506531 1.0266782590766639
Ni 8.189238923520474 0.9019496992803293 7.546833228216576 0.5532062694917569 0.19799885467841383 0.05390549176920394
Ni 0.14724654305900012 8.456510433596414 2.0965642400169946 -0.40618801962626816 -0.4042650915719425 0.4400497053707195
Ni 2.5731721137823995 8.08148058521033 7.9097816222908985 1.1156201736247109 1.2838821633603241 -0.6812940010013299
P 3.452769289641452 5.437885803020781 1.4171941635717298 -1.1887821996306818 -0.6565993264681272 0.3833262845367463
P 4.59762643646284 8.70038605183234 6.089961925614757 -0.03854572148368201 -1.2176654583239352 0.362369479779421
P 7.446623801411744 3.7306906773609194 11.036681575528302 0.40510815629852814 0.29403367151750004 0.4871392026593546
P 8.154770166840144 7.586425769807308 11.324692617848442 -0.5348365087353176 0.9500416442585317 -0.29086812930532485
P 7.0157408436189215 1.0374183988377064 13.756415933082456 -0.859542412525694 -0.8556482196776102 0.44753830043828086
P 4.354775387214686 4.38466648245424 4.294808962312088 0.6289676807937877 -0.04123663805228382 0.6751884023242242
P 0.7949997365018229 4.464451267483592 7.7835848020870735 2.2149436669719273 0.7738022927443964 -0.5705234206139658
P 5.779283469404623 0.7705012580355175 9.795224492647991 -0.05019564701778452 -1.177270085226024 -0.29675878375814696
Ni 8.223435088451762 6.414478642960638 2.672532746279014 1.4571156381686001 0.804871246235059 1.816141655397085
Ni 4.692413167404873 1.2348594225819958 1.1769017168783578 3.1648215319590847 0.12917505103648078 6.702092296531096
Ni 6.740028389038226 5.253378787782663 12.516499463569996 0.931569553596273 -0.0355339312405517 -0.7608624447542767
Ni 1.1910661481414033 6.471036731028688 6.006853401190215 0.04907541737041226 0.30273736993908507 -0.46696555592495703
Ni 8.45120899406336 7.119607699718631 0.4694105116192018 0.49611415246445534 -0.6113497106017084 -1.3378491044950829
Ni 2.150974493096919 1.227020059868226 9.739038633313113 -2.2208926854665103 -2.02365204911036 0.5446776631954555
Ni 6.898169202343341 7.547745940590087 6.502698732665454 -0.9969012849245475 -0.5631672373592108 0.5229446423937381
Ni 8.509750422098564 7.888955612664246 4.698769255015247 0.30269391829565934 0.6937620515613536 0.12934962894113208
Ni 3.7433802932645035 6.269864020237197 5.730727359128218 0.18701458775276825 0.6375091426058956 1.5203336655879816
Ni 0.7431809849808745 4.127114278188897 5.704107364877143 0.2248311443799096 -0.9014279970158864 -1.1981713541550656
Ni 2.6498643924174705 6.281435069998169 10.12009181938143 -0.15014728241277367 0.1628215354463325 -0.13352870001948616
Ni 8.524733568580277 4.108051655187068 8.894510855953826 -1.7671464564453048 1.143428968306863 0.593867751766861
Ni 5.061803186500475 2.412483977581084 6.700970691258542 2.351123945681648 0.8892815914613394 -1.1146349268933062
Ni 3.815899098224618 8.923995883484464 9.751324061450878 0.5236966900684142 -0.19051463048622674 0.8339709918144929
Ni 1.9451113242788431 4.946036290597848 11.881979189585739 -0.23009573521295856 -1.044847216676207 0.6855234657016452
Ni 5.230264887407171 9.423402767156645 4.137396626956994 0.18459723656052726 1.2249691910742 -0.5864686310893126
Ni 4.917038168329286 7.070935972941772 3.9558260828361207 0.5459758131815887 -1.175034768137602 0.35748926886898436
Ni 4.6965584419333775 3.5347630078095755 1.9967543011202382 -1.3581273951281447 0.6432794694307695 0.1394535501443534
Ni 8.177385882294978 2.8554455697710224 13.493772842910904 3.8276894650447435 -1.0624132505844281 -2.7863469190876855
Ni 3.9576656071563665 4.0697854134511475 10.877741786407038 -0.9768723912981305 0.23972734476545163 0.34838602101613547
Ni 1.792770135427441 3.5705007260802635 9.836592640493677 -0.25515344951253477 1.155259642393204 -0.6383018137105201
Ni 6.609052753482266 8.176192118428492 13.569548649286272 -0.3935155663649223 0.8913762692068391 -0.9896029514909216
Ni 5.86194456737212 0.30061042095507634 7.571224549926362 -0.36055736627134677 -0.4816164730689125 1.0151203790357355
Ni 2.3268337700896313 9.262865026403075 12.138514344635698 -0.5697104377943673 0.6898395765784958 -0.7448365016396656
P 3.854522529148935 7.022724832223635 11.602937355780563 -0.08745170315576552 1.4951319695113736 -1.272318369782125
P 3.9964206340974613 1.2542604353412539 13.26649994213461 -4.2021004493697305 1.729048621132319 -6.6852492568318285
P 0.8241350946164526 7.023946795236573 3.786775019768569 1.0424206095125854 -0.2546001481122261 -0.428269682016656
P 1.9044857539564046 2.475151880713823 4.59238233519424 -0.04278701325853922 -0.44701045295926883 0.06311929705798806
P 0.898267830725193 2.104991084948523 11.163703690751634 -0.2788042561622553 -0.11874588528335679 0.5753380683937898
P 7.213454459112251 6.125681784426026 4.7317180777017915 -0.25012797127348535 -0.37218260921510093 0.01796146957442713
P 0.2782287584157987 5.330409456175162 13.260529242859088 -0.04822129690023308 0.18804071502443742 -0.25730623418947945
P 0.9273486704900148 -0.15686715185701397 7.881991363462048 -2.21018301235849 1.8804256621871356 1.6852647911781493
