# total energy = -340865.76042784296 ev
CRYSTAL
PRIMVEC
9.30031455791638 0.00000000000000 0.00000000000000

0.00000000000000 9.30031455791638 0.00000000000000

0.00000000000000 0.00000000000000 13.61195044571206

PRIMCOORD
 96 1
Ni 2.2841385934511282 7.140892929563342 4.017648358162969 -2.010257115860693 2.031702430218662 2.3314714615580425
Ni 5.420241779413939 6.2398133771903606 1.7767673866218725 0.5929956335745529 0.8574940146370974 -0.7864153535227165
Ni 1.8338080743365706 8.34531153341069 1.9617543583365455 -0.6825561555432053 -0.15245536172066004 0.8438360575340306
Ni 2.1251218194105115 3.033046403114285 10.260103024616841 -0.2800579260636983 0.12195667891117061 -2.046844428066423
Ni 5.732369627909501 0.1599179744970757 9.77555850922549 1.733193239428312 -0.8562830250481317 1.1732239401811086
Ni 0.7778438775700803 0.2647632077870561 9.744645194496655 0.6990520963156993 -0.9557507788281668 -1.5144869769992175
Ni 0.9620617132914702 5.377841646483117 3.113474591219669 -1.0907966868231278 -0.9583468216901173 -0.691309476255803
Ni 6.662810272553288 2.4619048011369595 10.976254197255292 0.5574992404401561 0.5162736581314656 0.6447128594431865
Ni 7.751532966407348 1.0705405793816418 6.119823512081001 -0.29864237393410503 0.41535503083751696 -0.12824585435399205
Ni 5.890614475862542 8.51603740316526 3.029026807270306 2.0853700949454477 0.7185372016235044 -0.6026663238950976
Ni 8.33150986697741 3.509417802291641 8.189765636669874 0.5739566146652308 -0.40730902060458885 -1.2964409738619416
Ni 0.8190052086350564 0.8291193004451611 11.965244040594557 -0.14265945867616076 0.2909231509129764 0.4768807581561399
Ni 6.384330961224583 1.9164134660214904 8.308884062328561 0.1755675222580912 0.797919240397258 -0.05663343222332827
Ni 8.099290319017404 7.164859839535424 10.363321632934328 0.1558042235882349 -0.15324057662611676 -0.07951316503497918
Ni 7.589809800903061 8.20949904356889 7.370557681182899 -0.07293911136188728 -0.3073517287826449 1.0565189965871804
Ni 1.213523611555021 4.520324766329475 8.623143542863549 -0.07859193877229045 0.556435317952016 -0.35542698702331693
Ni 1.2209080611156862 1.343002587352978 2.9857264039144575 1.3014014031910104 0.13199349432188234 -0.022572485983877254
Ni 0.6506453388404799 6.400011291148111 0.7230808368294461 2.7702847234185 -1.38466683617957 -1.206989723777644
Ni 4.814670413867869 3.753309244708364 12.46555165870678 1.0133555738258289 -0.8059071436987411 -0.8643855995506081
Ni 7.879998207945717 0.42751312799096114 10.795229159435888 -0.10536380754949595 -1.571820520613364 -0.5845603583230062
Ni 6.311360695162899 1.8326176341051286 2.866894427936462 -0.09363932002371615 0.607907774799695 0.5117171491090349
Ni 3.0434162535678637 8.415194095122073 6.117564465735554 -0.3039164778488508 0.3050336221724295 -0.4095782762547398
Ni 5.62904313594604 5.3919967248601095 5.278251090777237 0.76855081453747 -1.996838785572258 -1.9435084495802337
Ni 2.484020948561722 0.15866615219119978 13.485018632033826 1.8499583468362137 -0.019636543284004892 -0.5584886009366188
P 2.949362174969621 3.0581944530035017 7.900988087307764 -0.2172718439754129 0.19250312167116523 0.5357263675394387
P 0.6996654354958363 7.991508976500342 11.673336005436326 -1.8775038605546501 0.7519162913045825 -0.05412146443475196
P 0.37840932850683157 3.068341095913685 1.6173451188774208 0.3610970408249007 -0.11352474609373352 1.746379913321915
P 0.4621530786630679 0.09546493627878808 0.5734304093285595 -0.757715928705495 0.04421834638842707 -0.01300206868662277
P 5.597849881756531 1.8749619651501004 6.345659324299897 -0.5479933578322498 0.09639502839198237 -0.62480146523124
P 0.20462272531345402 3.6233931541379247 11.794686506528965 -0.030301736307334914 -0.6129836466607056 0.1257997068063446
P 8.907971248738992 6.251429469761231 8.402411743136962 -1.2097456892562264 -1.1704471487669197 0.42630021699511095
P 3.2833271614607025 5.1920120662921265 4.542511596142979 0.09201515415673185 -1.186891410365872 0.9202078487265506
Ni 7.056864589789276 3.5767613781968994 6.113031492541765 -1.101310184759942 -2.8689904022215305 0.5951322203015815
Ni 4.929259586458491 8.844580306414693 7.843301027748649 1.3020516351804996 0.43615936917737785 -3.9412054693877283
Ni 8.775878884620447 2.1058143669068077 13.491701837895656 -0.10902994354717352 0.5999869772907215 -0.3857222955727486
Ni 8.380857334696412 4.674923891073724 0.8960257615779368 -0.5613584662852461 -0.17813682564716418 0.23336617843411422
Ni 6.311983816221544 1.858984025168712 0.3355823111492671 0.02284322314676066 1.6731263560434022 1.4025192909799586
Ni 8.710023359004492 2.817511619023088 3.8122174355361373 -0.4496949417699675 -0.10518280188694143 -0.6209280983187628
Ni 1.0524793689952294 1.985012584358348 7.90720906754848 -0.04198482907221802 1.2255582308084507 -0.33350267614639983
Ni 3.102073335909317 0.4480221811032765 8.427090127153617 -2.534201403163539 1.4651377371421284 0.8807740682109606
Ni 5.7076028909069185 6.961489866559277 8.66205977805454 1.5619086608162907 -0.4591445172186415 3.1958542328951736
Ni 0.3562150584418808 5.771895963719105 12.005141458945056 0.14865989923396977 0.2939624519599324 0.3025280821417564
Ni 7.544098756078543 6.062753993391947 3.1821202111280673 -1.8095246643011997 -1.3740525509988335 -1.615791012657043
Ni 4.833512850656167 4.116923633213803 7.214715104415652 -0.9199152571867963 -2.0639330081175937 0.8051520107002714
Ni 2.6379318500471682 3.3966700919340322 2.0947841941373513 -1.3760497839345205 -1.001086526650489 0.14704627488994676
Ni 5.376390797451047 9.257291054152816 5.215854352052481 -0.06420995901900554 0.33159286071819666 0.7103590366880863
Ni 3.245605086626877 5.765264839617401 9.795880626020212 0.8499876789577232 -0.7191331833362906 -1.4924004295128233
Ni 0.5477076000150995 8.925316334923677 4.760656978460472 -0.3382895560120819 -0.3292405584359362 -2.4257224470238286
Ni 1.543015146863886 3.9347583768602203 13.591858782742904 -1.9955030974799697 1.189114643269436 -0.02146536896262755
Ni 0.5255179801073029 0.045100944205905186 6.852079108975429 0.46636443200584843 -0.7062568415942547 2.4940163463042206
Ni 8.682661834309936 7.684152189244856 1.771228119419943 -1.3989305451874359 1.8615043998026004 1.0725703936230881
Ni 3.8815791796462626 6.305603800606159 7.499122436084366 -2.3183002142834073 -2.010531709678318 -0.08665594672734753
Ni 8.406582004072733 5.001216118260587 5.183199088453731 2.0454110380540067 1.1054895129486122 -0.2703180730681151
Ni 3.4543041397015903 1.7384798526781124 6.072944347779379 -0.4748380166944984 -0.15306265628735574 0.22934985818586953
Ni 4.942187023346809 6.094040250724539 11.902234411156893 0.29861126358585344 -1.236584149605309 -1.0066910173214598
Ni 3.9499457901254167 7.991481075557418 9.919491103489731 -0.4519955648786861 0.8084319670031238 0.4592298778435962
P 5.451100222288354 6.899438169495352 6.472945285983994 2.405550342951328 5.200065399672103 -0.05142412010824692
P 6.184653213028768 4.620619355828481 0.34485100438876176 -0.3887757376870917 0.3062849780810274 0.3329720004539104
P 9.13826563163721 6.8808654418219914 4.206678176507392 2.8905300760655184 0.14121681269236325 -0.40675520498364787
P 3.0214117099147995 0.0694240562159897 3.8192549833731086 -1.3636897197072706 -2.4459061210605553 1.1293254390259453
P 6.777213438857746 3.9497876847821782 3.9499020786481682 0.7182775202042146 0.35740056580991997 -1.9949546811756673
P 3.163892525115539 7.232491725184236 0.6186401672118699 0.19822485464629086 -0.19366963117544064 -0.6784431618160961
P 2.8230081047792 5.04005423081139 11.632010058808095 -0.3535739929749781 -1.8332790864083204 2.3214153628736214
P 2.3889624360182 7.555305634819853 8.077671738408126 -1.8919246639656704 1.7965799312150736 0.982543730651295
Ni 3.2143932318087516 5.847014602385971 2.5364096190594876 0.37570810586985615 -0.5140499110072695 -1.7142763479191507
Ni 7.386932744585245 7.547921185259188 5.057764819348385 -1.8419681295418857 1.220500356669569 0.7967753566008019
Ni 4.701987805710418 2.0139551624852867 9.995499782235886 -3.1469055709106124 2.375478463266612 -1.135149244796574
Ni 7.183813880095418 6.675356396554971 13.339303167516713 0.41790942182825447 -1.2920114773356781 -1.1045621160383365
Ni 4.888552110731752 3.3012488671324927 4.544607886988034 -1.381121542030473 -0.2421580656941313 1.2551652550416061
Ni 2.7109579179947016 2.59081645776212 12.305203079657234 1.672769486924616 -1.7208576006810943 1.6412063674063542
Ni 1.1047285347783729 6.842687651587067 9.93447762996587 0.8360998652320374 -0.1934657426947507 -2.3077574057705545
Ni 4.630347484594798 7.103710272959389 4.166591031745006 -0.539442125828129 0.22572871649351445 0.41866249794419513
Ni 3.592823021007061 4.822222269086081 0.5114456745276528 -0.12897039122484238 2.1011859789317815 -2.169988699527792
Ni 8.395403026274346 0.8969771837316597 2.0886041352795908 -0.44505898565985286 0.08427844763410647 -0.3957920211039248
Ni 7.569721121997474 4.627808498788675 10.072693321024897 -0.12900767222068102 1.1166591564121866 -2.9268494793218434
Ni 4.84460812562578 3.9852590835534327 2.1700172266702067 2.170747432070687 -1.2251175437266062 0.7270151571875285
Ni 3.9600831327212918 1.7337459926952679 3.2358732377348374 -0.036302176865143934 0.5331025567633463 -1.1138034321309462
Ni 6.7397796737674724 5.383868250154794 7.490220175228612 2.5197687726779763 0.3962350221786144 0.7583946999400745
Ni 1.8050980040673357 5.080343192394262 6.2422361090676315 0.4973444253271306 -0.23056110488515133 -0.1639224818199951
Ni 5.008637769078486 1.2545565982825448 12.19788582282415 -1.5572277104008536 -0.7347773176314507 -0.23461110658480885
Ni 4.739858685573173 8.189103454291134 12.725784683394338 0.2828794546728935 0.7263091322594394 1.0037787287706712
Ni 7.081147710447835 9.29206492935096 12.903135167030594 -0.15833701731241764 -0.7492135476614388 0.4009362843090256
Ni 7.472281728991068 4.511331362393501 12.145004235668054 -0.14114045092847305 -0.4731161489073852 2.693694902677903
Ni 8.917252962418518 2.3147459278392244 10.220178635354848 0.8085780056626849 1.0599300791512583 -0.5247017342941609
Ni 1.8071068719578942 3.299351603013631 4.522148557965301 0.5636385205686745 -0.021996044655116957 0.02707320206770821
Ni 0.278616025949034 6.924883829442429 6.485182639550647 0.478114373452925 0.5643597150054152 -0.3773386994947437
Ni 2.655788453518802 7.259806748307249 11.72272067441256 0.6228425417326564 -0.6368231722824645 2.135213500830136
Ni 4.105502847243405 9.04660173381616 1.7238857994657752 0.29264013360408314 0.34714212130670535 -0.7547876993151065
P 6.582009141844147 8.045813511745585 1.081337314261964 -0.5240790131084975 1.5220791875241786 0.431938646227811
P 0.03158665748474363 3.078915553282043 5.895634785526077 0.5643368321872797 0.044693229142316576 1.5413652894473002
P 3.0083447683118596 0.8954947136309418 10.82380065502193 -0.5748184484448939 -0.6112193556714313 0.006412845504879278
P 5.4331971172451805 4.127972406611876 9.859448274316364 0.33477254399775896 0.4106658528919638 -0.11908244268716908
P 8.246105080685737 0.88110061717623 8.40871456614359 1.3595497293969683 -0.4557578601345958 0.5734303098481156
P 4.078708641721646 1.9285596765079243 0.5846261276927012 -0.4657003160592883 -0.1736574497195719 0.4387412709719412
P 6.187415406378286 7.754676472643499 10.94983386436872 -0.8356116127417094 -0.10302744610683547 1.1526294038592084
P 7.530910910389596 0.4010825647586516 4.060131263891132 0.2125214737746211 -0.24706912984250354 0.1252309787870682
