# total energy = -340862.86083556834 ev
CRYSTAL
PRIMVEC
9.35066007933634 0.00000000000000 0.00000000000000
0.00000000000000 9.35066007933634 0.00000000000000
0.00000000000000 0.00000000000000 13.68563620531517
PRIMCOORD
 96 1
Ni 3.2096234738337115 5.410497722298288 10.635299748067766 0.26192522101872956 0.6237514267001709 0.217198053314684
Ni 1.1521228986411491 8.866230573326249 6.083265569826247 -1.5751390434636354 -0.035901598992615594 -0.02152913232102744
Ni 4.4669319493767645 4.006075309392123 8.592294566360254 0.11068239154893195 -0.7976140504520135 -0.5550860030129731
Ni 6.834565872342946 8.791219576979278 2.5110132066343334 0.31524784370127 -0.5616009213133554 -0.7551736218996156
Ni 7.869001361357697 5.469780908142192 1.4599700099890853 -0.7207442365771523 1.499097639027341 0.7212623138641513
Ni 7.156752221150129 8.946702355246224 4.912733091328715 0.23994306032068355 0.6363560028380589 1.13955997226976
Ni 3.4260725567855532 8.665939431247951 6.614596265815359 -0.32277243421308927 -1.32179539346633 0.6773977512707173
Ni 5.581352985979646 7.022747909426315 12.527585377828347 -1.3992894711887514 1.7461382296247543 -3.0466351187236236
Ni 0.6737206798051666 1.8739377642616997 3.105572132017433 0.3180894269151231 2.2660407427580584 -0.3386790781410167
Ni 7.44220917658273 1.6998752241222257 3.5905637611159076 0.3136627586023372 0.1321683293368498 0.46864782872338645
Ni 3.0291837834189157 8.715273514609533 10.886157390525664 0.4603503646012846 0.26220315727046456 -0.9754927373417847
Ni 8.38309131001889 1.288558382024177 1.3388013495598967 -0.6123203020450938 -1.683337235138133 -0.00665144387824661
Ni 2.180302795963538 0.9642307320248404 8.627753205009885 0.15026915270261862 -1.2405022537127925 -0.7140130885009057
Ni 0.28272843277814447 1.2603006868159317 7.228233343261127 1.2621157182175102 1.8991564058274195 1.5441024858728054
Ni 7.124595300626915 4.239495840657322 4.906492460692717 0.07346747306153155 -0.44470931562991795 -0.43767117783621406
Ni 4.2848558934221135 0.9752271084526686 9.351873943442598 0.6239568578427577 0.45767795997544397 1.8951827658916525
Ni 4.889591142331068 7.725870805251604 4.561956163809178 -0.20843753351323457 -1.1524111172008151 0.29062567427721564
Ni 9.345433208677727 3.191819816760085 0.35442274994233397 0.37838899513612895 1.4090388372660314 -0.2561055290131589
Ni 8.307276156892334 7.692975182570397 7.108894607038508 1.3140502023032725 -0.9008109322571777 -2.239590004765698
Ni 5.777651396140697 1.5443643938745981 0.9898496709168163 2.2173211660651684 -1.2910321441415444 1.329759385508413
Ni 7.692414142956731 2.1894477416662723 6.249409035818845 -1.8269282044896278 1.2138478843500577 0.28381276512044024
Ni 2.3105200902951153 7.896903731477288 4.299643962572293 0.1723310175986645 0.583200244750686 -0.4615780663607986
Ni 5.1622470439118855 0.5534169554470445 3.613486904664225 -1.1328892451178036 1.3715976617004377 0.023697343616939835
Ni 6.62995472523943 9.025808940772945 12.951264727813497 -1.195126910901787 -0.05563018776979451 2.272862136555266
P 0.8030992199143152 2.4818989909492264 11.87361703268827 -0.13630009211703623 0.7889111233613768 -0.8362032235791211
P 4.411519936867148 0.5061633939861349 13.404588475918668 -0.4512381178873712 -0.49409326537968445 -0.5903707943571961
P 9.122812689975573 9.234581131677809 13.153019248217438 1.4480424722227383 -2.8760887038292084 1.8554911037289852
P 2.7780063483812287 2.8620687838286565 7.701906933219939 0.6582998540990018 -1.1973300892006928 -0.2788104268098424
P 3.0165136388103213 6.002768541123659 5.017784018723339 1.0875583823914883 -1.3726302167300104 -1.1607420056640139
P 2.4344630916138756 0.5473352860349191 3.1538823180840776 0.6205992542244344 -2.3396141452698354 -0.47681159548110136
P 2.175580712548527 3.0206653319514403 1.6690732142660107 -1.1209205027917017 1.1130961216512767 -2.5402252407601154
P 5.132811165514944 0.1051865119679267 5.881087464513991 1.7451810079178074 1.4292114555591644 -0.16286601553102273
Ni 0.32471663746481083 1.8739284136014718 9.68005593558781 -1.3891431267833687 0.6927762906093166 0.12640674426272425
Ni 7.15115117567371 3.427606065062904 1.866939730147255 0.8100296505075469 -0.8701494986175788 -0.5715672884974479
Ni 6.02714571233739 1.534536849975238 11.844152167244621 -2.2313856145780346 1.1088751415913936 -1.3512067567489117
Ni 8.269340528348373 3.556299201777359 11.29263433088983 -1.0082979567972636 -0.13276842481469392 -0.822008677246294
Ni 0.7564366201797991 4.88626230728999 11.315899708602485 0.17101127034597643 1.7678761355224781 -1.140049767421985
Ni 5.214386325341791 8.324817995479584 10.547711178648456 1.4924364249570814 -0.250503095224717 -0.5343521128997314
Ni 2.3191788016660073 3.092955286172137 9.922045411885716 1.1684213765861426 0.1972462927831055 1.2175929532147869
Ni 1.8447076003897687 7.923094930775202 1.6984417679093122 -0.7903802517077356 0.244336818513005 0.3886754646638016
Ni 0.23807061459645698 6.259350657772983 3.1052439238434393 0.11605779692823238 -0.15697176153377482 -1.1227148756879632
Ni 5.1494272887396475 2.3335975197371903 5.480248972267153 0.47427340244027993 -1.8014496006025493 -0.9168461313431693
Ni 7.575605695391741 5.62798472853541 12.583381702473325 -0.038090636224134396 -0.6946943335676359 0.29603553243887726
Ni 8.054041576604543 8.177133667842579 11.505035513029084 -0.4124268014471284 -0.5628777311432499 -2.609457592694377
Ni 8.147202204453567 1.4879799127012954 12.53966923604066 0.6831770769566556 1.6380490527242952 -0.7169012086819783
Ni 3.3960756387749473 2.4614116943902373 3.1410999655527507 2.3087153988084497 -0.8287261984757858 2.2282843499448917
Ni 2.7082878257231613 7.5176222513194935 8.552756234653257 0.06857723484876577 -0.30264738132844005 0.9863080827897335
Ni 2.5357307418803545 7.973635249306164 13.007964326236475 -0.31944696938428213 1.6197134876399009 0.7558752759523305
Ni 4.157368991877037 8.677973730961059 1.6386910490540216 0.3179747557141298 0.5511100490843605 -0.27140256438154553
Ni 4.890666468257258 4.56742349484434 2.1007043657088356 -0.863721483604048 -0.07634967970533302 0.47257853123636034
Ni 8.467452966593607 5.128388303227221 6.752274451942654 0.26619428070772866 -0.029664874054284394 0.22888268874146386
Ni 7.337593989954719 6.580471031314203 4.390667029493254 -0.13959444659759188 -0.09730082803570339 -0.5818169912499142
Ni 3.6150213480075974 6.589531821074888 2.8002450236008745 0.10197715046545018 -0.9808483452267429 -0.1328419583651067
Ni 0.8418090831251341 9.513829248719187 11.181041681599876 -0.974080173264974 -0.9168098787885952 0.12759330837165767
Ni 2.5210315040023397 5.099064632753013 1.1116485658453548 0.059786633140329296 0.646133393939797 0.5052405402457557
Ni 2.260466006095996 3.8993188215719576 12.760296193982262 0.7009891654374121 -0.3008242120767722 -0.06655377666083376
P 4.981601638972078 6.564986337977058 8.907734413813118 -1.4987286857236963 -1.0382621072595217 1.2548346111750648
P 3.497474198284615 6.187116807513652 13.097345417221444 1.226702628825539 -2.0621797728719127 -0.6840877616963831
P 1.429211013169918 7.443247099868009 10.382101635354863 -0.907567791365037 -0.9150185912161274 -0.17151854899969815
P 7.908966083171079 5.811416630223085 10.51738418233181 1.5113571731209843 -0.1070126560068286 -0.4281629812354626
P 9.15069635877471 1.1261093618875624 5.191892377097929 0.013848218737001958 -1.9788955708302756 -1.7465704320661661
P 7.275075475672016 3.3964029118829187 13.214645709514414 -1.6447166945524578 0.5046941808239824 1.0866896066332898
P 5.828949118150106 6.784156463055173 2.7273828089742396 -0.34995979326115856 -0.3605306267984694 -0.9096627262208528
P 6.360842723884927 4.030433779285399 7.017720994487879 -0.5760708327947562 -0.5088516546357816 0.16401915529885946
Ni 2.006193502522925 4.856966688796466 8.260664050723049 0.5852712683471017 -0.5437631218009861 -0.159741353859112
Ni 5.11433426090492 4.611334195273831 12.40555084626207 -0.7859224730466982 -1.3668742880828395 0.11479795637920229
Ni 1.3882364200519393 1.2420014447502346 0.6222172432707468 0.254539984298252 -0.7296713638634531 0.5729898798765873
Ni 0.48775848945986433 3.1153033641164476 5.377250514792518 1.141081808230925 0.8495994423803691 1.444922695646834
Ni 0.32451185800582316 6.22573503425424 8.793075683034486 -0.9174505976963877 0.9571463736241128 0.8882202400763605
Ni 7.723112360484419 3.0397313281558116 8.898565156393792 -1.216315372053944 0.3229994626222308 -0.9778388689764578
Ni 7.630905499978625 0.36790733705676515 7.69365404050293 -1.6329556973617876 1.3681336144112373 -0.01829185633065237
Ni 4.856265389279384 4.409930324628431 5.036040247751988 2.650767507186757 4.394961982821579 -2.219738003036777
Ni 5.859778244920982 8.211403837577265 8.013022100317471 -1.104463899897575 3.5512843052422842 0.689166204660555
Ni 0.19889041317618247 6.9600143299583745 12.835676541408228 0.8772591130791667 0.7044768668756964 0.1259768558141572
Ni 3.869237747619302 5.916022466190869 7.047555211010524 0.689723876936238 0.2784201333499592 0.0030297879652592978
Ni 0.3249363779801628 9.052318062518603 3.5350133588349197 -1.2450345943655075 -1.9353271993210217 0.25773843663089163
Ni 5.8346343195685755 5.886268665346184 0.500768063034726 -0.3398867252958727 -0.6668436299039547 3.91436135261169
Ni 6.140690779482898 6.738123162753984 6.5013345236747515 -0.01439277838656231 -2.168023862491937 -2.024654265122629
Ni 1.6274263086776573 6.650975009431401 6.492246616999406 -1.0110366958846653 -0.6411246278712959 0.6453108980385015
Ni 2.658065429639943 1.4191123001239534 5.837745284226346 0.15401679267050894 0.6216503211967681 -0.08009654834227495
Ni 4.10473412545506 2.734338765117659 0.32614074301749635 -2.273409010197672 1.1366016609723846 -0.14573244117452966
Ni 5.929954949930209 4.857845650857874 10.205392858370937 1.0761038606976434 1.0742938040720984 -0.24647803322572392
Ni 1.9987316756611848 4.297965519061412 3.6286368443652175 -0.5722267764583177 0.968469511946416 -0.14969373981512282
Ni 7.175565749528353 6.377010015418699 8.534883382693945 0.3448124447322642 -1.2542142039822464 1.6277278733039449
Ni 2.5090346069301424 1.2751869378985017 12.250451445064462 2.655068962775589 0.48552866363912517 0.3801861962458678
Ni 5.487846383702196 1.59958939317966 7.614004181616976 0.836970697872765 -0.01311853965982902 -0.20633180002414145
Ni -0.13052399598704742 8.794922438429467 8.972070696444096 1.5129849385323944 -0.5943611464635119 1.397963039067844
Ni 3.084885666395593 3.827683413567203 5.7787875013583685 -3.999470009456577 -0.9462191851886478 1.6855936352724779
P 8.66217111517617 8.061531455446968 1.6624351805703346 0.8438977640099015 0.07743674212192471 0.020808966325551258
P 7.012181663368964 9.487927919888334 9.70887747560779 -0.37696280421256373 -0.2810796824599933 0.7655840185996622
P 8.755780574716125 3.7140541904796454 3.684104960836201 0.620708526108789 1.1610590226838005 -1.8047254431403434
P 4.923758454803249 3.0271827421301785 10.65232449514442 -1.225511179620599 -0.3080942633756243 -0.3928349953581299
P 0.4008787000858169 5.607740549142343 0.8253191938135057 2.28081147330933 -0.11693968531255346 -0.7957551428664038
P 5.597567030814556 2.93014159028664 3.2220916441813867 -0.4774456295206745 -1.1503709468423349 1.4648104357096965
P 0.01042879135200404 7.04897651136514 5.033262166598324 -0.024943557319215107 0.9835765427911835 1.6534473895572364
P 0.26982358659783356 3.516250324021927 7.95602141063516 -0.7238853533092953 0.11652290949010902 -0.3573830823084232
