# total energy = -340873.58103426086 ev
CRYSTAL
PRIMVEC
9.18931088358642 0.00000000000000 0.00000000000000
0.00000000000000 9.18931088358642 0.00000000000000
0.00000000000000 0.00000000000000 13.44948534790817
PRIMCOORD
 96 1
Ni 6.238981567973171 4.96010516697864 1.0034727526665435 0.09357324267247111 0.5487790869583388 -0.8317580433235741
Ni 3.044161407704681 7.726069375835088 3.949750539362719 -0.14468240264346052 1.7159249392661673 2.0889133322120155
Ni 5.494969009185198 6.190333355952872 4.770088595736525 -0.07388861975935017 1.3488009755208965 -0.24864701585258467
Ni 5.419175572701739 4.20208809834576 3.1153849998667007 -0.6513856434776717 1.0232414654809732 1.2819710623805405
Ni 0.23434764499132527 0.971723683431535 6.357599031214657 1.0476772299258343 0.6968849134610514 -1.2897905584249594
Ni 6.51013056534434 1.9329807417230775 2.7378044844675173 0.7309096071459283 1.8654752115248905 2.2759675149534675
Ni 2.561419337046883 0.358349125501926 5.617163871168561 0.676773230312841 0.6762371553037128 0.1335819218549248
Ni 0.07409433289400738 4.0512455595635135 4.813678092094344 1.5127913344643493 0.6654578053000216 1.2515543977618964
Ni 2.1424418948758355 3.672508109919268 0.42365112570590274 0.6494490885765911 -0.3096055578138281 1.072101938627102
Ni 7.3906227699437 -0.10684687488168222 12.670881691577577 -0.34867809833525754 0.8456278593271308 -0.6270020724269847
Ni 8.868824514144185 6.85287348410768 8.030176755758582 -0.507492826615042 1.1028353631552168 0.2780031004171986
Ni 5.8061650235538105 7.302239977497302 10.433559242502499 -0.8102811043967207 0.011524198589515637 -0.949840841101635
Ni 0.7324992711339814 6.637338196435576 10.133998733623137 -0.5661350617382831 -0.6722959112677777 -0.3650012609753133
Ni 0.07370286824873636 4.676725196770482 8.4786500481266 -0.09466287619222406 -0.7314320553083017 -0.6580561135193118
Ni 5.223544332486372 3.8413157515537404 12.243940792561649 0.9816286750361934 0.7273527430326053 -2.715939058788084
Ni 2.9771713310843593 3.8726972483518747 4.189165170396355 -0.5937122000256034 1.23644993802029 2.070741289288679
Ni 7.150864458681587 0.7791910788590177 6.643157787042387 -0.7744437829831372 0.14564990876305237 -0.20521671258309174
Ni 8.707414267801806 6.282639984162903 4.041153858309133 -2.751591517884371 0.9732720755413818 -0.7404304021521699
Ni 8.236737762384402 8.999018671285024 4.459688375693746 -0.48643883415822026 -0.42082839524726234 0.7292838986170471
Ni 5.623600983469321 4.2758139398718 6.017299550225438 0.8350338858613682 -1.4452268571508142 0.3367391808058265
Ni 3.4238913029284865 2.1216556735706003 11.802259319895976 0.6188935843872373 0.8201947639660068 0.833407920222171
Ni 2.7009130768406386 4.901789799868549 11.427059754956645 -0.5547692431035026 0.8839637787928517 0.8563254482502929
Ni 8.98755960056547 0.050993324167556614 8.45083584182833 -0.6327610863979489 0.790532975235516 0.15749189570330296
Ni 0.16238982688664913 4.125155187307991 10.709516087347982 0.1873074364028387 -0.361971473010054 -0.2668231725409792
P 6.496842821751338 6.506105647160568 12.348900182979982 0.03830583755873403 -0.4758433180305611 0.6405399590124194
P 0.9233879079825789 5.401881289546809 6.56843306741914 -0.982284049232005 0.4861408433018272 0.04227330684691429
P 4.443132913136933 3.5613817729412776 0.5657031696603029 -1.518724669229649 -0.25491202292569004 3.4725237021026127
P 2.779564389020794 6.883767947426956 10.02568983937379 2.1606604801483305 0.4466535838404824 0.6506888745209632
P 1.469582170555784 1.4740114184201178 0.8690368096041764 0.47939863948198735 0.9385169314483837 -1.2833381179313963
P 6.579546620048031 5.6774687240932336 8.846224322862975 0.7026737522286866 -0.43873844275846374 -0.26918293102240737
P 0.7269617923724717 8.079637302864374 3.57640629629851 1.2141703006864832 0.007409662200509819 -0.6349038437725646
P 5.135602626964222 1.1030021792611526 7.533446716015537 -1.1420439150338781 0.18640009409722091 0.39900718560711285
Ni 4.5475969996965775 2.160756191543092 4.950446282268677 1.736242310667281 -0.9287688509226844 -0.7865511077696324
Ni 3.2255492159911725 7.265372462078821 6.574485147592274 -2.7231201499175555 -1.3463856812111845 -0.599244185587426
Ni 6.160440527524078 2.0858816861518195 0.06366078927333345 0.09144205526208123 0.17914598363796888 -0.03126358599997196
Ni 6.019246765209779 7.758176828196049 0.6862696857483144 -0.28121852203070274 -0.7264454007269876 -1.3465995969942033
Ni 1.6309097130998667 2.403519407476652 2.889527359236077 -0.1685844060720387 1.2279151610764012 -0.2791981491665643
Ni 5.472023299813326 3.3657964792805206 8.348633244686553 0.008825311601113835 -0.5114865211554676 -0.2008692342476734
Ni 7.504046434652155 5.634177880340376 6.5233503080365205 0.1717113817367946 0.48778274978062436 -0.06872970126623001
Ni 4.37459903228174 0.17970892118106888 13.081332372144235 0.439650670160088 0.22349057119161508 0.44900717167432347
Ni 6.978408660611138 3.3901757211562007 10.37739417414812 -1.0629261856651049 1.5097744020148967 -0.5560817912673391
Ni 2.577289277008926 5.02565252178423 8.744707248315969 0.07126609453483855 -0.03268309205531791 -0.6344037642076945
Ni 8.659262278571287 2.0610429787300455 3.867318744669313 -0.6381645168017074 0.3090376011255 1.5178276113366762
Ni 3.4107230203774686 5.660587959929787 0.5594985469258665 0.951570165087916 -0.6261330395584701 0.19781296391985287
Ni 0.1279023429969281 0.6713499205355908 2.2597553948975104 -0.6512051520357495 -1.513869655130193 0.4385044723707867
Ni 7.828842629185113 4.496293076819863 12.60212726726026 -0.7693018337708816 -0.36313566852148427 0.5471562066429351
Ni 7.69738953644798 4.157630212105826 3.052077999063859 0.5948563409323756 0.841557288802183 -0.37457039272098713
Ni 1.398254739180347 2.2800977724852203 10.415267919112548 0.794726187381257 -0.9848106723086006 -0.6519507719525224
Ni 0.827398203955068 8.319597778966768 0.6179967813233019 0.9348448819134351 0.3677847372577214 -0.05086310539845433
Ni 1.691136456881703 6.031128544231738 4.512382641312938 0.7797914204482957 -1.9770135233162145 1.3804072895722679
Ni 8.059384061592606 3.1943423161005535 6.821875181574988 -0.7191496383965228 0.2044849766233898 -2.653777754767991
Ni 4.247014639442708 9.233879079825789 10.877016090038275 0.6660111067003304 0.2163588452428403 -1.4352625468492508
Ni 0.6041034621405497 2.491929767855817 12.608529460179515 -0.5417118956989122 -0.30958704587106683 -0.20013595562607467
Ni 2.129181719215599 0.2675302467301429 12.244263337375006 0.6660913251189625 1.4036446628336536 1.275517593445713
Ni 5.101050817898049 6.384080787429259 7.523534206324133 -0.9375491682184758 -2.1461417177068656 -0.5663739172219665
Ni 2.77840653584464 0.15733478694853684 2.0058161390207907 -0.6888134493068266 0.38693199961013364 0.25318089916719627
P 0.8488965968567472 4.786941791967207 2.737253125812206 0.1484200153090218 -2.2918978130304786 1.8952025633859944
P 3.396782835709015 3.4227058818195673 10.155356530067714 0.030114559997193296 -1.5521605802905913 -2.088644394821345
P 3.6973743852738066 5.691372151518 3.271345065901328 -0.10399315245421445 -0.1863604991085371 -0.14221902870463252
P 3.6766616784559463 4.9063109408421015 6.268751259635612 -1.2969122570714051 0.7002129493930199 0.6703734974340841
P 1.6404114605930646 2.326751904035477 5.1857450209404155 -0.4163690739243281 -0.20549953393083317 0.3983243006074753
P 4.272395516208871 0.37678380214225893 3.7758492626842624 -0.5175355555630248 -0.011970027877682612 -0.039834615498434624
P 0.7766548290445858 4.842739287884711 12.552189794917625 0.4561126723708532 1.1606293913455497 1.0442558629491112
P 7.365609465614412 0.7142272452969654 1.2542196419290106 0.2447890755590752 -1.1360074790318113 -0.2957352275896391
Ni 8.401345888927587 2.830261817376667 1.120612574711795 0.29776897019021625 -0.35785667951073213 0.4020763114507398
Ni 6.591988947036223 0.9306474636108442 9.250583409219535 -0.4061152574068038 0.8052818514099163 0.29830813052313787
Ni 7.890447769605227 8.092006115365189 10.220277173868434 1.6876980832099904 1.423819852229948 0.3643119482177726
Ni 4.866015812449768 4.9228976470560495 10.168577191690986 0.4182634627335635 1.490974495699574 -0.5495388479424987
Ni 6.0967218455919365 8.42563323769405 3.5239399255901804 0.3743842448521101 -0.2790377123293001 0.15119552117162993
Ni 1.8086034183957727 6.618812545617117 2.1176748640792527 0.4360544681683974 1.0333335596096527 0.3715213214820182
Ni 8.193492865186155 1.705554485718093 11.004772322991546 0.6928673076612261 -1.3267545372438183 -0.07255704543212022
Ni 7.810362924921263 5.807984507116337 10.603937337373516 -1.6799768033063325 -0.22349134252256347 -0.5631268710395786
Ni 5.042165713510803 8.420854796014686 6.051152052730458 0.9011863133187255 1.8032419166162814 -0.6042041006958627
Ni 3.1649732783943056 1.5175411842569442 8.973187518283689 1.362912475221614 0.4183637357568537 -0.32354376516147504
Ni 6.488434602257841 8.02403278247623 8.131384150527522 1.3360035666459118 0.49322988893812475 0.2229861207513708
Ni 4.19371663609595 6.964009010396592 12.098712922752657 0.7514005280104284 -0.18922059426515153 -0.42692139551887764
Ni 1.7455096096063178 9.038302975475952 9.896897971079625 0.015740807774024503 -1.0057870174499517 -0.4401684903367709
Ni 8.775258950337859 7.103107609820708 12.597971860861396 -1.8899156039554421 -0.934988349469835 -0.5580749104379679
Ni 0.6561829628590695 7.757800066448253 5.987589589083989 -0.8231307066658791 -1.478315669284983 -2.0220569367090984
Ni 5.100481080620893 0.6540730970714116 1.7069815857042572 -0.6121290119698942 -1.3631549302497235 0.10531804191322507
Ni 7.996510796265275 7.691361348483243 1.7145269289021923 0.8708372687132228 -0.0681108367353085 1.5445010068628044
Ni 4.338567744157147 7.413844158643228 2.1577145296279583 0.6103148415792908 -0.4908516185139354 -0.6918386092863956
Ni 4.015535897321185 8.299905085661234 8.662597998435919 -0.3076227230558444 0.013571825147163723 -0.09098157068589492
Ni 1.1137536730397226 2.4262261947645554 8.016713496326972 0.06177435299431942 0.32138455272662714 0.0961569442392473
Ni 3.99816809967888 2.5568890067624084 2.6958552801092495 0.12826539473801782 -2.130419936096234 -2.7304868746952717
Ni 3.5140843896264915 2.6963827465561643 6.824820355725442 -1.0612050892089402 0.6395603687079695 0.9448297610402889
Ni 1.817893811737768 7.21003443170741 12.13670796662125 0.5562250017134227 -1.5857175903104306 -0.21090142167269482
Ni 9.17447937402692 5.519182843464285 1.0798929001548723 -1.2519588322891664 0.06553999068433873 -1.91138225846965
P 6.49065841550093 6.317338822203827 2.807257296414895 0.870481685146017 -0.37984321108415225 -0.6955767361725891
P 1.6627414861331715 8.657507120185212 7.489709271751877 1.4755381065398459 1.1447597713031445 2.031401611148792
P 7.16118405484683 7.7736240598556865 6.002169349792604 0.2969037939764435 -0.22137815283430262 -0.5672758602109456
P 0.2093756925611849 9.225516806886901 11.592434270030713 -1.1717321861269305 -1.294205142552887 -0.5245847491003224
P 5.949711249464104 1.6038104351913167 11.40205655886937 -0.7351951218951597 -0.36604075798342117 -0.1377897892886853
P 6.843978231135325 2.9335496721383145 4.852749204271887 0.37345273417677616 -0.09817191778674705 -0.355389191806846
P 3.0793748471572284 7.812972689223069 0.3939825164636024 -0.4581862670704303 0.07397140928114357 -0.26703760254463044
P 8.19223392958986 2.5460639984964635 8.690600585608088 0.3139126698296142 -1.3345526931319984 2.6603826616790185
