# total energy = -381172.68143298465 ev
CRYSTAL
PRIMVEC
9.18028563245824 0.00000000000000 0.00000000000000

0.00000000000000 9.18028563245824 0.00000000000000

0.00000000000000 0.00000000000000 13.43627598059647

PRIMCOORD
 96 1
Ni 1.4612719929418445 1.1259895947874732 12.354992044872679 0.15996761093730513 -0.13701460168555757 1.711011304014634
Ni 1.2841567389143465 3.45098877765194 7.802673756161491 0.568564240005066 -0.10794159557900118 -0.6695659139311243
Ni 2.600995295292949 1.3651176794248168 7.557919074354529 1.2774096682621032 1.0719103914415862 1.5641295797270096
Ni 4.909111932562818 1.7487985443408616 9.751874267501712 -1.7348958239417154 -1.1907676054918266 0.08006286689086212
Ni 9.31606223161586 5.997150225834214 10.230784073125685 -1.401449712064864 -0.7453304105569486 0.5833347134460212
Ni 6.036377587077126 7.7555697096982605 2.6121869817172954 -0.4525185272616916 -0.09662385657333682 -0.41341693327453966
Ni 1.7230662032306623 1.1234007541905855 10.162688385141735 0.37037820901651053 -0.8785701185811061 -2.024576617807158
Ni 3.806431083433139 4.757903445075806 11.829283896302767 2.067996122443374 0.818487808577229 1.0140271459715569
Ni 2.0302752873946694 7.158144250394499 9.971772407464233 1.1400196855149978 3.2066973462572648 0.20343339543042385
Ni 1.2415051310663312 6.041637890843142 8.058755992622707 -0.4079957622589683 0.6203557707550607 1.0066521936637245
Ni 0.2791210817163563 3.743022849380999 4.931650452241609 1.2072265223787981 -0.010270528688072635 -2.006668627178486
Ni 4.843059776198963 7.919070599877587 0.2624065353519824 0.9088047490959316 0.768876573308005 0.41267285601966347
Ni 0.7794861332941806 3.347086302915858 10.188607086053766 -0.8918565512773673 -0.2565760408916743 -0.02215365327890378
Ni 1.3622717908254012 5.8988201845815045 12.360272545267463 1.4931355079066349 -1.2363249824066513 -1.597057955023914
Ni 6.101144503428341 1.7148682080071844 5.703161671257362 2.0630547192776985 0.40855754829970925 -1.8494659805808278
Ni 3.584626198109012 7.156813108952837 7.002234538546968 -0.7895788388523628 0.8183032033702489 0.6765271757403059
Ni 4.056896821039121 5.407977843468757 5.54425092398032 -0.6659833387861885 -0.6614458559271511 1.7396587925479972
Ni 6.383906486494789 1.6932853560806491 8.057103541177886 0.2856832426702757 -1.170087965655288 0.32052220472633186
Ni 8.084857381222252 1.9237380706326774 4.052797823427383 1.265432184185253 -0.44349755471000396 0.9107215065026701
Ni 8.113215284072556 2.2693482903171858 13.261631562760165 -0.27942209225191234 -0.9527729271467656 -0.8151857407871896
Ni 3.4503828787888384 4.81084615331074 8.026361518104135 -1.6448992428769091 -0.8041670210791828 -0.7879495307790558
Ni 8.00085776611047 5.149405913497342 3.107703006333148 0.8672765479451581 0.31104846090794175 -1.3899116295182774
Ni 4.567311531487205 8.137460418882416 4.6480649975384924 -0.07012503895185987 -0.10807889248781387 -0.7979971448230451
Ni 0.4755030015618977 8.349873871828471 11.229569791747927 0.043189648013596586 0.039529682663506115 0.24239332163338898
P 8.220900036560119 2.9575116945132818 6.3108708867194006 -1.1075849620250602 -1.4851365488615584 1.7052134663859342
Ni 8.630625372303719 1.3399545160345006 11.148790620896387 -0.359883994353406 -0.08761059733113298 -0.721205749594603
P 4.576647882150448 4.396888705811236 2.6607047921944282 0.7573752575366247 -0.30404734699976027 -0.9961368959546975
Ni 8.228969507782333 5.303524551584401 6.248338451933017 0.17984969457321284 0.31371135245208553 0.10882862616964484
P 2.739819577229601 7.030327131137522 4.721077646599369 -0.7300542011241685 0.18374311609034807 0.9203425745322021
P 7.293599367440875 7.628716520450763 0.824375894821349 0.18643197577642087 -0.772103821996051 0.16819231283994257
P 7.907861470910213 6.694227687546544 4.6034295299281105 -1.1364216837510943 0.6172480783640144 1.2486382525563657
Ni 1.4860863054715872 5.247726774464247 6.077724676312313 1.7268415861786712 0.6280114875281055 -0.625853046424206
Ni 2.1304046646650745 7.857672848416648 2.456433334728443 -0.87225137545193 0.9375442831224691 -0.5473922339131412
Ni 1.239669073905418 2.6640546784845145 0.9477717884348467 -0.6398635017706851 -0.19471812704461303 0.4067330934964608
Ni 5.084198343427507 3.939159655595559 9.475906613959227 0.7165142576562047 1.6070145520159937 0.6431144046078151
Ni 6.381078958466982 3.897930992047251 7.157840382934368 -0.9529104811658944 0.5316763658397812 0.2722746825738537
Ni 3.7445834979677755 8.634986008060888 9.125636481200319 -0.9160128368085967 0.5380961533231958 -1.6718801423411271
Ni 5.654780647038717 5.845941738347203 4.20387503282739 1.772795427200966 0.4905929655359099 -1.9257855783791737
Ni 1.9887895758438343 3.441202592984272 12.25135763448209 0.34423188963844586 -0.2570259839448993 0.015539490396495817
Ni 0.36124883655258705 6.072676437148382 1.0891243210820762 2.0540481449037142 0.26334704106692064 1.76861584190198
Ni 7.275192894402719 8.991346342422544 12.622964587507967 0.3755741513951532 -0.45281240435302667 -0.7769480374622296
Ni 8.41118900071717 7.725577715974743 2.8640361883940266 0.8031306093948685 -0.7205166939473785 -1.2371690755745017
Ni 2.6201178306238604 4.6007277718158255 3.9881686113632364 -1.3705609929058074 -1.1259359537284221 -2.0650681501633015
Ni 4.788519698234035 0.10555125406658175 6.617217942046359 -0.39207137771922795 -0.09638114443491143 1.3416669355792765
Ni 8.334019518243984 0.5498357757214712 1.9505977508396775 -1.1795149153961428 1.762761954224364 -0.09149579131815211
Ni 7.443256386626915 8.948557030287459 6.987643392289191 0.6490220283415015 1.4306016510384716 0.16637222891206832
Ni 1.556388934162956 2.1804464025857655 3.5026627703886826 0.005133464571823417 0.3265902652972827 -0.5950057220260462
Ni 8.525511099841433 6.7228793595425955 12.479909111843993 -2.297093498298805 -0.17807460495066105 0.30350510134304504
Ni 0.3074973451382708 8.573909566603108 0.21587901083727937 0.6816292728535615 -0.6447532257628187 0.11304292136130854
Ni 7.36950197047303 2.87128126995099 9.939606522062192 -0.875704624107853 1.0478178692687565 0.5832490957107505
Ni 8.52188488694863 4.530838255985663 8.50901871639353 -0.17586577022480035 -2.6603032145913343 0.43467121466762565
Ni 7.865365927920874 6.5385851220159275 8.214657442213014 -1.4043812838893621 1.5116901309803707 -0.12524871939888108
Ni 2.672078248277706 4.859373144073678 0.7305772426417729 -0.3761745039833134 -0.12213177103645417 0.8597825535609579
Ni 8.868789526931582 8.456668136592992 8.92312488452307 -0.0015411192348747651 0.8884832639297601 0.4024357516726876
Ni 7.872214421131081 3.0210484525666854 1.8477032714849373 1.5637362009433327 0.3491771494588632 2.0303975953643096
Ni 4.821256597413118 3.3049763319303125 4.540077295619378 -1.0237783118210497 0.17709861419063694 -0.7017527830763141
P 7.129749626400975 5.121011289503818 10.274182956238194 0.030693829539431013 0.19596974006352702 -0.07398375057631773
Ni 0.8232595720675137 6.378233069867567 4.003338115626701 0.48396466158611484 -0.4809729259476426 0.020886099420389836
P 5.1788562703583905 5.8174094100666105 7.576622070624172 2.054833616919487 0.7276736167071339 0.16809666780234275
Ni 3.8284545890782935 0.1921442999181536 11.184329343303025 -0.32235565839064484 0.5626669006840245 2.6372679300384254
P 1.2774643105628174 0.5682505110168509 1.7732658420671918 1.3146644388485036 0.6559544937952767 0.4053572961948568
P 1.6085237772470884 8.645295469019416 8.177236761216442 1.439649620173353 -0.4346416469812708 -0.6235580797424423
P 2.8126467845172254 2.9135105846519953 9.379703644927433 0.3867533079404243 0.29676289752320506 -0.19077996833247143
Ni 7.568282698999304 5.213833159273789 0.7141583014803061 -1.7390769519025984 -0.10998099460653316 -0.14157548158336264
Ni 3.36737473454395 0.86106857915362 0.545669762023359 -0.8327723435207013 -1.0047737456940888 -1.9875061953174227
Ni 6.363783300011179 7.144502345688913 6.139746687207962 -0.8724040989797105 -1.1740456647514554 0.654503620281363
Ni 6.01819144089828 1.6716566027250908 11.836459207687618 0.061032075511656174 0.7693920794918427 0.5657108297166709
Ni 5.029006465170454 5.4836692999274055 0.4361930177467447 0.1068481054045063 -0.35361127397081676 1.2216095305733476
Ni 2.2390808880195308 8.976474279419145 5.978068083760843 1.7741712245025705 -2.3169922941052614 -0.13038218397070447
Ni 8.692215909766555 1.7047882541937707 8.342059612551624 0.2047063486055765 0.576618220657794 0.9413459162567465
Ni 0.9054543429901178 0.04558379113399362 4.264284067507178 -1.3560293749485355 -0.3403639220426074 -1.576149487006021
Ni 6.220580021745749 1.330269314510683 2.96116728432066 -0.04448831222036209 1.0735073036150609 1.0454113167097931
Ni 5.920393856222235 8.052414251188914 8.545337763093556 0.4764357001989214 0.2494162899184414 -0.15474364353420447
Ni 4.386230393992134 0.2828299171814011 2.516991090038265 -1.51217298415406 -0.8955288579226319 0.07899997284398652
Ni 2.6566094666970113 7.2588795265280055 0.0232261230855528 0.317989153891833 0.9648568548944931 0.6718310558162172
Ni 5.9628618583541595 0.9530146496578346 0.7191588031580534 -0.24017086006077348 -1.0817386903859176 -0.24872080651331357
Ni 3.6936971737530646 6.309335024904297 2.894737818210238 1.3467921726209837 1.2051063907120019 -1.5177108832531538
Ni 0.1307511386001163 7.535821208394357 6.395815153240473 0.27775576029308296 0.3871083772869978 -0.3842889055603317
Ni 6.62743192803252 4.322675275367121 12.229591176839463 -1.2282393771850395 -0.7925255801855124 -0.5314326252600913
Ni 0.5727396707752838 1.1977518889217682 6.449600611712265 -1.441841485618349 0.8813571944079401 -1.5656758411682068
Ni 6.981754238945561 8.871690497245826 4.601588882624294 0.5346840423178534 0.1710740052631118 -0.31130248590027676
Ni 8.962749752141319 4.160927819776467 12.210296970164007 -0.4947789785927995 0.23424832392875142 -0.09451426642950174
Ni 3.5495391457639593 2.6829844278135306 1.7591979721002742 -0.23284630137490223 0.870557789799591 1.3336324953105743
Ni 2.4396058708486725 5.062385984355857 10.116642825631772 -0.5578149719083619 -1.8979459304590862 -0.37454262480684525
Ni 4.578447218168144 6.471559855356788 9.821232244783792 0.9561449289427919 -1.8477220013065274 -2.474990182910705
Ni 5.791732150671238 3.1056447862557643 1.1724684637874119 -1.0648437144027918 2.1294033219062616 -0.7246160608277327
Ni 2.6257637063936685 3.115706379497569 5.667017968016205 0.25580599549486915 -0.8671343659403389 1.7782708484932408
Ni 3.6184371907272297 1.260095209820578 4.601158327220061 0.2725785869675177 -0.6027144035242136 -0.27493397457357166
P 4.148304926795189 2.6625399313267613 12.43030251947044 -0.1325730209744362 -0.7424931982184697 1.0330463673865369
Ni 6.925653512393857 4.010270149437729 4.693694690101508 0.7338717750980458 -1.572935608054414 0.4910164262265737
P 3.8061281340015882 7.227914422509202 11.477253902755127 -1.6188061453342828 1.1641206923282597 2.708719658221509
Ni 5.856728574167567 6.721162646097141 11.920046627966775 -0.3520814675898517 -1.4117228118560978 1.2603519414488682
P 4.575013791277236 2.3541741311513786 7.001966474201476 -1.1236844386900842 0.24265994503121432 -0.28596117892201073
P 6.742157959732185 0.4533390375439332 10.146605442440716 0.2958483561287356 -0.1262874450760406 -0.6863341345283985
P 0.8210379429028086 4.178508067092212 2.570171567675537 -0.1307879040495554 0.34545676318448243 -0.5550631201948376
Ni 7.34779059454523 7.518176699077981 10.562646814817857 0.5884859186296575 0.5822687340753521 -1.610163896278253
