# total energy = -340858.9560592636 ev
CRYSTAL
PRIMVEC
9.37151214808998 0.00000000000000 0.00000000000000
0.00000000000000 9.37151214808998 0.00000000000000
0.00000000000000 0.00000000000000 13.71615531569434
PRIMCOORD
 96 1
Ni 2.7861130096897444 7.003433949276991 11.416243690499064 -2.453241478379704 1.8928443475664627 -1.159888399414467
Ni 0.19572402658417978 1.4839507990196366 8.323621325986457 0.3316113726609579 1.0022772045244803 -0.5376040441781257
Ni 7.446162915706956 8.113189648584887 10.632516331054466 -0.8681787480444533 1.4678826468771171 1.9294722832021414
Ni 4.181137532039173 2.5420038670292358 9.868265784846638 -1.24230819657328 0.3274096758747845 0.8614933656044775
Ni 6.413665960720821 2.5288837503321875 0.6413225499660278 -0.07330626489331891 0.4554421286663899 -0.43838363052220625
Ni 2.2118829879076505 1.0599367419068182 1.4902325234639449 3.173587965297805 -3.3784629782707625 -3.31313973158292
Ni 5.295054182642418 0.13881645756192584 6.444713779733194 -0.5279366962916908 -0.45178344886787997 0.22607915785439772
Ni 7.158204468742528 5.596751266091042 10.389232818594682 0.5322165546139672 -1.437644673928182 -0.4720152025337226
Ni 8.484891926124188 7.035278346803112 5.644513176624261 0.31728467162564067 -0.8819989417569972 -0.2676898914166487
Ni 2.4631894517276822 3.21392252913278 0.14868184816691343 -0.1451986801582467 0.31238594877244263 -0.059034842575969304
Ni 8.436019491427684 1.8057404040385967 10.37332186564593 0.013927665824685692 -0.8783204644641455 0.7337887284659362
Ni 4.022852695601213 5.138109472409943 13.37406030432434 -0.2637679306544231 0.871075609976274 -0.7506353677096298
Ni 0.05273912051736318 8.942915200018142 9.774914280244756 1.1682475700124397 1.9363245302372845 0.4889302331215063
Ni 8.786345350262724 6.920514811751646 13.151927357131386 -0.8345741726161304 0.9493124794019909 0.1531477598019943
Ni 4.289312894206336 4.238106953040142 3.937373261017559 0.0325265118727956 0.031090807867533553 1.5861186824035909
Ni 6.068372603790293 7.109247690438685 9.323625374821159 -0.4670151782159699 -0.1518588657872417 -2.6805197987485254
Ni 8.152531255652178 1.784673245227908 2.1858751680093302 0.6794497487037395 0.020857045954667308 0.7239077219067984
Ni 1.831287145550135 1.8863635211419578 10.723056382078411 -0.9538599895633572 1.558190331424439 -0.4771059867930686
Ni 2.0138348263657075 7.452348113578421 9.097801926231567 -1.8065452699579017 -1.466774501414603 -0.2531914406901575
Ni 5.266499185802487 0.7371575052284238 8.88717719568431 0.4595643783648795 -4.411256091995913 1.7302292717039813
Ni 1.8887907427309119 5.7349623239825185 12.891060076843976 -2.527783929672969 -1.53525403434324 1.9351320525910802
Ni 8.756534570824646 9.372823938132706 12.251324123847098 -0.7723437059209989 -0.91575161272741 -0.15403299062042505
Ni 8.284838261029982 2.030010055950783 6.04473671356056 0.22520806810335406 0.25868563103550934 0.0044978878703535435
Ni 1.1883170837874348 6.464590756529222 6.6717161645231355 0.9996621354991364 -0.0275182600249268 -0.08550974893804628
P 1.5986581049995439 8.945932826858463 11.421661361543752 -0.18156924836748087 0.8250397507631341 -1.7327875193494608
P 4.524144240059646 2.6192907258867764 12.870978801087952 -0.059415880064471856 1.9487884670322504 -1.1895499310346416
P 7.499280645306149 0.4710571726812774 8.653563209230247 0.4253540510317577 0.41080572090393763 -0.15084842224485634
P 2.594709250103664 5.260895021670461 1.5127822554614 -0.11991727988363864 -0.15656347035176263 -0.8248363765030763
P 3.0171488932128363 2.656729916032996 5.022156692495009 -1.3210821694493893 -0.48250890297619486 -0.06717238408143916
P 3.380098178612822 6.124526703253659 5.139031629183506 0.9125040523243898 -0.37876180509451546 0.6221601709536511
P 7.26884453854635 3.8107660091934297 2.1219989427185584 -0.13792554353560119 0.5263338705809452 1.278805005947733
P 6.311881969687507 6.707790862532863 2.686582867274744 1.3441791604781688 1.5263731869138422 0.4662322773033583
Ni 0.7134653859271326 4.13146851882892 2.231837748252668 -0.8809391330339151 0.11786348267840346 -0.7200662366735212
Ni 0.24784650161678168 7.025316429625283 11.081322722968745 0.4343194877551616 0.7083659175174575 0.02807464674902907
Ni 7.553166838883311 9.003239622288783 6.405101335971228 -2.519521432553861 0.924339611506737 0.8074616326700544
Ni 5.409321027561782 1.9675020714012745 2.783062582557681 0.23992274860570936 -0.28079917510509705 1.4398527373230945
Ni 4.574328686425855 1.1505780052595684 0.6264968180983633 -1.079401814722625 -1.6962171764245948 2.0111480031060784
Ni 0.875016194271465 5.008454604907327 10.55098792589901 0.41050027384837695 -1.655408112828033 -0.6938404702077727
Ni 8.25919780439918 4.736549557872929 12.12440854928059 1.8264540930666868 -0.672326507395397 0.8141063916800819
Ni 9.464196179415719 -0.022111145239296807 0.9197670380227111 -0.922821632200314 1.0611480107187594 0.4682580494841355
Ni 2.5109279334810846 0.3784647605454377 9.229093059716542 0.4756671974640131 -0.4911012726308962 -1.015276959218258
Ni 2.2679152577159725 8.21741960423101 3.3857370173389745 0.1517071707007258 0.24484178317388156 0.23899997968112383
Ni 4.728152683186819 6.460785922687077 11.268315311891039 3.936292605467144 -1.9937830294650694 -0.7549789893903062
Ni 4.795196479508735 7.925281462947377 13.182555332409454 -3.8004889933705512 0.10529695886730253 -2.1930692354963393
Ni 4.737758482911444 5.943872067847231 7.753344207934946 0.7574156238562569 -0.5458323456251889 -2.6079110741428635
Ni 7.430456261718205 8.69250840134305 2.7413659145432683 0.33506179310340356 0.025318938380762848 -2.2498425357316414
Ni 6.855663949220523 3.574632023182341 4.5943771618901375 1.36282505771413 0.5398643009672122 -0.8768793611422446
Ni 3.324815629758617 3.995169249370442 6.7624211541569865 0.8474428010486825 0.8044516421991371 -1.0280368299870877
Ni 1.9897406692027715 5.548272434895449 3.645575305616859 -0.6680782736420042 0.6322018714603693 -0.045358373530141244
Ni 0.5220016486647229 7.23015893731391 1.4768050211757087 0.6305026293810755 -1.671726390372082 1.9855195039046964
Ni 2.749760914926994 3.027729330177813 2.7700324323751264 1.3869276071892889 0.5339296806503321 0.2550115246180317
Ni 8.000656533371918 2.269264755433383 12.771180633431856 1.1908858762372456 0.5493421585506604 -0.9927283844937806
Ni 3.228101626677519 7.71307294688455 1.3109939235096062 -0.23686185029219853 0.9436393402766136 -1.2019377631760333
Ni 5.94716146853342 5.806279529742902 4.651710197553853 -0.5307006321900731 -0.5554819528998111 1.09617594885717
Ni -0.03061954091733256 8.651948497725318 7.451617135648158 2.9287073584661885 -1.1058949759171468 0.51375500547467
Ni 4.187332101422566 7.949684880003887 8.690788728904543 -1.8369981871311203 1.6973248076664769 -0.9332772803159991
P 8.631584202309114 7.087524525793143 9.086486762731555 0.2570591511756799 -0.8571412592833689 -0.2681362349254479
P 6.46570596644847 7.020761874829022 6.6455181029327095 -0.8839817765149809 0.8612943622197939 -0.3822723893509352
P 1.0245405413605675 1.9821497445423364 2.604506228671588 -5.308630487767715 0.30469012279008173 2.9053257463174544
P 7.328672270684891 0.47408979394068085 0.5095797096061963 1.354716569674383 0.8466856111676837 0.3998062844696405
P 8.8856365191236 4.434946189543571 5.847828127868875 0.2674854887153264 -0.2920297537135938 0.25634618426905526
P 4.308177747714306 -0.017416954915331486 2.5556216110095793 -1.025676557285027 -0.4671159654598923 -0.24916997823559023
P 6.674128391693008 0.97856390384934 4.768187782136669 0.20096462217495714 -0.17155325889237552 -0.374462149277897
P 4.907176675518041 8.629503726661438 10.682950996789113 0.6493300465002236 0.18294684544129783 0.6767014965346411
Ni 6.370519519811387 2.985604384068362 10.512843060904729 0.7036224892952011 0.7405674419506666 1.111047980872996
Ni 3.274706155487819 0.8208123064399957 12.441883510208605 0.9541284127333955 -0.8556366497133844 -0.7870810121311734
Ni 1.31063405745163 2.726547679885145 6.568995959448368 -0.25161278334912796 0.05875407811075688 -0.6471268682013178
Ni 8.308182697238802 5.922776794500763 3.5310048237110783 -0.31059003321428447 -1.4215809355971 -1.0512132681035509
Ni 5.068657197522925 2.362595642709028 5.343114107254899 0.4054603974316243 -0.0006815994480568906 1.2604393589563518
Ni 1.6064270883865819 8.153637094059501 13.332143405779656 0.3614945333736355 0.21372295028189 0.10412067917101424
Ni 6.083535710087309 4.279697722969785 12.516512608283803 -1.5045157247191188 -2.456906328825801 0.5331874031676688
Ni 1.105191772999708 1.4060360488630232 12.746751913293144 -1.137618532272673 1.0414471898557225 2.082054914529285
Ni 4.222662701385331 6.265052524590971 2.6884075006468264 0.04877716940370309 -0.698775702725861 1.3300257517959224
Ni 6.156324243220148 8.082348002834898 4.508746845964467 -0.6220501277383481 1.00978251176259 1.0574371375260756
Ni 6.035356767273363 0.6224998682617269 12.517980187051485 -0.12705594781094895 0.01824943312849115 -1.607603077529612
Ni 4.691435099458936 3.9708033183616376 1.5230834213709683 -0.6626499035375814 -1.412165298710155 0.8824820520410027
Ni 2.9453162542964977 3.9946257016787072 11.397425694550726 0.2242909556057234 0.1468279882315536 0.4366769322437447
Ni 5.931567272687786 5.6957144320344915 0.8920545401049675 0.986676778983062 0.14508400895725337 -0.5462874308847365
Ni 3.7194031394223415 1.6518601782060744 7.4684193193811135 -0.936594260504374 0.16060010231498148 -1.0640057918825288
Ni 0.8348470827010667 4.515335018848771 8.078952704063939 -1.4554549626367257 -0.8333600977033712 0.08510222908698246
Ni 1.2130016462017383 0.944882689985632 4.922645293103861 2.160430366415395 1.0906786731880247 -0.02995103783613551
Ni 3.6627242352910936 0.4914776971690403 4.571101137718381 -0.11789716412981632 0.18387501368252204 0.22573565847204993
Ni 2.8947194614055243 5.02797546425015 8.801944231864322 0.5976490731861642 0.05140432261390501 2.1136887393844823
Ni 5.877381190728976 2.606114380118169 8.321701103192726 1.546119259192518 2.334307131234625 -1.8137374168309666
Ni 8.383670225806462 5.182408609286334 0.8818264719884257 -0.15168068833816456 -0.3786365923705608 0.3936901442695736
Ni 8.753404485841207 0.0279627172861803 4.478077636033924 -1.1832633266949815 0.11810053838987404 -0.3573044065516879
Ni 6.554173039034281 7.911214823545756 0.44530706936093506 3.5682332743917966 -0.4277469767439665 1.702011414508869
Ni 7.951980900425871 5.577249149772072 7.600176217008835 -0.11882404681945986 -0.46375836184156904 0.3686254879914619
P 5.183533190717509 4.739323525403163 9.433258007092887 -0.5801596581521492 -0.5030193642247208 1.2690317286110533
P 0.3006943316724919 7.559933070494218 3.857915022846657 0.21787476766673447 -0.1665925724529905 -0.807940372078686
P 2.376427994312488 8.670429119244304 7.135267693302509 -0.09394656685148982 -0.20705916510846917 0.7263759809416329
P 2.3441150211900434 2.7459373380609975 8.783784116053221 -1.5562332076980683 0.9313432965180798 -1.1173356136539208
P 6.6800605587424595 6.228503628077766 12.530406811865975 0.2596433669630883 2.5284436747441554 0.5496383496348405
P 8.24984503549657 3.731979708427655 9.47107393201855 0.9207328679920852 1.0702995953110406 -0.21369492525743197
P 0.6591574743132795 3.6225954212219786 12.27857835483164 1.7986298717655667 -1.2615238502697823 0.47508998480430437
P 6.308686284120584 3.9480492874041855 6.82151041115572 0.24694288867728437 0.850159171538581 -2.09852822959396
