# total energy = -340853.1960531206 ev
CRYSTAL
PRIMVEC
9.37194965810417 0.00000000000000 0.00000000000000
0.00000000000000 9.37194965810417 0.00000000000000
0.00000000000000 0.00000000000000 13.71679565582114
PRIMCOORD
 96 1
Ni 7.37549000184436 5.364241511275022 5.176265507445176 0.8603607946619312 -0.6885051740377884 0.7881889004833715
Ni 6.219937993537353 6.148486250122299 0.23282921720997468 -0.4018814218311143 0.696910110272032 0.09642999539497586
Ni 4.634447799348188 7.148360804354354 2.2571946883779113 -1.1112433847132541 -0.4460676294300253 -0.31558491532571453
Ni 7.692786726012781 7.642768631232333 12.761392900128198 -0.17954219063512303 0.8433940849006056 -2.3279241105264163
Ni 7.257956382462385 0.554438912564073 11.000211453587212 0.36857997946550713 0.3668902504679101 1.739185966676637
Ni 5.298356705896242 4.158015371718644 12.9777209257549 -1.9800883055867964 -0.2555967076975404 1.6931709333991032
Ni 3.929049272115659 8.554350048697177 4.327127515482145 1.1259930322186027 -1.01563279989578 0.4818810395842088
Ni 4.29384303663396 5.778875303532208 11.685721766666923 -2.475162961043144 5.115504387800571 3.939307223923751
Ni 0.824396045135154 8.632502736044781 7.102816878291947 1.4883226598990238 -0.14221002984356798 -0.06764906660754155
Ni 4.265661584319025 4.237611339297874 10.575347241194683 0.38932723931518753 -5.697332177683762 -3.683735198816559
Ni 1.6517123897519619 5.423772134854826 6.733040048194714 -1.8246679477005416 0.34576426712257224 1.0134640743792351
Ni 5.4646994385659395 6.387995792975802 4.886621657636732 -0.7535437996056764 1.9747599513953473 -1.0472722811779318
Ni 0.6916686211329681 1.9719800219296386 0.24120586572314026 0.7374551215739299 0.9636818607497855 0.6218531812361936
Ni 0.9662667431241873 3.514406107908918 7.890271509862159 0.143911585915707 -0.411408130374627 1.853017702487828
Ni 0.680506629211755 5.856165771520657 9.161859500012092 1.093580420215852 -0.20954105099005849 0.6442652303828066
Ni 2.4575688442754084 4.447561753251707 13.506969912302317 1.802353600474057 -0.059500726468794306 -3.345694268480173
Ni 8.291532467297868 4.426868488632027 8.506305686493224 -1.3438516019354212 0.07733929731211196 0.5927727189304695
Ni 5.429179749748645 2.509686255756404 11.508130820140098 -1.2086905085188344 -1.3747524052793356 -3.241439120613824
Ni 6.828364958713801 4.101361936652538 1.4631290835908863 0.42660643538162013 -1.740829930037963 -0.9400981598925745
Ni 2.817367359680354 1.104212468639162 4.2085048755617604 -1.22738062872917 1.1570303611403814 -0.8723560193505944
Ni 6.840511005338396 2.1468512286953096 12.998446992198025 1.9970899823511155 -1.473032823619489 2.4873091094873745
Ni 6.607327528435205 8.434407838279306 2.9257783233645043 -1.5172786808117418 -0.48981752082246616 -0.3081163748628113
Ni 6.04107433626082 0.5232190742030781 9.085909220810152 -0.9345656601101194 -0.42816889477273357 -0.006817280032149551
Ni 2.081266325702322 3.8336053378372092 10.553291295109558 -1.3274196816316428 -1.0672096435318073 0.041108597114851785
P 9.183845156475547 3.8555638156469505 1.2454121350399847 0.339055487643829 0.18639315211868543 0.2080431262882933
P 3.892526784695871 0.10435759550117493 8.425692862387168 -1.1146706652272482 -1.6933966762566641 -0.38257140864859274
P 4.6409144445418375 2.1042276021145567 8.789311384431144 -0.36368357060515427 2.645080226993993 -0.13303581954346766
P 3.336114139555302 2.919465378143573 5.166636766471328 0.7420982767728962 -0.09713190655800691 -0.49527237328945023
P 0.7051661028835398 1.0335479689868141 5.125513589014492 -0.7183243142817499 -0.31310071545128015 0.3147742464989611
P 8.824130988616606 4.317525953162008 6.370326856477847 0.5429046304554327 -0.13359272048820217 0.517849744369334
P 2.1584255863969877 8.311729018591079 11.722277055910158 1.367041409788323 0.8745931362112292 -1.227223020105383
P 2.2221360994787727 7.188425888706315 5.444196424522247 -0.45109413611033927 1.0713524620555872 1.8182949542946623
Ni 3.442616974309848 4.05670459701813 8.0617997422212 -0.07146946879489627 -1.0914698016307522 -0.1840364789610508
Ni 3.4160100095203236 1.170415920302847 10.64277935544516 1.1665642687727455 -0.23624015754779962 -0.1991730774921731
Ni 5.1947872913527275 1.6175797494689577 5.5737645643291005 -2.032038216291526 -2.0883659443489773 0.17429045531788045
Ni 2.5491515353367804 1.3477238339530815 6.736825378620388 0.43748117331259495 -0.5118976405509571 0.7180944576591312
Ni 2.47162676860943 6.828421190411137 3.439609515697323 1.7402360052077062 0.6298850504017346 -3.1125042106126077
Ni 8.896360603844807 6.730446829752564 7.3444932158828 -1.4272561316050063 -0.9457743843417454 0.2710639500952041
Ni 5.066597765325564 0.34366282985435553 12.580153453639216 0.427100087188587 -0.5238370723010204 -0.3107216736961423
Ni 1.7811765009187435 6.019115858451078 11.460478205427586 -2.36827551776027 0.8673369688694482 3.402471682480533
Ni 1.2303589096631147 8.781938471715428 3.471089894255975 -0.08941936840509762 0.8184492420298097 -0.17979955806156778
Ni 7.657370128640603 2.1343677918866986 8.918564626732916 0.4627849421847062 -0.0923015750488991 -0.6791119057483465
Ni 1.5169812429347003 3.6636450326388896 3.599534337311063 1.270615528158405 -1.549980284809821 -4.267159643762909
Ni 7.753104593355289 8.931280487890517 6.7225603342011775 0.7408343224588079 1.2924719619118643 -0.46263067599502905
Ni 2.8632711686057113 0.47379328663456977 -0.2162127506471613 0.020868873029209218 -0.104722060200439 0.8118559050830082
Ni 8.056690155323261 0.3525502496183239 3.9435373689343014 2.188270271445799 0.1691662467174377 1.0311812891533403
Ni 9.213001291544307 9.531835015439913 1.4438987802969006 -1.7379850043900003 -1.6703948160448523 0.8329572058379978
Ni 8.776924478702961 7.250196408230006 3.124548938692968 -0.3420099422864626 2.379786860833979 -1.7350976555398763
Ni 3.1266791828270497 7.1784447624291605 7.974052990113104 -1.4861140822834793 1.4198415843084902 0.36691441883762616
Ni 3.9343069358165828 4.954865382718761 3.6660882998881426 -0.8363978560884305 -0.021342213121201953 -1.8210118390051928
Ni 1.7106713244088478 5.243305874204213 1.4945954042252043 -1.4778482427302613 1.3680860490027535 3.6520458381330783
Ni 4.8196187786759195 5.788959521254478 8.919455899135693 1.721888355938454 0.6889350624863554 -1.524563130288297
Ni 0.22586960746967846 3.565820623173212 12.402850225963759 4.233910909012108 -0.015262582586025327 1.0096791534155065
Ni 9.372980470465471 5.461653554960235 13.465394069681926 0.7377379429216715 1.786373165885401 -0.15712062840681326
Ni 4.604466932718498 7.914020967232055 10.3405845907913 -0.5395323715490902 0.7739452460801639 -0.5090169765690524
Ni 3.148384617998779 2.6110251463055865 1.170383118479401 0.2257963365066563 -0.40630063394473254 0.48414823835183063
P 2.0497203434967775 8.131178410394464 1.3384765313261624 1.335511714611158 -0.6041665625897079 2.1125512833459292
P 6.1921033033559905 6.358492895773468 7.016703656991465 -0.8453046716597572 -1.563409156621217 -1.3655365431080224
P 4.70940465189719 4.737651707859017 1.3333013407813314 -0.6725810466083643 0.6598731121233925 0.5142157471611725
P 1.3939275452642323 1.331594708767181 2.2117510421757536 1.5705753353523533 1.3407850471949554 1.3127312263815325
P 6.5571126227140795 3.3385977061876457 3.5461207852064702 0.6477899557066134 -0.18416760522227638 0.34888507213974107
P 4.990066425251151 0.7722861312138032 1.3010712062581982 -0.8388833415144457 -0.07923497167292805 -0.6220694110120577
P 5.3586933171378615 7.491589712944267 12.399022721765084 1.8183543467776877 1.4354962601266115 0.15668174109718178
P 7.705869967592978 7.8957362936482705 10.406713066858538 -2.3601973687378255 -2.359831757868291 1.9052023549111832
Ni 1.4299439474079951 3.217558977671721 5.668081990270918 -2.5909541345735505 -0.23565343180639417 1.7356995507899333
Ni 6.074682147368687 3.5103480537511635 7.278131378271617 -0.033502502632819724 0.5170624725813483 2.3019716523267126
Ni 6.924418069713392 1.7296401503102208 1.775035999569643 0.6922260745328013 1.2208772803930135 2.0434307743991837
Ni 6.73137465275861 7.843572022419496 8.311308218056013 0.032585647245505174 -1.1174747103349463 2.3341127558356316
Ni 8.704301241593406 2.5720940678499034 3.7835994265911834 -0.0009736767671789683 0.8930495431442038 -0.12351759564038726
Ni 8.424501687598598 5.202003692510859 3.0661841856379333 3.5103088912711864 -5.216278261986539 -0.20558746565894914
Ni 9.377104128270117 1.4509652302621354 7.228133901780192 0.0792776519854054 -0.15967167696344112 -0.07733801176053132
Ni 1.5944966377124945 0.221647544194694 9.10815822905613 3.12159460294965 -0.43268143793110647 -0.39977723100391793
Ni 6.608911387910171 5.98480515112651 2.596013157506763 -3.115882897276853 2.705209845296038 1.0249916154028604
Ni 7.466716558822604 4.33903457739306 12.60149619436313 -0.5610255084258595 2.074414367264892 0.38452390438927325
Ni 3.744787371894861 5.787338173981288 6.250867301462111 1.6271108085452364 -0.38866877979558223 -0.3636534886981672
Ni 7.323119547725353 2.0511073920310676 5.945311755697465 1.907763687880456 0.11429402015959025 -0.21963185956715725
Ni 3.5298417088276732 7.4145147997956045 13.333507309554914 -2.0250029067112996 0.008076092139915123 1.007688862458355
Ni 0.9913367081865255 5.598390298982483 4.364437246664638 -2.1706160486991455 0.2803278918956333 1.7170850210125397
Ni 6.321239396288311 6.086753218396833 10.86876330069942 3.3426336272769785 1.9171343304620792 0.5135135788878252
Ni 5.0918926571772465 3.850718517726491 5.26683790234441 2.5711250156627656 1.9374522160838246 -0.5939397426553771
Ni 4.828353435662124 1.9222805734340949 3.0806272970987063 -0.05920453538461416 0.4550222675201518 0.5343940218812603
Ni 0.8918384685301441 8.129266532685035 13.340105162042349 -1.9382227757012622 -0.3806567081243831 -0.017923674357956228
Ni 1.387357808625466 1.3231693261163242 11.786294031742424 -1.035379386395088 -0.7356988010044555 -0.24856474055142352
Ni 6.8348316039074515 9.307929768597175 0.5806372603529553 0.10365428105755697 -2.114582197733029 -1.1727508571994318
Ni 9.187172198567932 7.691202866537815 5.305340682705384 0.4695299742180236 -0.31840927214838716 -1.018150424111311
Ni 4.912138664692892 8.335477538766018 6.67614294244015 0.2763689072478853 0.405599751222966 -0.285695841075766
Ni 8.211992731415974 2.923092322621751 11.080317255222289 -1.8034272931542101 -1.519154557678216 -3.696587629299195
Ni 8.776849503106511 8.968758914165019 9.247643765883158 0.7092645180723268 1.266412288710335 -3.491254702853213
P 6.303554527476113 4.352998782231523 9.774094288293151 0.9583445076972722 -2.3245209983821384 -1.4506845378312758
P 8.606064466347263 0.6332073369975064 13.049473508750701 -0.36699617991815503 -0.3768946699787896 -0.3797012861896493
P 9.639893593820757 1.4181259190178612 10.00313817507745 -2.526500177864539 2.42454950976165 -0.2924102769814641
P -0.5187505286547704 5.317653550032076 11.043734787325342 0.32250169705020587 -0.3749015508081608 -0.22120074671617387
P 2.8708062160487473 6.075216348493379 9.85170433976146 1.2346751055080543 -0.5247328446424124 -2.8136836592294254
P 6.379907800508962 9.185438387900069 5.153221757876848 -1.3260258866079098 0.08991250599143225 -0.8740552614298882
P 8.347108128165033 6.912047096299453 0.8615427043953723 -0.3816558388128588 0.4701218421657516 2.576888400509104
P 2.954582073129959 2.6708088125234015 12.502008263851257 0.8638053015671058 -0.7231348482965159 -0.6597342725526831
