# total energy = -381162.4260315318 ev
CRYSTAL
PRIMVEC
9.25929537595797 0.00000000000000 0.00000000000000
0.00000000000000 9.25929537595797 0.00000000000000
0.00000000000000 0.00000000000000 13.55191472663748
PRIMCOORD
 96 1
Ni 5.431896614880771 7.026056616310026 9.737894869197866 -0.02203383987158786 0.24627388763471783 -0.6860934792725022
Ni 7.901894779290329 5.9853030975607595 3.2478817377997684 1.6400491138734592 -0.3127317621476356 -5.494366465918376
Ni 8.217216671692713 2.4772852304834228 5.1693933554329865 0.6783842835537027 0.4489449509778204 0.6040670608973661
Ni 8.95761430826044 4.202659073393805 7.505584751777643 -0.43882483182468296 -0.29605455860227076 -0.9879242782369181
Ni 3.411158670005902 4.4668315468244515 3.0983755876914802 -0.36133203965384225 -0.13710973250252517 0.3731336602744606
Ni 3.7400656689429166 8.524635689620624 5.841980223620397 -1.4693597456432759 -3.362998821196892 0.6814714071194586
Ni 3.019467205497777 8.591040362152885 13.48020637271694 -1.4729279226105085 0.0824352237777806 1.2853237809028573
Ni 6.89729667800102 3.9646584569890115 8.733684913809547 1.6183145504098453 0.494404111751884 0.6959647156396273
Ni 1.7143079525600577 3.615457772122859 5.909768598967964 -0.9514755484915807 -1.3361722310132924 -0.23482090860276977
Ni 7.222070296309709 2.0233038132107377 0.33250947808057363 -1.0464690685503462 -0.7526066325033878 0.4583698438361461
Ni 5.253405483007488 2.0552791978908083 8.543060490358217 -1.5906265975762737 0.189701390556312 -0.3582325747929121
Ni 2.3055213388652698 0.1453438451459947 8.489843448029287 0.06772337148890273 1.608039136625766 1.1328807604773714
Ni 1.9199226453510425 5.655724307641262 10.11654892343069 0.6221442301140512 -0.7352555428194498 -1.4377115226103756
Ni 7.528127071412031 3.7405041991675922 12.387573795345519 -0.7488232542015555 0.6706776589380644 1.4854376250417451
Ni 9.442208867387608 0.0924048496403683 9.639448565930318 -0.3740937101948848 0.5502474439737491 -0.44898274619429124
Ni 0.060804548258850524 6.4214260712158024 6.614119984110388 0.03546862522025504 -1.2041237150837585 -1.742692951388631
Ni 2.807675767840085 2.539883087448287 7.955428123206846 1.0068519683793562 0.7065851714679509 -1.6464570742823321
Ni 3.50421105150994 0.4123229120145647 4.070875142620599 -0.6824926492951214 0.7675264870380137 -2.539016050943363
Ni 9.403860798804272 1.7305335708730551 11.394808545778199 0.42656529773103957 -0.10774799151095636 -0.057763689173029556
Ni 0.8299539058337667 2.885071687280173 9.077502873428562 0.2767103497477041 -0.021600351878595055 1.7576308036453858
Ni 5.559508910261372 1.4193263982383724 4.470437758140135 0.34672483126362863 0.41224682422583836 1.244346567159547
Ni 9.386879415635985 2.6447198024366934 13.638398220402902 1.9667159980449485 -0.41345575693227504 0.01984454552975292
Ni 1.3326000484860376 7.710779575204577 4.411266035185927 0.008777489082313917 -0.5579545828100198 1.5160550928172858
Ni 5.629319189857604 7.914369564617804 4.1962108130050115 -0.9955105752246082 0.9703034798313612 -1.065557966860997
P 6.178172422545215 1.0783364920469976 11.938071917665745 -0.6863081663864697 0.5731330903226711 1.1790639439016535
Ni 4.43169314626853 7.848384761449593 1.9157491438723744 1.5373039748937332 0.5064373887673342 -0.6074082094554571
P 7.818881940802269 7.352761633693351 10.076591355618492 -2.081018502844971 1.5419324748046799 -0.018766996194858002
Ni 2.228060106412996 5.788692270021093 5.507613056864654 -0.0536848911179656 0.5829068818799832 0.3197200205400107
P 2.751767829409102 2.4745607448322464 3.8444722510939284 -0.2515171383115281 -0.3523385779059803 0.31021130971862704
P 8.482574109773015 3.6212706302073894 10.636106471023908 1.2560936803931464 -1.3169100403495706 -2.1120170081090146
P 0.2730923648091542 1.6156293215777346 7.149818243100762 1.8307082403573502 -0.012514073306610706 -1.4474809432923137
Ni 0.3604261255748163 1.1036219581931865 1.8997036028644034 -0.4487888850159303 -0.24517525525390035 -0.5398625011949993
Ni 7.500229084778413 8.692126244155768 8.040806225779061 0.4677284022329106 -0.07799055774286569 0.3360426689594342
Ni 5.897391783158769 7.767415287199915 6.503792310883226 0.00887879054686858 0.7530601751010386 0.23956253705281325
Ni 5.353297069930403 0.9318394057144092 2.3339791513176227 -0.1482310392266673 -0.4876107429791344 -1.9448703629247668
Ni 9.219659443579895 3.493938247736156 2.9434475245287457 0.6805077576546087 -0.3054899929835577 -0.9288498406722648
Ni 5.085280459211112 4.386216628926638 7.656047270992936 -0.2922274715466967 -0.39217807850042136 -1.4671162010247378
Ni 4.8708671706356785 8.861408241310864 8.415130960347001 -1.0943658922316248 0.2698629878085675 -0.5785910281134488
Ni 4.096628063325431 3.53755800944591 5.7653018142713215 -1.2386441174581313 -1.3889963167928594 -0.6078656087078499
Ni 9.31357022467266 4.97909083182743 4.651598326125751 0.20189330463681363 -0.48641749400198164 2.211343351215179
Ni 6.501677102331439 0.6454950307327706 9.671048867311837 0.8569517689803822 -1.7950987186838567 1.7698186039608295
Ni 2.2585332918127943 8.195206186586123 2.335726740915107 -1.2926141439166834 1.0098758428073447 -0.6086762775346033
Ni 3.0534952848465413 3.7277774922216875 0.7517397076552947 1.7149566618156271 -1.0782412187556205 -0.27814605375296614
Ni 9.489420844767576 8.683187691916634 6.462729087079026 -0.5541660623018649 1.780672773066514 -0.07357340251177652
Ni 5.919047711913493 3.956102452392681 4.363455977222943 1.6052844566987643 -0.2505845991949297 0.023739509708784926
Ni 4.577705050224881 3.4025653436883223 11.892051436236649 -0.46145131097494724 -0.8689755329141357 1.3609862047331787
Ni 7.6283452233958755 8.885807316577388 11.86796213125649 0.11521396087069835 -0.21077389495589507 -0.31585925203302373
Ni 2.8793894552200143 1.7069369126133827 12.569499458616741 -0.08527269322657571 -0.7275807998830114 1.2846864044291746
Ni 2.037737988903784 7.627552136819334 7.4087087599316455 1.5161769631071307 -1.9109788523836442 -0.8223102676471129
Ni 4.8952942371931405 2.0681365308610844 0.15905957770499762 -0.3498322665443588 1.8953555440240906 0.2152563562072809
Ni 4.49240625631032 5.744867238844469 5.162033512002686 1.365611619320332 0.8334146050903904 -0.37142361956188935
Ni 8.932011607483636 5.598631404560623 10.187711182379164 -0.7669392470759758 -1.086164587367755 -0.6023403080142464
Ni 2.16524764955095 0.015810414164102355 11.07016368740782 -0.5941695992779961 0.9138042591930521 -0.9405159641562835
Ni 7.988126616236116 4.2435170277311345 0.9248984986051286 -2.1004156764246598 -2.2707049810029476 1.2953402845985948
Ni 9.120234378172592 7.785385695981303 2.0654605634475316 0.877235716040399 2.609035931775926 3.0831933774636324
Ni 0.777046633791202 0.4595600815563771 4.114547154740102 -1.2120591678807513 1.2446106194542115 -1.1179531926332618
P 7.16709540090995 4.656836429703047 6.174204190533416 0.3930386267285037 -2.322034227404543 1.771483650368078
Ni 1.9923641062953272 0.9608290526945602 5.893668941464183 0.7653631608381077 1.0895301614058785 1.6836797060792164
P 1.7551565764670747 4.662817235533197 7.9402699061215705 0.40577947133393993 0.26587572102604534 -0.21197768545600912
Ni 0.16888918603894973 7.30608149084118 8.6437190386528 -0.2582457152846133 -0.020939578366144584 1.2088090363745696
P 4.733122027935978 0.7332458617333902 6.551411095024808 1.5605107520274997 2.2744675333691733 0.8885120602851665
P 2.8562499880456422 7.598357220372313 9.622187269852663 0.9802150825181184 1.0041358549997739 -1.4400489124943006
P 3.790114097137809 5.3535956437003955 12.23649733381568 0.4605640232739875 0.293131728528521 0.23109075213637617
Ni 4.608411496382486 9.183018843743701 10.942724938031027 -0.5199361945847174 -0.2618612005500135 0.4285566171294555
Ni 7.678300347287645 6.552070756447884 12.565976288130837 0.13791551623327217 -0.289850743784404 -0.00943697704318375
Ni 2.794025348293268 1.2760203190725723 1.7101167232637964 0.6271866776339651 0.3319425307481315 0.2503190042383689
Ni 2.717571802314717 6.197346456836883 1.0528429573048455 0.33933239545429944 -0.30807009500590815 -0.8315387282239164
Ni 5.393175329084947 7.0796785993145095 13.114074689006186 -0.9964330870388775 -0.9333119902086766 -0.44645072380105694
Ni 7.249930961222079 6.354330946840435 7.733367613947495 -0.2332599918735531 -1.3008259903035144 0.79656761146537
Ni 2.177162609059689 3.481388818966184 11.374433685105348 -0.9417084418024879 1.5847534266249481 0.27416547183866335
Ni 6.875435479779425 7.343487185962978 1.3938300643671264 -1.560865050043125 -0.6188426765446439 0.15625905173746638
Ni 0.6086771527206444 7.494537522287942 13.4738971357398 1.872034609909963 1.873378782642683 0.2199769016114018
Ni 3.208025871677975 2.039109562159684 10.105078092404813 0.9737605851420262 -1.3904795862066053 -0.01022399172085336
Ni 7.995572299625288 -0.17453596246392153 0.7452056073076283 -0.047112637217086605 1.130166703980318 -1.3774728895342923
Ni 7.046238337075416 6.307725447430763 5.001561307148415 -2.432265133238353 0.01579248694756635 3.4747610760735643
Ni 7.34773253175505 9.443981649146934 3.443859029121233 1.1678678180755175 0.2313095530154016 -0.6098767256006078
Ni 5.488625631179233 4.69563235894137 -0.018937041361736285 0.2567161660139643 0.28867369275716737 0.6648597667047066
Ni 8.855408774620088 6.066645789022927 0.9300862178587379 0.8873360376991943 -1.4126527798695347 -0.06244926757415696
Ni 5.427772564682758 3.444001784705011 2.0412891506806248 0.6383522073324813 -0.45562390565989275 0.41522621856913655
Ni 4.236957735221624 6.317615703561744 7.366662108772537 -1.2661104411992001 1.8461862813882914 1.2656149896200204
Ni 5.470477944221912 5.8193240727362 2.873064356511342 -0.07397783703904678 -0.14366990221854614 -0.7267354211635807
Ni 4.619897256096862 4.094500725214239 9.85789073431458 -1.129532669940745 0.974361709061135 -1.7257483531144922
Ni 0.3246355279400685 7.711320740162687 11.314688140686936 -0.10163185131088949 -0.620238528450906 -1.4258489668448346
Ni 6.16258127349345 5.4113136856119555 11.100165686076851 0.340225082471898 -0.7817428877477118 0.7356322094325783
Ni 6.200668090028042 2.445104576336483 6.486613122592316 0.48236517830947895 0.7869257175002319 0.3952304921735
Ni 5.045719434687185 -0.050876970406619836 13.567536401310479 2.263106599830399 -0.4262091999432014 0.000991417378991841
Ni 8.152108928973854 1.7906495333748618 8.519449836453076 -1.9961103920466652 0.8109490769980227 0.26528359596800116
Ni 6.400647202910429 2.7490713350488623 10.59859347595352 0.3318849380373187 -0.28594575230304303 0.13180477534984397
P 1.0995818818679837 0.28613070812748803 13.016338431485401 -0.6490156005835984 0.8667453580320363 0.4670928255314407
Ni 2.682871931983471 7.218254150312 11.71498786020114 0.8925885443473853 -1.9867271510595523 0.9335603587740566
P 3.4491708430979955 6.7804050470491894 3.604263121834226 -0.5721018208446792 0.027991343006603407 -0.3834602390114493
Ni 0.7206133921336391 5.183268638350329 12.234299084434115 -0.49119460367565076 0.5046005926689117 0.9000511712730177
P 7.391258989161681 2.438741222863531 3.177402466350149 -1.4909313011664644 -0.6856926442896578 -0.8275784580245876
P 1.1743839416812671 4.439017534063643 0.5760085170683744 -1.5799968857765692 1.192507728111385 0.6979231249175787
P 8.201280296719396 8.001114575230762 4.846729347417895 1.1924624766957466 1.3480288732415622 -0.24496776722878458
Ni 1.1085204341071162 6.025993104152468 2.909307480016234 0.5085246103136661 -1.6556878488519808 -0.7238799539926566
