# total energy = -381171.5617878058 ev
CRYSTAL
PRIMVEC
9.21510235476041 0.00000000000000 0.00000000000000
0.00000000000000 9.21510235476041 0.00000000000000
0.00000000000000 0.00000000000000 13.48723377301359
PRIMCOORD
 96 1
Ni -0.08349620063969525 8.44225948929961 2.490997938228461 0.6569631375654492 0.44055775535538966 2.2282851212758397
Ni 8.851105941465134 6.888888092796859 12.42895794811883 2.3712883364446644 -0.4004896836899103 -1.0980703376664056
Ni 4.399594027018764 1.8723245238801518 4.372642616766808 -0.6365051268214135 -0.5030101082533402 0.42766650121501826
Ni 8.077986487877315 4.840131216646752 4.93609821548591 0.877631923037553 1.3819707774046457 0.2125520699022404
Ni 7.107313667112889 0.16610775144036846 2.249886624603008 0.24673745753469764 1.1399116991822238 1.7755187396694003
Ni 0.8384886261198037 1.2140160322129094 10.885856783340973 0.24690175102670384 -0.14267745639828977 -0.6007120283822042
Ni 7.949104064454793 2.182643100224596 1.043916298373954 0.4433366036521074 -0.14602066183890983 0.6578432261775573
Ni 3.0542443541210433 0.10658003237667614 10.904064904350593 0.21349155099737427 -0.01400248492667911 0.8490991057051828
Ni 2.0179507885266625 6.654713908325737 9.231404927627464 1.4393881389818501 0.14304435281940525 2.6736636950586408
Ni -0.14289214373778322 1.8195312017160143 3.2152893282535087 1.1514757498707395 -1.6355666526220738 -1.4939893712664982
Ni 6.265495624463516 6.70031945054782 5.17230064401504 0.6941299764237336 0.10600401223665613 0.5833339421150727
Ni 6.664583283092326 1.5045129231017662 8.030393248048178 -0.3343565395062629 -0.2615989480275624 -0.6370761688335351
Ni 0.726817249617506 7.099655916943855 7.552985511848201 -0.3442390887272974 0.4145201936410474 -1.232335144520968
Ni 3.03225711958035 7.640462636763495 7.378677240702148 1.045485621591154 0.5813305385317988 -0.4810153491498039
Ni 7.397193146134929 4.6130065855803375 9.149186861703106 0.4383224382669677 -0.33487718789642323 0.8187138085451061
Ni 4.740764766499101 9.200385971136505 3.160288067532812 -2.023094633944993 -2.106891771067307 -1.4756311804742845
Ni 5.37407268511148 1.8723521691876213 2.3174038375253683 0.7027151469895834 2.231548879628776 -2.1731131040893867
Ni 4.036260966050428 8.073406581939878 13.23773339777048 1.2217745953963022 0.7704215491976215 -0.6276507617545771
Ni 4.52774845734459 5.552928609336257 0.3407579028887933 0.45007932169257975 0.6299639832687861 0.6003083651858823
Ni 2.5247077046464446 5.571008640421269 2.1765427023763393 0.27608942833425354 -0.6128144680726929 -0.338025760827734
Ni 5.960835121047817 6.378463565886131 10.140497826003715 3.4591285117426294 0.3831982435993142 0.3615721806891063
Ni 5.482073686292087 0.13917937894463767 11.382780263593876 -0.16948789172291454 -0.4078875188158782 -1.0101170122838732
Ni 3.1423407339236533 1.086792327238555 1.168568068243402 0.18534157092571948 -0.5659550845169931 0.01861427266707762
Ni 5.552735092183971 8.328932158879894 6.958334026670335 0.09173207569867427 -0.9917742481106273 0.7774180351201128
P 2.54656592775228 7.340870439717193 3.698402134404929 0.423355018323858 0.6198505489838679 -0.7941335481025807
Ni 7.074655343888993 5.981255788165242 0.4318961880232903 -0.6960387634106723 0.8797407418504397 0.4923071200135392
P -0.4512091998214398 4.821673366359657 13.528100355714232 1.860831542105292 -1.206162342780342 -0.033652655057438814
Ni 6.175132329448412 3.3585731138471093 11.167510861880606 -0.49212817123351366 0.15293230135707855 -0.03705139632634264
P 6.765977055787736 8.300365341161474 9.589935998688357 0.5133048053111289 1.9169296706504408 0.23521171628328524
P 6.3393823162268355 5.480599269893716 7.434689398165976 -1.4187401237141952 -0.3735013280265245 -1.3965221928562594
P 8.327890852298546 0.10350403116557666 4.478031136391552 -0.30816753981572087 -0.20822464617148012 -0.3885571939183824
Ni 8.668471825219534 7.126001894962229 5.669655391064466 -0.3922449271826148 -0.7500411857690567 -1.8715597271560738
Ni 8.831367191931955 6.554435163031594 9.963330108555072 -0.36254740011818204 0.9630442271657864 0.027799281600455347
Ni 4.383476812764082 5.474001256511011 5.9262093734423456 0.17452622547777039 0.4653709577443276 1.4844924875196563
Ni 5.621037431838462 7.625561816037468 1.7128783700296688 -0.9488411961925272 -2.1995299035200184 -1.2668750872793666
Ni 2.6906809155904616 2.3678113696548926 8.493329587298154 -0.6041565352873789 0.08282757412019283 1.5133446358646583
Ni 9.36549296244648 1.8167113803541317 8.02462090784856 -1.2434631361133295 0.28967539454880437 1.3603372582952702
Ni 3.272614637822136 4.3763811838469255 12.162477457338923 0.8237362014603621 -1.661650751303635 2.793299182035802
Ni 2.299748622665136 6.289030996222498 5.6000205475899465 -1.388173820891564 -0.5270362959646085 -0.08795203983095175
Ni 8.214526661468868 4.724794993884256 2.1340306700600866 1.518402252893224 0.7819478046696663 -0.2465507954451883
Ni 7.810435202188091 8.145348887077844 0.356324975524834 0.5055418735362583 2.348505277111878 3.467086333137126
Ni 8.533092754541695 2.3062544850229436 5.341821669417635 -0.761356867892192 -0.509304168792168 0.8280736524934513
Ni 4.405445617099795 2.1529059644899697 12.827182151644344 -0.3516492651484396 -0.1226843011058145 -0.30175340875926093
Ni 2.152666371825235 0.36233045781744494 3.2598378982200105 0.5820208797306041 -0.3081713964704628 -1.2246904834915167
Ni 6.512497231600457 3.859008469658879 13.909249895836373 -1.5201637156690206 -1.3503582927056872 -0.3399648868319758
Ni 4.101245868808586 0.9371759232139553 7.495597539582643 1.151638757811165 -0.3212130601457694 -1.2032976196380374
Ni 6.2913716322549105 7.477770002305851 12.454354770580753 -1.8036319529658484 -1.2221625748633402 -1.7396667629677973
Ni 3.9040426755265942 3.0225996921710263 6.271293766950106 -0.12555288090286118 0.6991749950468087 0.899833655945573
Ni 1.94622043074596 0.016175269400368297 8.832829628697088 1.3474066662765312 0.044488055110045964 -0.3981803188304433
Ni 0.8454441854791143 4.0923809402133875 4.089572176974492 0.846088086793001 -0.9931076222100702 0.0934508581619939
Ni 4.5554859158389265 8.684386307219441 9.194071782910486 0.823734144577833 -1.0907457789805344 0.19731005614150535
Ni 3.8475080217515933 6.849576465575317 10.867190671737609 -1.0000156621838132 0.1958509550974756 1.1771315027656308
Ni 8.047613510070892 -0.036875154123234645 6.634249008716361 -0.002769335215021037 0.8785199820694612 -0.2776634576895928
Ni 4.518183180960165 6.485598347432694 3.5164047817413766 0.6468239922489183 -0.4993483431310368 0.08848682928849923
Ni 3.848604618947881 4.08678737300207 3.9436537935790543 -0.5729364009308326 0.37583460414539144 -0.9865096572775784
Ni 1.281498227745808 5.047323581027701 11.256094720604928 -0.7098257898924356 0.35033286032986116 -0.3367726051469232
P 2.962775246807162 2.2988455426211343 11.05416417974566 0.13457513900612952 0.5464401544125169 -0.096216336722273
Ni 0.6002127995304668 4.930328639817039 8.529690538702457 -1.3255908559530203 -1.1576962768591545 0.273866966761638
P 1.9368947470262696 2.4230651241838097 3.234441075758087 1.961230549450345 1.669208509046235 -0.7223156948293302
Ni 7.540506420056497 1.5276151850437267 10.257837412047495 0.10311229251115789 0.4168490988845402 -0.3013775134770809
P 0.940585511135186 8.082465027687363 10.849872729628503 0.21997947271456308 0.5120825028682535 -0.19227377926917852
P 5.542635339855136 0.22501621561674537 0.7920795269606089 -0.9815787956348643 2.0012621114509344 -1.692366435219937
P 5.822018817141278 4.5729761803645905 2.6888010346825397 -1.495374681649799 0.9046146222739839 -0.5967813258692302
Ni 0.7246443284504082 6.350514160034529 3.524214581101493 -1.6590588222067426 0.0996461883394284 0.7285621899596744
Ni 7.937244227550404 4.958047668106396 11.567946690003675 -1.2352332920043694 -0.21351263404329682 -0.3631577800086713
Ni 0.49060652749613615 6.747703507550437 1.2182181189482642 -0.6273118903579197 -2.213351639894459 -1.5775841625700184
Ni 3.6242813790383694 3.4092746077460587 1.390101896629247 -0.2271351099227379 0.7516823209169055 0.15675347487538163
Ni 0.9097425631017828 3.5126680576817577 1.4255201430488424 0.6726836336244996 -0.25821023406098753 0.06821753751650186
Ni 6.030998911405251 3.9715801616744315 5.231926964675373 -1.2879540194368528 1.1668861708885387 -1.7392191339074177
Ni 5.982103577594305 9.287072440258175 4.934857862690782 2.47699487204556 0.6100340771140783 0.5488166250644936
Ni 8.024078138311909 9.021640628141608 11.807088736227055 0.93784175975823 0.29830890185408626 -1.8788500901698997
Ni 4.780389707205296 1.9370145433586372 9.662362096707042 -0.28815150170511017 -1.0266234945793287 1.3103547557295563
Ni 1.2093439752505744 8.752154170929524 5.119592100793809 -0.7079622543211356 -0.4686514282678122 1.4028525059496615
Ni 8.811093966454365 2.7159395115150384 12.250508409913854 -0.6035965490188508 0.5708604922384105 0.2254808621487665
Ni 1.8209318972944661 8.530153136847446 12.862073294201522 -1.6919031224302732 1.3440040683528853 -1.2445573976187725
Ni 7.611591720662912 7.133668860233754 7.8353814061382625 -0.8016828212047483 0.0025456492399891645 0.6760597491855841
Ni 0.5843314918995236 0.6922735164241941 0.884781614987627 0.30731213379396105 0.5988387226188913 -0.3689034242431969
Ni 2.4459738689734842 7.876019086608087 1.4339224734990539 0.9495937580878356 0.2784885246940494 1.9277694415784221
Ni 2.6472869979659333 4.483543610700958 7.78248487482624 1.4115410348625947 1.9380893354471913 -1.3980926226671728
Ni 2.3757547880011116 6.333134476738741 12.944642455530742 -0.6311598033491 -0.18749204160981903 0.942572589574996
Ni 3.3234174978484736 4.47851216474152 10.04901397452585 0.1653000788938121 -0.5142144616095918 -2.316205279427592
Ni 7.459404303043654 3.573782617394196 7.001128962633025 0.6213027080493623 -0.14005158873966847 0.7191267555783873
Ni 4.4957536214999605 6.124744149034116 8.653503734245332 -1.845554047120931 0.4553930205960093 -2.5922335155066065
Ni 8.996142439552296 8.981213973518798 8.859966262509088 -2.680325423349532 -1.2840677970085692 1.5224345139810684
Ni 1.357430672261865 2.8292760570372453 6.564087982889673 0.945543756388178 0.726020397374427 -1.7548388427225456
Ni 5.163793261396445 3.88307831736227 8.59999992767923 -0.04397589136031781 0.021247596524866633 -1.140006058668243
Ni 3.7062589307877434 8.4772768787609 5.158557240161733 -0.07263957784359748 -0.05360801513344316 0.67547559454734
Ni 6.675364953005407 1.5496300648918895 12.675194701749115 0.21109733973358483 0.14353594774384312 1.249360475434371
P 5.920906081959459 2.1021031044636325 5.95679890615728 0.10094665231840681 -2.3585454349566994 1.6168528782626543
Ni 7.302047212927612 3.1969586463807733 3.2690354920150924 -1.3245323327815186 -1.9878885183575055 1.4723944187045415
P 2.125039494560776 0.7480534533052795 6.746934968002787 -0.37937604163974664 -0.46584455494663646 -0.04764331290957602
Ni 1.8070908133547674 2.3595914982339794 13.003757338002892 0.9935758200957405 -0.19730799925897632 -0.4683063862235677
P 9.183494688272678 3.701476292595531 10.196429812075882 -1.0128385249800944 -1.5576609412835303 0.10685890403778371
P 5.287266419657445 5.270236910256271 11.744575323956663 -0.3707980701627485 -0.5595700069262557 1.893508977733655
P 0.6659081866905908 4.868062192293374 6.368146337138536 -0.337665806385154 1.0993893135881454 -1.2755003670545324
Ni 7.347569819227288 6.677917536395085 2.7561698844548137 0.19943095913925007 0.6881799294878858 1.705446922552979
