# total energy = -340891.73812348384 ev
CRYSTAL
PRIMVEC
9.05085892877596 0.00000000000000 0.00000000000000

0.00000000000000 9.05085892877596 0.00000000000000

0.00000000000000 0.00000000000000 13.24684691710721

PRIMCOORD
 96 1
Ni 6.545798531697199 1.7026295147641861 11.425101293470114 -0.5040971706699318 2.8294663759849787 -1.1627088995823975
Ni 4.645697372788779 0.10548685788507803 5.907497553729505 -0.1678621831940335 -0.38699422030663677 0.27225694196204075
Ni 2.698260220715342 1.574062061053083 4.769116697835969 0.6635207361783089 -0.2432659540463294 -0.2747982203266558
Ni 3.6302543362375803 4.146931679606255 4.89489558185412 -1.6531272872136564 1.3715392976586764 0.1434971240861077
Ni 5.056714986863302 4.483433570597111 2.397851345698379 -0.05213631568392311 0.03158780210861012 -0.1361090591521527
Ni 7.0903525211362854 5.9752504748833655 2.3986333399258086 1.3791050258210766 0.0845610118715318 1.117551843429785
Ni 4.944131350347117 4.6259755507798745 11.71994932064758 0.3634855956617353 0.9209485835473172 -0.2657263399323746
Ni 5.548792095160749 7.916442534168302 12.439835647752705 -0.4512566298301325 -0.541951265403228 0.5735627216609219
Ni 1.5849864480034035 6.562189637552236 0.4011530827264256 1.8898130169393064 0.9337195100597403 0.024500299134209418
Ni 2.9003387521484845 1.764881323748696 0.43049325271553385 -0.295023289124279 -0.08426122124292586 0.040096353800253524
Ni 0.5168909436437595 0.029567346552863853 4.697013933792032 -0.561478022582246 0.4705208773763832 -0.021717594182749694
Ni 8.618798252255967 2.215433090432167 1.3460519131730775 -0.18300212415926548 0.596414943668747 0.6429742794855249
Ni 6.882635304475263 0.7635902105077885 4.902856717530592 -0.6531810448151977 -1.0882883185789771 -1.1308411043395235
Ni 0.9745784076525267 7.710716506512309 2.6153118121953733 -0.22272129712575836 -0.5536592978687755 -0.21435852698335983
Ni 7.714364002735158 3.908731169450056 3.6676678725561715 0.3057293626878735 -0.5974932643345903 -0.10527587582137997
Ni 7.775466352612219 3.6100709204138735 12.709289679514663 -0.6854702438662067 0.47237515697630256 -0.7145123967348276
Ni 8.026202302640991 9.150147038248063 6.9242593004535795 -0.009594585666970572 -0.943502043367801 0.25287416656005485
Ni 6.8182474927399035 0.7638083362124304 0.24034375359433974 0.8149751674382804 -0.46332795917236974 1.6981470464574562
Ni 1.822019397333926 6.379878182423567 9.086899634761037 0.25948087324329505 0.27037900821303756 0.06658488700908533
Ni 0.19380785637497988 4.8046395096856935 1.3455613566091114 -0.8765219778028259 -0.028908198393917957 0.7941314912200517
Ni 6.219786586419203 1.8494525513077629 7.117279732085662 0.3288394663427756 1.2381473803273708 -0.46193210726610767
Ni 3.2825112782274233 4.4112982234603635 0.4751900153629756 -0.1279666325506764 -0.31709209599886035 0.08833076332660916
Ni 6.024134164956838 5.541623814742644 4.496033271569389 -0.2903539086730677 0.19300782922172569 1.3047212115928628
Ni 5.4940072449451 2.964518394124228 9.427516046305014 -0.0977217176232059 -1.6126349835265645 0.3657178274263637
P 0.19323222173534413 5.568450561155858 12.378715196157415 0.03609957393603461 -0.9626619041257032 0.1782928916090542
P 3.7708594325699973 6.339366537030333 12.8569924595641 0.3700087414922338 -0.022403307395864644 -1.2634532060820112
P 2.5491925711115497 8.709134877070506 1.3648360661777958 0.43265624112012585 -0.33663685090000733 0.8134476750501604
P 6.60435759016329 7.687908341545608 5.978566709662651 -0.9178907705575998 0.5783655423662039 -0.3713441724742056
P 4.846907021747 1.039346355470665 12.650500729227081 -0.8266294638477572 0.8176707119925724 0.17004916354302327
P 3.9006034979658906 6.10905837602134 8.26439014159443 0.2671715570193334 -0.30160479899653864 -0.45316258860359376
P 4.703378497920835 0.9114124618975258 3.7580244092607606 0.2062577522530964 0.0673230507266905 0.5232932839824084
P 0.1517557547605817 5.776276388126246 3.5009564781959965 -0.13666261766277754 -0.4117308038213683 -0.23924963379808475
Ni 1.4928306005069973 1.1348600716982797 2.6669876923054434 -0.06176021192693234 0.6466015918254671 -0.3941064058713858
Ni 1.8884255506516565 6.331664255924514 4.742463727917739 -0.9907370650953646 -0.14287877377581845 0.5307880496975568
Ni 6.135052443396088 5.513312727434772 9.471588299673606 -1.728299144560804 1.9429708319092087 -0.8969619908247325
Ni 8.85266340089667 2.4105605620659345 10.279315024649692 -0.14778726682102933 -0.03208068258462862 0.2367996295956954
Ni 1.9912614119023115 4.993431379939822 6.927610833583409 0.9795599654326227 1.010761844956724 0.18179499122504175
Ni 0.607417636499687 -0.12117199672924146 8.916836707271035 -0.16326196541786075 1.1455591272759884 0.13984230094233982
Ni 1.7620031505505171 1.211113559731792 11.332571645492312 -2.389524399836717 0.6947043608699649 1.3277315564451069
Ni 4.442822365753624 6.976755188399358 1.5924561220299978 -0.5213711272590311 0.1685702650046516 -0.002096734628028647
Ni 5.584841667010896 7.746295433688539 8.203971131580458 -0.42605287687099525 0.280239188836569 -0.8368475420313394
Ni 5.287195114195456 2.732146637237297 4.852372835565805 0.9679439784602489 -0.45756534565697976 0.29247249767796724
Ni 0.7933041809782955 7.543628596413 6.769469697718063 0.06563769260446761 -0.5963838333204955 0.17504018899971147
Ni 4.915204804619508 4.261488403409242 7.335944867930699 -0.2126009208623048 0.03162611154571327 -0.31243068596744905
Ni 8.07285043051336 7.268382919904141 8.985150781689947 -0.5611327234276853 -0.3575064952601649 -0.10874403687563854
Ni 4.580368271705587 0.43591833766832755 10.639377206999601 -0.24198065957600257 -0.8139876067140304 -1.5881261997519232
Ni 7.939829954118283 7.457871706310029 4.258093426155667 0.40666933013806095 -0.7513226235846415 0.44395109730765475
Ni 6.673886289875272 5.75516073381382 7.0292936153829695 1.1771158190363469 0.9511253642410135 0.4689697308391794
Ni 2.3637404678704024 5.543949885534883 2.549117448980905 -0.7617957552018235 -0.9895759549077281 -0.8658639838683474
Ni 2.2390558327191066 5.268948582222095 11.489427559363502 -0.08013871443412006 -0.02979728586709062 0.04133871084778687
Ni 1.1778697542069148 3.486074150555224 3.889181313764313 -0.38024121785351933 0.20383551596484895 0.6586464388051432
Ni 3.6231584626923845 2.6851726784368304 2.6671071636457455 0.7190665917644132 -0.6791620422599917 0.6857060140260965
Ni 1.2389268497884074 3.0607923825173993 8.26358189987557 -0.32372117127960376 0.5624786959326185 0.5055688701194518
Ni 3.5762388090466013 2.3274555736832987 7.005528774607944 0.11908244268716908 0.35276280992759246 -0.27490209289437173
Ni 3.9075002526105838 6.546531651285414 6.015128560138636 0.81396703788874 0.530976511559279 0.7024323256418419
Ni 0.9195039299452362 7.462306627275778 11.291506992607225 -1.5545403933766777 -0.30923891850302876 0.6570222729381587
P 9.089325265003529 5.718151770897614 7.783715305608509 -0.12363766615801933 -0.37221731910777833 0.9021311937304979
P 8.487587947683643 1.891358029004518 8.074271415394222 -0.544612614285475 -0.720093747477347 0.28813067576950374
P 1.801835981510219 3.425008004114618 10.449404199631127 -0.01779357653799516 -0.3416240197019536 -0.06552687805821618
P 4.0560972575404595 6.014757474914971 3.6589383189409403 0.9057093980000595 0.003317751519323318 1.3950931737192167
P 6.920277827529433 4.155629555214588 10.810765180263862 -0.0925928810370728 -1.0003774163986061 0.6286038696964658
P 6.201250426954202 7.91759199327575 10.289925346788765 0.4317769238389661 -0.9515102583842581 0.0028657515835692577
P 2.381959847266421 8.561053771110116 5.611298233286357 0.9271230877891451 -1.302412360954028 1.391890864731835
P 6.918485757424906 3.8639656202733494 1.4398532068563672 0.515432393177093 0.35901547570552367 1.0397296929439834
Ni 5.312157383631233 3.041523103464183 0.23418826431106476 -0.2700972153065606 -0.5430545257697357 0.30385708536582506
Ni 1.4312214025195646 0.936356629615076 6.853521405964 -0.40209148095939135 1.1553069506913718 0.8309291196643753
Ni 6.933727404172495 0.7117966692292397 9.171851903488795 -0.32928812384442 -0.18441725933923722 0.2682334226249445
Ni 2.849427669633528 1.617107946998173 9.407990627938876 0.014227456453291626 0.07185153472466335 -2.0011793219291407
Ni 6.327835742519389 1.9498808840341548 2.659278170512334 0.7525217860990653 0.7670438909746402 -0.4537032915984121
Ni 4.18004877310354 6.758050228774219 10.533416084096963 -0.3295393206232776 0.7299649838444718 -0.13795511122195597
Ni 8.234172943357196 7.177829074470871 0.3058828346089711 0.5041545062704285 0.5419504940722796 0.10783258080496266
Ni 7.512747065116817 3.8396550126937634 8.774247662620878 1.1119301263676333 -0.7496357228005218 -2.6722994677212624
Ni 2.9676771439549334 8.645181506572607 12.35563912576095 1.1869222636038075 -1.784829732657681 0.7649816091289728
Ni 0.02015173781680892 5.068435849415635 10.086957115904738 0.7889617740936542 -0.28634478751367465 0.18535879731690014
Ni 8.355608320086649 2.293976445821463 5.815988842659734 1.2017660134848593 1.3667439331525622 0.1959571416580367
Ni 3.6437220145988705 2.6913091609159663 11.422782463365166 0.6059730196708273 0.3215856129938397 1.0936398126988778
Ni 0.9925172104160188 3.1758469035716437 12.911980049023896 2.0100606835791703 0.6616091209778927 -1.0848360983643188
Ni 3.0951403928541565 8.30586479839737 8.158335794842918 0.4515191394628998 0.34045853863894265 -0.6886761523980139
Ni 5.702421377757882 7.9113106970507925 3.6244038609064395 -0.3994730694999378 0.2180146356787084 -0.18755709051979955
Ni 3.243302956546571 8.024898978928608 3.7774050138810757 0.382789952417302 1.3740623211908465 -1.5078123931925194
Ni 3.729551311574751 4.302959439868537 9.56854200758622 -1.7678164859291363 0.9516156736138709 -0.597082659159733
Ni 7.492808022489182 6.370999289632958 11.347712827703736 -0.7158568265778639 -0.18056291859015355 0.37461204459220004
Ni 0.7601662705050494 -0.00242925058613587 0.26012169092974996 -0.7103490093857572 0.44741257349369395 -0.20640584779518645
Ni 4.668614148064844 0.5264513661256348 1.5469402566327597 -0.26041418369084185 -1.3474480610374278 0.38652756508286334
Ni 6.242504242794766 5.7328865695348314 0.305328016945297 -0.845718362158408 -0.788097626321146 -1.2814393582467867
Ni 7.815462099035969 8.871416780980402 11.435300706605423 1.429826463435344 -1.7371802491005177 -0.4642165324249102
Ni -0.21566930147837995 5.005432819124682 5.715153221273222 0.1914934494597283 0.06343914229125203 -0.43795811294901354
Ni 8.026111794049852 9.088329670501015 2.2600049512238387 0.34662558668160304 -0.3455200123222501 0.6354273203762025
P 8.523718977265814 1.7323163326573516 3.612534564264642 -0.27054792969073405 -0.19465976300285187 -0.05289504822681858
P 1.824626044758692 3.3336938865157926 1.8605063655434104 -0.43135526292051524 -0.18137358741690698 -2.063311058262879
P 4.670324760437348 1.0865827891854305 8.37905457062087 0.7776386357713511 -1.0965778122812793 -0.107353327175699
P 8.71771509151036 1.522834198469145 12.328377033024362 -0.17400454864634549 0.24401620194879264 0.7129987883037785
P 6.51058163888552 7.818593696289334 1.381009951414103 -1.1019997546277989 0.45952452626587953 0.027502576295642955
P 1.6935152996366196 3.077916607960652 6.091204651333518 -0.07815253724202668 -0.17674277351311496 -1.1414602746162665
P 6.857989815108468 3.9744494574751403 5.868856720915088 -0.9460415219602029 -1.0051090175463204 0.015287265176373674
P 2.255103005927821 8.516288221933408 10.16552490861364 1.9663863826196712 -0.1294676425762351 -0.4227865474148977
