# total energy = -340866.7714609601 ev
CRYSTAL
PRIMVEC
9.27448038554020 0.00000000000000 0.00000000000000

0.00000000000000 9.27448038554020 0.00000000000000

0.00000000000000 0.00000000000000 13.57413952308175

PRIMCOORD
 96 1
Ni 8.518814291486976 5.699047641246435 2.020375070397685 0.4152845826108977 0.31709543843297 0.8600520051722608
Ni 5.128444508747219 1.375090111877133 4.872355700880454 -0.6601477059410179 -0.19707197198877027 0.44003582141364855
Ni 0.6498656243930792 1.6881501979819218 5.368395720707531 -1.556266632039165 -0.24711489547877444 -2.7834433722876453
Ni 3.849651326925663 7.524664187806202 4.4875834773803325 1.3132379908146221 -0.523678178125653 0.39832481482810755
Ni 7.451822418697417 4.913925776956261 8.562091799405529 -1.1345324371481815 0.6466967226424347 -0.2631051002594436
Ni 4.782524938563945 4.381181073474369 7.764910328243425 -1.0297296443084782 0.8689917308640517 0.6113882771491278
Ni 3.650518958128272 0.5934517424274564 11.500458650182017 -0.4769887444889141 -1.0819284377992204 -0.05661672005277992
Ni 8.281443239975616 2.545696479762609 1.3981223565174126 -1.8559047942276359 1.0293702040865305 -0.13843076530679385
Ni 4.640198762253351 8.069808871590928 9.777778634200487 -0.5762011877250334 0.23123473391340818 0.6435666616538851
Ni 2.9157575224427212 2.8886574906963665 12.004494199567112 -0.43185945625044336 -0.7804370244520946 0.2803662013327365
Ni 6.367644933715527 2.7794875818372504 3.406430400458841 0.661579553291538 1.0942936442327929 -0.0849775305836601
Ni 4.12854422721472 1.598642187583542 7.30944337784851 0.29704700442252713 0.35014748379193245 0.7816138183690152
Ni 2.7062933824730377 3.192433821914742 5.7977596459997365 1.336655341297298 0.9198671775576803 1.45612344945866
Ni 7.1072105502513905 9.021685893581118 4.549291232761704 -0.4175360976492357 1.8330633708530881 1.2551775963367804
Ni 8.931704884682032 3.3962683522779784 9.457007745086145 0.34085140320198715 1.8422118701215757 0.30217069880233766
Ni 4.091372109747441 1.02075858796561 2.6351210198373347 -0.5319003089251291 -0.25463640066680016 -0.20449011882971233
Ni 5.515756084982505 5.743592970636489 10.531156734405018 1.9370794061254384 -0.46765049780712364 -1.3224823922310256
Ni 8.739778787160109 7.175563470843667 7.883833280697499 1.4346043444399614 -0.11875231304126 -1.7294898224347959
Ni 7.214924365686763 7.3241962938303455 9.37992011884749 -1.7014694259624699 -1.511990692939925 1.868327850482337
Ni 6.29076876563013 2.564273264015842 8.448449736094636 0.21131948304671994 0.2274349005513438 -1.3804186024261775
Ni 0.4466524842170451 5.610643294016369 4.1105341137142934 -0.20986372443679988 1.1294326540277708 0.12827619337129523
Ni 1.8683440777902447 8.514139953362347 13.355378845032606 -0.34351326630486645 1.0807822400099194 -2.99510121251039
Ni 2.1301626596518415 8.135444369424244 1.7950849570631904 -0.6690648059249896 1.2069514143405409 4.1012029051217045
Ni 2.692956679649199 5.85256811540708 2.1407912141971264 -0.6683562098937392 0.1516017554711131 0.5873379210681432
P 5.238013220263793 6.562919118664019 8.345435299880988 0.5698243376644122 -1.2728068793827694 -0.5143077926543465
P 8.366304735690587 5.945424213232028 5.956251241658001 -0.15641923146441447 -0.02001372411776553 0.0879075597462615
P 5.788397985477912 0.2690693706430133 6.66794333478165 -0.930843474063526 0.4357089119035206 -4.057940494888643
P 1.3368050567611334 1.9231840804309681 10.82405966479539 0.009926515085092583 -0.21224430885383447 -0.5167745090272842
P 4.753755500344509 1.067789478104475 9.623658101157574 -0.41004750258167444 0.7059022864683133 -0.07243363248037848
P 7.213755781155607 6.859544825489362 11.761449020943356 -2.020540500064572 -0.8406134368316749 -0.49206955008143644
P 8.35170670353153 2.4954937173248894 7.115455563332332 0.6372214361621477 0.7022351220293712 0.36768729244790865
P 2.4613172570287514 4.75510030000338 7.3341756347472105 1.1843431900227215 -0.4929601802165058 0.10147758512121233
Ni 6.246705709221188 4.675506709159022 12.628184457910317 -0.6364493338828136 -1.0561503003938522 -1.0787461834164969
Ni 1.3649252813521486 2.0228383723935206 2.3930802674415497 0.7623588267941451 -1.082209202264433 -0.9778483820581546
Ni 9.226123265170745 7.880312687935378 5.458079946233624 0.2799702514458985 0.7597766678892658 -0.8288578389576435
Ni 8.972521872948871 3.382727610885207 3.5094717326656673 -0.4755790086255809 0.7652896272876949 1.261677088018195
Ni 4.849783470468312 2.557781127731637 0.5253343936374923 -0.4668429143041638 0.37809126139005206 2.258439276261717
Ni 8.328594698359758 4.820244250375177 13.599659384446442 -0.2962587041932769 -1.5517749148163984 -0.7395338584798296
Ni 5.353443403396965 6.137507976920853 5.948676773510415 -1.3273122095195011 -1.0690677797864685 -0.04883681899704492
Ni 0.730260530344516 2.3302502999310506 13.528177254165177 2.0234108796338317 0.8600694886737575 -1.661396469200984
Ni 1.3524696541668804 8.932465392075324 11.15702000350735 -1.036471591018002 1.004920041463966 -0.46749263207302066
Ni 6.5605355771996745 0.06096857929301322 8.451639229906261 -1.3801280677689522 0.34262957814833245 3.71713665709514
Ni 1.3342916725711051 1.9891349105980887 7.323072226805138 0.9806920221545368 -0.23338649014908838 1.5305265469605835
Ni 4.020329589837423 8.190423489271057 7.3052086500951265 0.9133779702889109 -0.6874340524607967 0.08489165573807314
Ni 9.254530998654346 0.43967807495172734 0.9623386358881677 -0.4043206274002263 -2.3764649955495973 1.0914659449760105
Ni 3.2996097174865664 5.258871526696905 9.976164407325193 -1.4155437282640848 0.36264561625894315 -1.6403504471639623
Ni 8.126754181283813 0.38850334696745825 6.971053758306874 1.4954618420469663 -0.05699698621033409 -1.6308502209830105
Ni 1.5106459174913411 7.524432325796052 9.14512830033704 0.18096838155868833 -1.3002418356652703 1.0234484392854566
Ni 7.760291637001234 2.6418357436512845 12.418450430560817 0.22097680363082592 0.9908782186589195 0.9410792928589212
Ni 5.941992655481805 8.553565769568287 11.93804811214631 1.1312393682192066 1.871428086674216 -0.02270644045858025
Ni 2.741656976261145 3.0465276961674292 8.852497112222563 -0.3271962743123978 0.10990720394580426 0.4381799991518325
Ni 6.798750606427983 5.203892406850091 3.6429055371629806 -0.08642429033251567 -0.17182708137905248 0.4084081672060386
Ni 2.9802800826273166 0.20734770354103224 5.626399708778136 -0.9546999689661493 0.20850901018111828 0.05395151451579095
Ni 1.7900952866047581 6.64921815884192 6.374524743280704 0.17593750400300023 -0.45015054125014736 -0.025700490089897676
Ni 4.481141423290319 5.1545057986881 0.565289782674614 1.3649503315872493 1.4771144498880304 -1.7601682253552589
Ni 1.1559063164419536 5.738158125118569 13.40176144899109 1.008124921554509 0.03084706728784365 1.2122854249589445
P 8.4714587945339 7.587211283664318 0.8946516229890425 1.011358598000458 -0.07577143860435984 -0.9114416724981463
P 8.143856323152493 9.124632626087804 9.976911002997879 1.3213873593946341 -1.256794563114913 1.4236157066389417
P 8.335569107625076 1.3150007533266093 3.304108767931521 0.8960397361207793 -0.6348984444559259 0.7308941805269605
P 1.8483761214761103 8.600911992040956 7.372495005440713 -0.503691707701397 1.2170105983487556 -0.8406008384261846
P 3.7489490186772323 4.795416466328295 12.083332847706421 0.6064237340550007 0.7696049668335971 -0.7148306993061947
P 6.704364219336042 1.119689470456494 13.612147472313131 0.6702994496630391 -0.6598245182736443 -1.1764789567832965
P 2.9021796831283257 1.417279723244062 0.6702778283186613 -0.5599258476037776 -0.2706119501594501 -0.47281224451372117
P 3.4472037986677724 7.183725013600954 0.5442506238735857 1.2976128826828555 -0.7132291591470297 -0.9135101249914009
Ni 4.227382364901543 4.014375373416765 2.4750407056855206 2.3997802732367703 -1.841978928175163 0.12867342880971386
Ni 7.528939723273372 7.81512236516155 2.7865398967379784 0.16717569864997014 -0.989961877492237 -1.0087173037228692
Ni 6.551344567117321 0.8778360625649101 2.112733128624831 -0.33929460023782854 -1.4388834314312897 0.41687635257804984
Ni 6.8947043807085375 7.586320933545341 6.412396156570595 0.27848415381867525 0.6546306327775306 0.8720739693338013
Ni 4.454022842583153 6.936523012859226 12.155669157633076 0.30431885549359206 0.07363690875986027 1.9850531057912395
Ni 1.3852085700000873 0.09200933776388028 3.7707737259686493 -0.450431819935992 -0.7558210256756274 -0.09397587742752847
Ni 0.780954840243754 5.2756490617513725 8.528387410162058 0.14501741738537607 -0.5299910077175581 -0.511261549628855
Ni 9.177163283107431 7.328239967287366 12.201237462211916 0.42944441905104747 -0.04623563392877199 0.5491691233079059
Ni 6.51543377898526 6.635742338811991 0.3341048095940609 0.8202109619159228 1.1018907398537605 -0.2386109717728213
Ni 8.44175263379346 0.41466109150456226 12.13989604880658 -0.1696151613293982 -0.3929393821464781 0.1976558695166983
Ni 2.377791286492246 6.764527773729813 11.525924518480833 -1.7208257190018945 0.29180709617982653 -0.16494295266470949
Ni 2.715029943015497 3.9256093214508656 0.6423430933357664 -2.211288072497211 -2.1646176650238655 -0.5495380766115504
Ni 4.788738840435969 9.00938793256275 0.5783788568716126 -0.10797656258199469 0.06311801150640742 -0.08727763947174647
Ni 9.243735503461753 1.3498913486140103 8.967158440930078 1.1219620566823387 -2.670628764887059 0.045663563475385874
Ni 5.361438005506943 1.9397390279556919 12.145447752777615 1.0725325984066174 -0.23954942442669067 -3.1321548949639997
Ni 0.44071867165328144 4.051491844001608 11.64772441475685 0.43070863047545177 -0.15661566374593675 0.07982812517223671
Ni 7.421225907837998 1.7952982701125284 10.282261213541153 -1.7660809912952682 -0.4478326917502481 1.0651990408596816
Ni 2.2391007065008073 3.879728466882346 3.544655401533898 -0.6863783575027727 0.9220816687104959 1.1424447500167227
Ni 4.718855630576702 3.417117384230684 10.116249869169696 1.2266897733097324 -1.2914327220140727 1.0476337782824086
Ni 0.5161443110031794 4.1780977760240186 5.952029498177187 1.5639295479010615 -0.24915352317535797 1.4578666574020118
Ni 2.5127627998408757 0.26079004198457023 9.306430063558325 1.3753458158889604 2.3314328950106233 -1.5100358832063994
Ni 5.279312481511745 6.47930967780386 2.292346425959738 -0.7286231251045967 -0.12223641493511851 1.0447266319379427
Ni 5.187977398473382 3.8041136281321655 5.510733953842651 0.2587216264797673 -1.1823850378550864 -0.36587543605015055
Ni 7.6196626906049385 3.8853673509691986 5.633647715215431 -2.098278832587315 0.24556169205904158 -0.25328014374922186
P 2.892886653761506 1.9014539728396924 4.225846510946309 -0.1325884475934039 -1.5275834051718595 -1.227276499051138
P 4.148669849695756 5.098701250085152 4.198902290470775 0.11895748707353063 1.5943575253736153 1.2234188158679447
P 1.921811457330879 7.151357076983987 3.840002157511253 -1.8200996116035686 0.8989800496960259 0.1303143068472465
P 5.406363588593645 8.377823640354848 3.1062108324761697 0.052184395313039166 2.0566076781007743 0.25379950658780165
P 0.5192809402764912 5.957425390877402 10.48873804337206 0.5838458487544849 0.26252608782752207 1.101645970832806
P 0.891117118506313 4.171290307406009 1.8047907008080775 -0.7734227979177907 0.8840447685424322 -0.8786230833062288
P 7.143121338383452 3.970636923822033 10.713620079568692 -0.42720935907294166 0.08513179677333725 -0.8110822601417772
P 6.452691919038617 4.218107884495536 1.4589759322533913 0.04526761358854785 0.3290279282044979 0.167817188888711
