# total energy = -340896.5469362477 ev
CRYSTAL
PRIMVEC
9.00341257680904 0.00000000000000 0.00000000000000

0.00000000000000 9.00341257680904 0.00000000000000

0.00000000000000 0.00000000000000 13.17740438505724

PRIMCOORD
 96 1
Ni 6.292016857999656 1.8596728702858776 11.336626212154135 0.30190510384577685 0.2038889949106037 0.2213195316822253
Ni 4.492315718749905 0.1667945199903902 5.878361370498806 0.12489262161104299 -0.46255997065809373 0.534685327869434
Ni 2.6532336529798104 1.5702581736703058 4.870289781949708 0.19604764448931394 -0.11486351950981509 -0.44298539096027584
Ni 3.38962276594256 4.319297139659489 4.9592498003926835 0.6319437327029762 0.015152796481038419 -0.6097044616888015
Ni 5.276584979685952 4.653341752315608 2.6783729815189297 -1.1997309853327016 -0.5639866479367126 -0.13951834194401777
Ni 7.25542701856426 6.213417066384974 2.70791677948049 -0.5493670982513248 0.29178472758232327 -0.6713104074260567
Ni 5.184309004398567 4.6445004011855255 11.493767273201883 -1.14549459258664 -0.10970151569290139 0.14209561575289076
Ni 5.622784199292794 7.893021685549014 12.206954592007584 -0.5370157757748235 0.49715879167888577 0.5752917885368866
Ni 1.8478513895997288 6.646292138669312 0.23313976677497522 0.491640690074134 -0.048193271875775066 0.9434575632831106
Ni 2.805733454854894 1.4674121920420689 0.2852956353711595 -0.8140284872542949 -0.414769333537376 0.7298870794186849
Ni 0.6657708465790436 8.99485931416353 4.594077689506389 -0.6556400478786515 0.10202934385962428 0.05802619880579683
Ni 8.575885510865799 2.503110752019535 1.166528048171292 0.15959068721386063 -0.3392359790857512 1.0054095795058748
Ni 6.784665586243887 0.5853532659692872 4.689653415495582 0.23607792093832242 0.6961583197076721 0.7398619312432098
Ni 0.6251141364994999 7.457616654336414 2.381644812884045 0.555441843690495 -0.39410871986423096 0.4185545116114211
Ni 7.5423207596641255 3.9076881278326394 3.6154976791260247 0.8427847334513807 -0.3411200834823415 0.24426611317606964
Ni 7.38595849380248 3.9281888982228605 12.392281736403433 1.5940829315559901 -0.2560042275486043 0.7552978061823056
Ni 8.113227149845908 8.718472555516625 7.01807455505429 -1.0742426391191888 0.018586247642619604 -0.9493343337788619
Ni 6.835354798934684 0.7365934904277731 0.4498014878897912 -0.49912594270758553 -0.2914147458374143 -0.512115412988718
Ni 1.830123670276784 6.484158685359211 9.286314184064313 0.7143501601253505 -0.3633711815710581 -0.8251302535944113
Ni 0.055620381747768434 4.908480457330138 1.290625684796928 -0.4518076172375961 -0.24801401025427613 -0.5656321539599355
Ni 6.46543158724254 1.7456086366127501 6.987740257470305 -0.9485470619908761 0.47401140702814487 -0.5648186569197047
Ni 3.331973915345904 4.456671208440338 0.3580621159907492 0.721137615360829 -0.6480421809267356 0.0364970664847694
Ni 6.047997367491899 5.651370034158386 4.718512053761623 -0.12185280634345466 -0.3291297438896848 1.1456007791472012
Ni 5.299057497425957 2.7655422212044996 9.112676170190039 0.3289968178562463 -0.43751948274969804 -0.08802685893294518
P 0.25933519560692436 5.6875997662841 12.312123454075293 -0.7934794594583496 -0.4236982605958896 0.24201922612342192
P 4.013190116164924 6.306188229362943 12.569372558992972 -0.44844872806769215 -0.12939179503297715 -0.2168308997832524
P 2.3398608755524783 8.462154403457248 1.3228795099378714 1.1718440291144463 0.18362278846239988 0.6908523341137263
P 6.456644256587794 7.674562883288003 5.690345807113708 -0.6006462081412752 0.1506080240992761 0.2598349141486041
P 4.693091818750753 0.9441518611071247 12.528627615470377 0.7974371585545169 -0.5945290394999438 -0.05625985093399343
P 4.0379855143444 6.125417712061732 8.212092722783098 -0.658424295492008 -0.2961427474407029 0.07691532240081592
P 4.5882740897727325 1.0315119731388835 3.869452435389429 0.27772182173135396 0.308715699009707 -0.5571318297984083
P 0.10018277219414488 5.571896911525763 3.434690247833333 2.010013118170687 -0.8104405127927203 1.1749077556414347
Ni 1.4783423348851645 1.0509233306098176 2.571557395294712 -0.6343315162088624 1.224333357262414 -0.6362770699710074
Ni 1.790706730106214 6.2692922447080806 4.8608677107097575 0.6489001580516566 0.38430767461340914 -0.6671758164323929
Ni 5.969586647540895 5.704030994198967 9.183003626348182 0.4516952600294479 -1.5712731327503264 0.7486605033714462
Ni 8.483375446851955 2.369689181350811 10.249187741240574 0.5712145331437195 0.060809417977888816 -0.31706587074661524
Ni 2.388569337480935 5.144351859474631 7.142890664001903 -0.24093422058935926 -0.2418330782545448 -0.1091225032609798
Ni 0.41219693466676244 9.07607009541948 9.187576459585422 0.5094589492024775 0.62311790688123 -0.37089114409718704
Ni 1.3696981555708043 0.8634857863108201 11.30302367581229 -0.01219628495587577 2.001879690430275 -0.05946575946580081
Ni 4.150032983604963 6.8631573369078955 1.573303127796776 -0.6940821539049337 0.7098062495084099 0.2716043959797065
Ni 5.745851845522013 7.668449566162416 7.865026474547103 -1.3319353101138094 1.907868588889437 -0.526011711354836
Ni 5.367438415789475 2.9164484190571547 4.713662815758911 -0.009637523089764047 0.05865431930809899 0.3091805544612675
Ni 0.7995444506787115 7.209680679366758 7.062509097042369 0.3859881476396255 -0.12525231894330685 0.02463451071922854
Ni 5.302046630394579 4.508287772624413 7.2032306346115735 -1.0304179286247546 0.26595336834151617 -0.08601137116481317
Ni 8.248044249460827 7.106960745514307 9.275311113579512 -0.5672313801262554 -0.188967597714081 -0.16641053834917147
Ni 4.436296485825902 0.51809597349277 10.261402671055425 0.21927781866184815 -1.0583671055395127 -0.3501202300984228
Ni 8.422296296071428 7.017826961208997 4.940261603311886 -0.49850913505919314 0.1199116234566838 -0.25301403457202876
Ni 7.276026826492599 6.171119034196455 7.02214679855341 0.970647236324025 -1.3920456451421448 -0.34069970811547134
Ni 2.2836255607271285 5.276810064999854 2.3329408526618662 -0.33707959486438077 -0.03711773078790382 1.3282259795830222
Ni 2.302055546229449 5.23410687924631 11.509316166686254 -0.24122629790848132 -0.18107302545735268 -1.0249535630760735
Ni 1.1633849568479604 3.3474777917674943 3.715698458145282 -0.5850388406213215 0.3091921244254933 0.002570331830337509
Ni 3.5599583280912612 2.7262063117469344 2.6783999917565984 0.3052876471647646 0.02860712221373138 0.23601852845529672
Ni 1.0404433583945267 3.433550415803732 8.366531859722762 -0.4314925598293279 -0.103110492738945 -0.7085379243189475
Ni 3.9696586164562198 2.610764555952725 6.879237431733076 -0.9938000202914046 0.17219629179301313 -0.29074625901547996
Ni 4.165104696223861 6.634290589732042 6.0528430041295875 -0.25761116702440795 0.4227523517428526 -0.5977395760174415
Ni 0.8762409208790353 7.509269232170713 11.198843388443239 -0.8384004883407561 -0.5746045326618748 0.7940073069373615
P 0.12003349619781613 5.504686436794539 8.110955588858006 0.8294314520729263 -0.8783819138297001 -0.3462934001531649
P 8.359686565156366 1.6149601170113017 7.971486425975355 1.1674291878762024 1.027139772094115 0.724384918653533
P 1.8520109662006432 3.335773355444575 10.46089578476703 -0.13435093881046536 0.27376849351056076 -0.8799438590001812
P 3.875230825567929 6.114460558980969 3.705195977398601 -0.2396584392007292 0.13735784395758924 0.692357200794027
P 6.756791020970227 3.8679020477472696 10.325023485200537 0.626372666373102 0.052201621704219776 -0.7543801794640428
P 6.230982724281909 7.611836108009712 10.010913328284861 0.2753744045451 1.4894364617884928 1.6008061092124366
P 2.205890096717832 8.340329228160767 5.919856298287322 1.213693875270697 0.2834294136390925 -0.9598619727830632
P 6.722938189759322 3.871629460545492 1.3193609763109508 0.92474918824033 -0.2305361651844868 0.5206393912993291
Ni 5.018376110989795 2.7430877102896067 0.5190620396600387 0.4264652818180655 0.39183817866249937 0.04192980746456649
Ni 1.3971405570417725 1.1942576585027995 7.0237277977982595 0.40553084565824354 -0.3770142262757894 0.541991117502228
Ni 6.858475562378728 0.5815484238230827 9.183333151247735 -0.7445030295596468 -0.2707353631111918 0.2932903655935723
Ni 2.623711463208385 1.824145404339539 9.192438302365712 0.5952849438293619 -1.2830630098931388 -0.5025750775984507
Ni 6.297526946483983 2.023598002694641 2.616452912005664 0.4618778569894046 0.018616329549606646 -0.3805142690092479
Ni 4.0657700454925 6.814610936405449 10.417924297319315 0.0917197344035001 0.44326949785959785 -0.6524089425358635
Ni 8.018673311181832 7.083587886518692 0.43256445455115333 0.038568347191501325 0.8306887215187951 0.16185094400294706
Ni 7.5825570103773 3.899810141846059 8.19484308466688 -0.17115936588806652 -0.6312850160730548 -0.028714851436189258
Ni 3.0546327949680516 8.374001991120553 12.10903347704753 0.8980948188775952 -0.27541939885042244 0.8937812791039058
Ni 0.01949148784268318 4.857224029648307 10.236457816227517 -0.18730666507189034 -0.4715025245633621 0.5642872098962669
Ni 8.623810675901876 2.0459804863090856 5.679394956421733 -0.1799849345994965 1.1238744432137031 0.08477209944107335
Ni 3.7338142245493944 2.628789387890021 11.490525144340435 -0.3457375276496949 0.7615144765159788 -0.4613152996177152
Ni 1.1781775636776193 3.007454913174131 12.430324755817944 -0.5097487125287543 1.3065130133859628 0.7182273836925696
Ni 3.1592614522823945 8.251411525756806 7.928949803354099 -0.166035671508256 -0.060538680815005415 0.3047268895652881
Ni 5.480719352570222 7.874600703459251 3.6749805248603566 -1.1313928630779353 -0.23137614458727893 -0.011147274866071123
Ni 2.900341313994306 8.374542195873918 3.555830263434293 0.7858006027568532 -0.8315168738470453 0.2944311640662349
Ni 3.6279160860646424 4.2898289703634 9.486478952352602 -0.6706522050167676 0.8595331565543132 -0.3675685074818573
Ni 7.259946731667419 6.269553343672206 11.487389255747148 0.24119493044991366 -0.7458472022923671 -0.836522554591753
Ni 0.5963779446442216 -0.019418560200978836 0.21273983460538234 -0.7932927973688402 -0.3139764331880141 0.49114241028147665
Ni 4.594702526337782 0.47791734461995466 1.7138797104238268 -0.35139986814179486 -0.9193804677292488 -0.13090874589813584
Ni 5.911154500051859 5.697080359705664 0.4004681891299417 0.39810112885307564 0.22720350126682806 0.31463155027350975
Ni 7.79402016108223 -0.25308502661048543 11.377726790472693 0.21719085422583242 0.03789214706008313 -0.12532482405245512
Ni 9.12414831846901 4.602859618113601 5.829881595249274 -0.47594796192922545 -0.1089957478751284 0.32649282048746997
Ni 7.805220406302007 8.923867406158747 2.551197978481622 0.4052431392144956 -0.2520817525657465 -0.04320533174288043
P 8.449504608815937 1.7268005077830741 3.538040420564711 0.009513595917390066 0.32026817973399685 -0.35180378844843285
P 1.844916277106443 3.1659149741613466 1.4191665055189953 -0.6394832356131308 0.478802143548569 0.6325445995117687
P 4.515472495844174 0.9727376959727162 8.065889007308488 1.5579085385179623 -0.3604612070131147 -0.002033485490261014
P 8.541339416888075 1.5808101731860456 12.345870945359293 -1.7363418123596224 -0.12306199616020741 -0.1346828682285874
P 6.199668855411821 7.763570619817526 1.5994202269394873 0.16743023786293748 0.4111700462218919 -1.492993840122448
P 1.9407756105911524 3.180140365999972 6.1143948340693095 -1.211838824339829 0.381472262047143 0.1620625457931209
P 6.8728810224684755 3.847212205693371 6.016934693832127 1.3429298614521001 -0.03979167807564115 -1.3529692479659732
P 2.385030996346391 8.56913295144873 9.996642919383456 0.5923276609732508 -0.59225001365778 -0.5558228811789975
