# total energy = -340865.83110968466 ev
CRYSTAL
PRIMVEC
9.29381661144750 0.00000000000000 0.00000000000000

0.00000000000000 9.29381661144750 0.00000000000000

0.00000000000000 0.00000000000000 13.60244004423315

PRIMCOORD
 96 1
Ni 5.616838846289804 0.27980614646097335 3.6446919056286258 1.5059090055222195 0.889770615282616 -0.7099312051220483
Ni 6.310575782007746 7.203256154606635 3.793910635869185 1.1846458088648049 -0.40520971487339896 -1.257802178443821
Ni 4.877051049610212 2.625902807000528 5.881422650637945 -1.8296229777129716 -1.8204629084802584 -1.5043581160953319
Ni 0.7680781742310078 3.5974690944011294 8.152513564781737 -0.30687916002160054 -0.992259158166846 -1.5646237457546086
Ni 2.352971296635081 7.544320634035625 9.907092260213403 -0.06941978535471915 1.1734085453880887 -1.5878814307309688
Ni 4.4101390003968195 1.6736769518221655 10.877490314874775 0.028451313362157452 0.17692506472725011 -1.7556952771855698
Ni 3.566799499815167 9.21009784179777 8.895043966722637 -0.1592528442584677 0.915213737946069 -1.0978265970867156
Ni 6.963103935182002 6.9854183886974255 8.985744181111526 1.6633690195463224 -2.3364408897481765 -0.3172684736757245
Ni 8.93698974891804 5.87598762672465 8.077618414802815 1.46963176835774 0.752741101198723 0.23629260805228983
Ni 6.580431039098055 9.05965883344535 7.312576530435818 -0.04259752295555245 -0.4489727188919623 0.4811426187562875
Ni 5.5149600293651595 -0.04795888149755904 1.0673046797364747 1.5956145377091682 0.5732253929261611 0.11536899839132388
Ni 7.639600841216017 6.986208363103428 6.609153579118637 -4.06194473095203 -1.6444063624008907 0.5938039884084613
Ni 4.37787086936577 2.8197160571507314 3.4729616929619693 0.2271425661219056 -0.6272334717115005 -0.13871950019180626
Ni 0.8041502643723709 5.3593164837496685 2.2719338633040795 -0.7713003522581491 1.0386770833097532 -1.107050429677829
Ni 7.8771322043760295 8.807034312222427 9.911608125670773 -0.10826735434953612 1.3282365211059834 1.5675244643411714
Ni 0.061206287595386814 7.804287270326096 5.745738505426337 3.03228296376701 -0.33826641608363034 -1.7185484929319434
Ni 3.6043372248250773 5.684683707040571 5.129806613646366 -0.26615571416030936 0.40303713270211233 -0.2016336232175237
Ni 4.769187014833034 6.765498807882989 1.2719535905920643 0.09160686297471965 0.5468993534371227 1.0731190670377067
Ni 6.736660095155643 4.0950972072831915 9.42359353661893 -0.12271129768900803 0.4878771092666437 -0.07208139134728231
Ni 1.706865170690794 7.693625796770017 1.1532529657278465 0.12666308324790446 0.5891711176221401 0.3533161113279012
Ni 9.369654084177107 6.033954626475443 0.16317618392213493 -0.32731223106497176 2.224755510856027 -1.063074024096879
Ni 1.549260629785109 4.511822647174099 4.141222418777171 0.7169274339342233 -0.6287815329249106 1.873394466371967
Ni 8.015619364656464 4.5347876678474055 3.3179073753151895 -1.0613292734916302 -0.888924722342553 0.3944213660086433
Ni 7.339168927705157 2.2532300575149127 2.6028950347711315 -1.3731624350843963 0.6405738975741484 0.8960263663843406
P 9.077502961204456 6.1070783750216115 4.154048814985683 0.7432483312169393 2.4431912932325535 -1.3184329047520003
P 2.3646071549446646 2.4786144024555763 12.371704598668007 0.7387543000013277 -0.46769137834738805 0.7804635068146558
P 4.02930627998803 7.128134235504107 3.5150877751982708 0.8030529620793976 0.20036504091774524 -0.419881972173593
P 8.934768526764692 4.590959495022424 9.67979524782856 -0.992757180849187 -1.9005278322536494 2.2396224006655303
P 5.332884869506493 2.2308598411002425 1.3387956485380355 2.5699183969491743 -1.410997503654299 1.5126427247016272
P 8.423413446851278 2.959141892901828 6.506795201260467 2.2968361308723604 0.14310477374369548 0.5832742925217309
P 2.166174877973484 5.710232408712332 0.5620500610007038 0.43751639742590454 -0.3440292867093365 0.6370134339163996
P 2.04371025741008 2.4155558572235276 3.821102484305431 1.5896575487947848 -0.8196661451560465 0.006630360832324065
Ni 3.3155225819907175 2.2952102268315175 1.256431987586605 -2.8546937830931998 -0.27181676910082864 0.35935486132281336
Ni 3.3730234249311275 4.529583130584333 12.896568240924056 -2.981173289575388 -0.49253826218773883 0.12254391887320831
Ni 2.8781369879287206 2.177392514538713 8.679145820325578 -0.04676965205537107 0.17063588928442872 -0.2284828821998839
Ni 9.223629638681759 8.380029911236951 8.161055511564754 0.057065377554424306 -0.9131655971677886 -0.5208504788688707
Ni 1.6381466911851543 3.385235499866266 10.48220385098111 0.6470996145078082 0.9363854869276778 0.3423233597618233
Ni 4.657605453439376 2.5591081475189172 12.95894926693025 -0.14174491728169136 -1.2524938788570301 0.5282454857813612
Ni 9.26163205451873 4.538031209820286 12.051680390506638 0.7473271292720033 -2.166360358746585 -0.552402799753855
Ni 3.7523691346933257 9.019918473915176 2.3583914504419097 -2.0987843114688243 -0.894809206147788 0.308101719574792
Ni 1.9405860690689143 7.563679653890947 12.333114813625631 -1.5313451862071368 -1.093865555556439 1.0771233031010934
Ni 2.4319129743360417 8.419677332601715 5.9592016718896 -0.6568893469047203 -1.4366368014889581 2.4163692879437026
Ni 0.31465517034551443 6.423923168544232 10.50803415529407 0.24515777175240358 1.4680381986183748 0.10892041455250275
Ni 0.004274226227298297 5.1048889621177524 5.90870929600291 -0.26052679800930617 -1.439057752225625 1.6302696658891924
Ni 6.514017426094634 3.42922313355577 6.955852899516557 0.2066562732430957 1.1559772372855188 1.9032616862450444
Ni 6.109689937469688 0.8002766016379984 12.422170022486725 0.550031214197885 0.9335680720835405 -1.7570073111287738
Ni 8.966999482529578 0.5132556653960907 11.989272412432474 -0.037152697790897304 1.2511931577677355 0.5342168728734478
Ni 7.721386426778585 1.7395515234661976 8.107571456133453 0.29994232369245116 -0.42354219463399956 0.872389443691691
Ni 3.117973217590951 4.638794768759985 2.324535006163969 -0.401325035107012 0.41653131053380527 -0.10357586241113775
Ni 1.0082118060225569 1.1343567779362769 7.739271447330472 0.09397587742752847 0.1322835147584754 0.13945175037214047
Ni 4.782653755001235 6.080814049476177 10.240297888375155 -0.5375299964070808 -0.21141332831210685 -1.5237941133327564
Ni 8.219860276965896 4.108684767066427 0.7815811602837186 -0.9682936484901841 -0.2019264718675942 0.3151827947912894
Ni 7.7322880735814135 6.4296481595336115 1.9942132492749518 -0.5861192181696938 -0.7759478783324895 -0.23100307751857638
Ni 5.886759160095902 5.280718677260731 5.711568859530956 0.44185359134867774 0.41435307193556387 -2.682698551567399
Ni 8.210231883029211 0.12425832715585614 3.3078821354121963 -0.9364253390266776 0.31981206603318474 1.483342433075613
Ni 7.533149466553102 5.950040756924939 11.415847649366997 -1.9782787631818837 0.0732306744603771 0.5014905862850202
P -0.17193374724890856 2.3993939102583792 13.468333128355278 0.6882161820424598 1.6825998427514763 -1.5354676930159425
P 0.8814803942850872 9.128851297594592 2.5262721642972 -0.0032424181966976416 -0.268348350936254 0.0884246085919961
P 2.3985295853200475 5.869853707807458 11.066863908863247 1.3149120360829354 -2.7207871309090046 0.8494935129301241
P 4.724149179874374 8.68066628871172 11.63382668128763 -0.8960153106407471 -0.5053230726572331 0.24925585308117718
P 1.7275346186784246 7.244000246323259 7.655834350568532 -0.04181667892546992 -0.2100377881208189 0.25097489265481293
P 5.2741944180488085 7.992849514130522 9.159692827786566 -1.5398385683901288 1.136828689381526 0.4973742501238015
P 1.167479940089117 0.1757888223501987 9.705966635208581 0.7306483830647418 -0.6794358647466686 0.18212126421620894
P 6.618489217834273 5.423927096344096 13.469271803825938 0.10002439761445354 1.0841526991440489 -0.6475963516385685
Ni 8.017348014533129 8.54354531946284 1.2878887684336076 0.6928770778532389 -0.20488144073086 -2.074160599382873
Ni 5.316016592484213 5.173272864227909 3.2684893646206623 0.34279849962602893 -0.5795436218347052 0.13402723692245952
Ni 3.4607291716304407 8.930381845357246 13.542398340517071 0.6061000321669949 -0.06494272341997202 0.48119301237824874
Ni 4.516292972930416 6.503868578431643 12.542238697145809 -0.36241498830537583 1.2353096537682597 -0.24416146927740534
Ni 2.3510846518772173 2.169186074532833 6.026670133070449 0.2839120097024659 1.022829060533903 0.09578799093560278
Ni 8.691865337643867 0.7285933946557158 6.1495817862094855 -1.7963359335250673 0.41497013669427246 0.8192100314552343
Ni 0.4551116903510296 2.8452368773728693 2.492864611358199 0.6250266938681687 -0.134054233505653 -2.594360074931306
Ni 5.225188123427056 4.307033399688737 11.797028887896081 2.6629769047687555 0.9836652458502477 -2.295637482578569
Ni 5.159629541545425 4.361885504914905 1.0251488572872414 0.2899998677677586 -0.4039388185807753 -0.38767556264437747
Ni 4.065171118020524 4.307042693505278 7.451987496080448 0.8251173980786048 -0.6566659180400045 -0.5726404669569686
Ni 7.465555538848948 1.4063682004641451 0.5027378532164136 -0.6111586776368249 -0.24601112089163438 0.3745886475534323
Ni 0.9482202202491051 0.5162129578195008 4.6191169709973 2.1653406592328195 0.02730383002127556 -1.559309789740863
Ni 9.218815441713415 1.8123685760665065 9.952238832825593 -0.5866570929510349 1.1479026878075005 0.5794045251536796
Ni 6.503933635147431 7.870068903804717 12.85338080483875 0.6762368981933967 -1.5342950128640802 0.6659476004522465
Ni 2.493874849216228 0.3667330713341337 11.626045898079337 -0.6859605532390638 1.0028826993189632 -1.6178769486517945
Ni 3.5103395643273716 0.42355546566703606 4.645301369720481 -0.3082503293375143 2.325746643259124 -3.2339656950549145
Ni 1.074736944824473 0.9500325144746391 0.696346639402711 1.1817512609258294 -0.6167451705856669 -0.4737964628038614
Ni 2.3526738945057626 5.2885998336876705 8.629020550192266 -0.6903854217796368 1.0425126550057593 1.0448747274800327
Ni 8.929201530656513 2.526579789624714 4.536971714734588 -0.5687814982221946 0.3949037049617005 0.4981774627513872
Ni 5.205503819992794 8.185724088810064 5.470642465188443 -1.8490970272771832 -0.5139876903107664 1.7185778035079824
Ni 7.321984660920476 2.9717164266820726 11.634371298936944 0.5494059219090603 -0.06237933356816999 0.6815171727557295
Ni 5.319538948953329 1.5560915849428916 8.36045434545622 -0.3512404597457951 0.5738044053580829 0.013801424659466554
Ni 4.027085057834683 6.8805190813968915 7.458462498064703 0.004532083542398647 0.41819944226484757 0.4506061407303272
Ni 1.8274989093955818 7.421716606224103 3.8305970472839213 -0.10020643171827259 -0.09725943327480668 -0.5049749452891948
P 2.193275647007626 4.595866630156179 6.362568179884186 -0.8555834278779458 -1.2429885104697562 0.38741690966635217
P 8.710053336614996 7.803441533020847 12.359421890727155 -0.000764646080166425 -1.7099576659391391 0.060730228000521226
P 5.837966623254598 5.563929148720748 7.691064420931263 1.1289482581921848 0.1150129006034858 2.000473554111368
P 4.056592925352996 0.5772556742437626 6.594884782582931 1.1795465399650265 0.8304061572813698 2.5706953843245146
P 7.340869696132196 8.578852528502862 5.179823146126147 -0.4763811928119022 0.9234754637342291 -0.463296334603486
P 6.59416729994595 3.3245747593018478 4.535992146471146 -1.14375858373214 0.18398659955972185 -0.39650087424549135
P 4.09005995871786 3.6385384696966963 9.551252471247212 0.8092914867899417 0.5188550457053968 1.3620583547514347
P 6.853790065024398 1.4565826912362536 10.199952501388148 -0.5903458546565317 0.23449720671476387 -0.007332014885038985
