# total energy = -340867.2755118454 ev
CRYSTAL
PRIMVEC
9.25996507869620 0.00000000000000 0.00000000000000
0.00000000000000 9.25996507869620 0.00000000000000
0.00000000000000 0.00000000000000 13.55289490428641
PRIMCOORD
 96 1
Ni 9.01368704404298 5.394550073953862 10.931602676446218 -0.6736858496367688 0.08755891815759115 0.7468221646111268
Ni 6.486124016981455 7.26432222193472 5.725515115688499 0.15573300403066728 0.7332457114782727 -3.949848746885023
Ni 3.016118784428154 5.97551102280574 4.869257257144461 -0.8526410574201702 -0.4287823599870164 -0.29426429947106736
Ni 7.70518915916416 3.875758382217649 7.356945022599233 0.7668502869065955 -1.0450220516911743 -1.761974168215746
Ni 5.223879657653173 5.90069976496334 10.215277706132307 0.4290096455064741 0.1820389889150478 0.3563744385382508
Ni 0.715448977617798 3.519434926124626 3.40085459136136 0.32090401354578285 -0.08832330712744144 0.9113213448701982
Ni 0.35332415340517226 8.879408290487756 10.304090031168382 0.3338541459485476 -1.1038447782563376 2.9602115997220566
Ni 7.260599715974497 4.667531695971132 9.444023548988921 -0.12244775961497621 0.8639598248670991 1.7152749643869942
Ni 3.1265901677750816 3.493479244018889 5.580350347190893 -0.10386305463425338 -0.7483393725866015 -0.951550110483258
Ni 2.176730730258083 9.047448876707094 1.6134581666928198 0.720569915782817 0.9438990216959035 -0.6841651519015379
Ni 3.07882726791729 6.008152399695759 0.18346305805205396 0.1361450545964107 1.2716136304056163 -0.5265876384629641
Ni 9.114463243956191 1.312229650804117 1.9055369110907345 0.9204438759967568 -0.5845865835752513 0.20734687155221712
Ni 3.6317583024865896 0.6631607328277648 4.765793815366432 -0.2698658160220449 1.507473521795862 -0.20365528163324279
Ni 8.319569321972372 3.5458536064841213 12.49078170585784 -0.8529776148239825 -0.1914461411615606 -0.17557780667073633
Ni 2.976347234430245 6.603614453855371 11.293830286271177 1.5475719324786443 0.17025922267130034 0.16481208351380003
Ni 1.0503022786875036 1.1960356090407263 9.085128600594519 1.3775875607352857 2.2042887583612423 -0.04965365847138545
Ni 3.68329000812998 7.254247379932921 8.815941415858964 -1.3552202487836789 -2.23377545496645 0.1788708755997113
Ni 5.205267127852057 4.02441786153463 3.674000411166557 -0.1427551037137606 0.24480861594310097 0.09907231811382937
Ni 1.2749397714463568 6.4286844536200975 1.5748459643223236 0.5566029538781316 0.7587780514214222 -1.3050713958434297
Ni 2.2698859789144192 0.022047050847502095 12.633574997299693 -0.7147741350366464 -0.6317138760803572 -0.3025303961346016
Ni 6.926407576411159 4.450320695202575 0.8708876773663196 0.06020186630087696 0.9415657455770365 -1.287456253864828
Ni 7.691151052110184 7.562298638089019 1.8538190801493326 0.8832706093805691 -1.6500900430492291 -0.734644134487696
Ni 0.8958988430343875 3.2656563232741727 10.55064400926718 0.21759451742215427 -1.3150326208211998 0.9023098854002073
Ni 6.337649736965978 0.27697944534632235 12.770743785954878 0.18109487983422357 -0.6013931136096288 0.4693895919854174
P 5.074488641095254 5.1408548107890875 1.4448740205235688 -1.6273974865477199 0.2670458300747465 0.4165932741199922
P 2.331974044743518 1.541858264738493 11.0672806107243 -0.4566459191665039 1.1714509074410857 0.6902285844867984
P 7.3708210802643945 2.5398047008909153 4.8964982224026325 1.2004691490503065 1.408258250346265 0.7388414603984953
P 8.900382111383045 5.5384499312222 2.2799895268079506 -2.9697881876668983 -1.2651095107385115 1.3007452576642502
P 1.7721258162630573 1.903709919981401 4.698653512592313 0.058448373944879985 0.7609179805825604 -0.2188301896014683
P -0.05943786382458164 4.035807618577104 8.895388212218 0.8469180388934641 1.2712076532164494 -1.2105622716202507
P 3.882592236443134 4.721230233442116 8.993674407522494 -2.466319394609585 -0.6855414634237742 0.6129576785187766
P 0.6500467702882913 0.8882408519172116 7.054376589764152 -0.47360285873581665 0.4404600534352608 -1.4514196162250874
Ni 3.7680372084980505 5.722797315938933 6.9714600844914445 2.056348510902117 -0.6490086586050628 0.1337351596033374
Ni 5.316701547566804 3.349783105982206 10.303059397055515 0.26921789802540086 0.7383092420441091 0.813603226791418
Ni 7.751739003597103 1.3297587646914375 6.926369610554351 0.38527029563699455 -0.25571883509770155 -0.594871253330711
Ni 7.641128720774048 0.35352139066127364 10.56270603977411 -2.874877457129926 0.13105812699180652 -1.1948399757889874
Ni 5.101851837892418 8.904456496016126 8.464297946114936 1.294592350688977 1.4731924891258048 -0.7383478085915283
Ni 7.63775809348668 7.439011463078038 9.29868191515838 0.7619651909001522 0.002759565023008151 0.2859460094133591
Ni 4.2229700326766935 1.1495042845379342 13.427016030763214 -2.127043049204201 -2.3080168300795285 2.0430659348605973
Ni 5.323285382735258 2.699965056831272 12.645718515499286 0.7280726519177654 2.4433913250585015 -0.031007247014791763
Ni 3.8173280025932477 8.033890139437915 6.273580964607298 1.8096681318575996 -0.8396117350400379 2.596803651375792
Ni 2.988218509656629 9.026234296719851 10.065951509329913 -0.7935293388596785 -0.34933630074454675 1.2237941969294923
Ni 8.782595355626723 7.959004801874914 5.681306190426563 0.6620834895111501 0.4726083560330312 -0.3046939794448236
Ni 6.000716647740387 6.9220090930004465 13.504700655768444 0.31897774305734744 -0.004580163171514693 0.37892635569683775
Ni 2.6061986504799735 0.08490276778133361 7.79649241480546 -0.709204611368669 -0.7756498874760964 -1.0722911718197725
Ni 0.16683308677353365 3.1327110046897775 5.8588891706558766 0.7460829724522571 -0.5110890286067327 -0.25244299255990715
Ni 0.3374627592278921 3.702735934787864 1.0933083344861738 -1.2599112543670237 2.222694771672256 -0.4083860557188515
Ni 1.2977192855313058 2.4771888170525305 12.945508032815306 2.2693816342058333 0.5901823324954739 -1.821418073304676
Ni 3.4440865903078652 3.7926687155980368 0.6285016095478642 -0.14213701051378747 -1.6840432600662223 0.5352854233472781
Ni 4.763853852683181 5.087943370349494 12.49103913288693 1.775805931892516 -0.48895080194679663 -0.3370726528858453
Ni 4.550393137770072 7.767610583735966 4.156375141845503 0.4511686981020166 0.4479627895702092 -0.6491230726957401
Ni 0.4565866539410703 8.15118611704525 2.976866718470963 -0.693900891132063 0.3435070956572794 0.9475271053667939
Ni 8.454792591965262 6.202667226065043 7.141914743605882 -0.6725990443304932 -0.4478247213304481 0.9717001030685717
Ni 5.720639744076416 2.1525066616214055 8.377396877870378 0.2850463804172252 -0.8712787271260155 -1.0550059023767637
Ni 5.019938186837354 0.7595254853791593 10.684722747576776 0.7083921427697026 0.5178579718994502 0.6555693425417162
Ni 7.984006707577906 4.936431821789357 4.517071153447028 -0.42644754120625267 0.7604076166050453 0.612708538622448
P 1.797072162175599 2.217706075715766 1.3930478479907875 2.097137777004337 -0.8465665690913162 1.9247283407592528
P 4.040178322092591 7.914649569164789 13.18361877475855 -0.2128778286727753 1.0454501403675287 -0.8861929252336866
P 1.3207765985685103 5.059635657114661 12.862985076058294 -0.09800428186063122 -0.6891746893009872 -0.5857847176484104
P 7.560733703991313 2.362254130539365 0.869216253670249 -0.28409712913007845 -0.31808557026038126 -0.6999761507918655
P 1.2985619423531474 7.766814226739501 8.960184817831589 1.472635331070754 -2.246486988995847 -1.4444316149430285
P 7.284444126043092 8.437819075982452 7.36758379647411 0.05539853137496266 0.8789421572085443 0.05901144553720159
P 5.5625165804525984 5.347166832664154 5.35016798734502 -0.9525322718908693 -0.11037360205926153 0.4783372880970085
P 6.959095253126553 2.035507002896474 11.584472810085932 0.4709435667360986 0.7800675569278178 -1.1146151293989643
Ni 5.57981419521304 0.5404884194977766 6.159600980493384 0.8666517698769655 -1.7555142715230154 1.3979653530606893
Ni 2.999478627188051 3.85955344333608 11.45501479434885 0.1525342945877115 -0.009053368451519892 0.029722466765097197
Ni 2.0610552465389027 8.212338926401758 5.032325242118426 -2.4443318345949 0.5151056059652935 -0.4863200491921689
Ni 1.51835647337768 5.502086048371958 9.552473481959938 1.7221238689880278 0.6651220192271577 -1.413708731937875
Ni 3.105773766286071 2.9740415031265246 3.2700964765277227 -0.1137054946459719 -0.8384313415786915 -1.5294266290281855
Ni 5.579027098181649 2.4452604574733012 1.9082473028682407 -1.2235388863855767 -0.6301393325043857 -1.0311635485415271
Ni 0.9035716500956839 7.201993397013666 11.8762256037132 -0.061516471347242446 -0.011627299826283202 0.7879364181529334
Ni 7.730533683574935 7.643934490191828 11.863106085194682 -0.4915864397974308 -0.3336098911482254 -0.5450926392456871
Ni 6.11454013844453 6.212455009149511 3.17242143891819 0.4573354890343608 -0.09528842559136493 -0.22926064090617293
Ni 7.598162482825201 3.4770520659755153 2.8091761589314674 0.3003606421767924 -1.0731586620263907 1.0115331759051096
Ni 5.352435752791933 2.930380767797039 5.870761371878768 1.1805873225247152 0.6024999735205623 0.46219153157508136
Ni 5.643115316466988 4.513529216805772 7.893680378252038 -0.84940943785675 -1.2901505128675392 -1.1697583502300113
Ni 6.04855362731878 6.66037803976624 7.695442119926024 -1.6987635969955324 -0.02595425797191659 2.7177871677404157
Ni 6.9056467347126 0.35133696490003813 1.7332395189263357 -1.5679214426692738 0.991853438087995 -0.37264797888729373
Ni 8.892307421837486 1.0786099919223366 12.476279674553597 -0.8764510153555743 -0.22402253243568515 -0.024095864606939146
Ni 9.151141965618988 0.7265035239245509 4.51638036005242 0.5546789973825414 1.5289800284090698 0.5751686326954611
Ni 2.1582570999330937 4.089987674231997 7.4344407443169285 -1.5348015201868535 0.006239038931176352 2.2010034027417515
Ni 1.610076427447363 6.537739062310523 7.037868850024624 0.020532315625396896 1.124782042629637 0.15967193407375727
Ni 8.295030414523138 2.1211246399816117 9.06279356483318 -1.7548907790064034 0.3631685786419488 0.5539858279702587
Ni 3.1671673347345313 5.478871315928475 2.6229730772136666 1.1809259368110565 -1.304843853213656 -0.7009254020790122
Ni 4.44927431914908 7.671316206919143 1.7720545145319784 -0.12142188945362314 -0.2951317896776853 -0.42245950309278213
Ni 6.052979890624718 1.1618663379133027 4.087457851773458 -0.4848884589519649 -0.5655773894626002 -2.087860979688101
Ni 3.491201292610394 2.1925374906414192 9.344368730846314 -0.7161841280102955 0.3068336514956458 -1.011836051857509
Ni 8.528872312566723 5.9512591742738365 -0.09066894803364978 0.5185375144649779 0.15294592820383335 0.5138935879350633
P 7.551149640138499 8.783391712623189 3.741628714100138 -0.4368851915998089 -1.5203354653601946 -0.06110175240732702
P 0.49479419583778095 5.463249754846642 5.537496154819456 1.2005056587151972 -0.25577539936724986 0.3638164966385928
P 9.09368388232748 8.469775215456908 13.404599507309213 0.27351806806265155 -1.1724466956954518 1.0446998924650652
P 6.988366002729205 5.477000802983288 11.696080391147584 -0.7926335665182865 -0.2475067316005544 0.7935681625174139
P 4.233711592163905 0.4074903191124525 2.6532096411736608 1.1336286943869895 1.337480922522387 -0.5449602274328808
P 5.7465769062520025 7.984330806355538 10.348096163195173 0.42988382058131125 0.8348287118290977 0.2127970960335109
P 2.563871350121314 7.462513254438852 3.1011734156367208 -0.32331082321506255 -0.2460671709405504 0.36671207301883296
P 3.879453108282647 1.5429509406173647 6.955535722551653 0.49812372669531635 1.3563692747864575 0.6045416865409395
