# total energy = -381157.84773538046 ev
CRYSTAL
PRIMVEC
9.31415323205700 0.00000000000000 0.00000000000000
0.00000000000000 9.31415323205700 0.00000000000000
0.00000000000000 0.00000000000000 13.63220474416069
PRIMCOORD
 96 1
Ni 3.8374125520972977 4.797478222852936 2.0088551720820864 -0.9712141645710886 0.06892921887154581 0.9856995026714572
Ni 9.466812323909759 4.689191876000079 6.686760157052035 -3.367875432562903 1.108410543250149 -0.9226190292712045
Ni 4.305551213646535 8.62071463355078 6.626274045193919 -0.8451838298111767 1.3977522086086185 -0.49447507419913544
Ni 2.0051509332945945 0.9975178813779784 8.4263934521994 -0.7994181935402878 -0.640111356115433 -1.1392393557055476
Ni 5.442203917774209 8.744369333431953 0.8237027400430483 1.2827830167588745 -1.0597164204785556 1.2993537766333623
Ni 3.8550069877763833 2.4174885021210146 4.1006221430442755 0.7989355974769143 -1.162165625484418 -0.532647985724431
Ni 4.077056403652187 4.630624479732165 11.735651595633545 0.4008303548587807 0.8006608076981372 0.5395053749658967
Ni 1.3743592117856613 3.5683080334947923 2.46358517846795 0.12074183266746302 0.8039258516026542 0.6450638150247019
Ni 2.518183813993218 7.558612412840468 5.203671244714034 -2.169615118238457 -0.6523076410713089 0.9321243976584785
Ni 1.499895370643635 2.8571537968777876 11.574737488104386 -0.1443471307912288 0.09954411554392534 -1.5362387668540123
Ni 6.88822622543858 4.630428882511805 7.136909462820125 0.44456841917667955 0.18506389178430063 -0.3766966950353706
Ni 0.6774248930888571 0.4041867532294017 0.8410894701024176 -0.025452635745149714 1.9297121671270896 0.3616398007022481
Ni 2.9948542400115072 7.415900955204182 2.4524063316166855 -0.9523908612169985 -1.6837457834304617 -1.7724426718472377
Ni 7.841241082107893 3.2415489056527216 1.6902300943610031 -0.5521338623631846 0.2994733544758327 1.5246099243658324
Ni 8.747312605890711 0.28131071656832957 8.146810511077586 -0.5404281438904821 0.7244144863398879 0.1304847709868398
Ni 0.3388600758750339 0.8697575026999066 12.211006863198746 -2.9495340654035527 0.1079937889731753 3.623073362160128
Ni 1.8491109222137494 6.334937573959118 12.904095367977131 2.1434037499504117 -0.004522827571018017 1.1461749064831164
Ni 5.961700820898076 5.79603928940617 5.105151719064506 1.683535467191868 -0.542217374580421 0.3381147209971145
Ni 7.897219143744368 6.197749409259674 3.241084129400532 -0.062127108348047855 -0.6873571764762744 -0.27190598638052527
Ni 3.409548289635603 8.974279894735576 11.554698087170797 -0.20795108079511926 0.651909891412258 -0.2014572455406595
Ni 6.160632508157951 6.996531200598137 10.241779687961676 -0.022830881851586486 0.40881363017457334 -0.65011860383979
Ni 7.031468589815845 2.291840573422835 8.495385248897186 0.6145062539528191 0.564617339542176 0.2897833808815783
Ni 7.461121169720835 2.0476607291862545 13.213355064504292 -0.9274845848936221 0.5075583897456549 -1.8979652137327958
Ni 0.89502866357047 7.718052089894243 11.28934717236854 0.06681474363170428 0.9921822821823235 0.8145380799008617
P 8.449455295895227 6.906202541405036 10.377747698572204 -0.8694583860878252 -1.823631793126543 -1.4986955184929156
Ni 7.180224932976603 8.363122408489486 6.3921003959017755 1.0761982201836626 0.4495231920787936 -0.35685214950561767
P 1.7351801984304926 8.251380510743596 9.448958023352194 1.624100560964003 -0.9473921224508265 -2.121254467546882
Ni 4.175311407346561 5.423706009220126 8.78250706574089 0.6208278252954728 -0.8618525487161093 0.1474242270546558
P 2.0707132587287296 1.7222987243467578 1.9882839329921826 0.9930484868373607 -1.461067937948129 -0.00191392919326122
P 8.98829769552807 2.402855967207387 9.93403354135397 -0.06016278553282542 0.1068380781021773 -0.25269444644908096
P 5.678979010097146 3.276160299503162 2.3322798330246797 -0.758249689721778 0.25486034375214817 -0.24993462431575664
Ni 5.928253696216448 1.0753096901613137 6.165996529072501 0.34771444887040764 1.2613703554110536 -1.4939636602348851
Ni 8.99244249376904 6.065814427049911 12.753800326682871 0.2484338714005141 1.3722023851639724 -2.2468677693740338
Ni 8.068199056799408 0.25907224402868734 10.223117850308624 -0.3744024996845552 1.2821456402851918 0.698735850626861
Ni 4.183172552774379 6.346440553346978 3.9416155741212973 1.3228814274416574 0.6318671138287698 -0.641772802978256
Ni 1.3418807590524848 0.6155649436115437 10.511643310062247 1.199747954613566 1.5939978280413516 -2.079947381267979
Ni 1.8688289848567474 5.815580383135508 6.532921080407912 -2.553810692754034 -1.3323672554449053 -0.5255728240452044
Ni 9.522604102479225 0.6650752571614357 6.088170257921769 0.5063026629616828 0.9644382792998357 -1.8361962600551152
Ni 4.645359470332649 1.965221157881022 0.431506096421739 -0.10466575304120684 1.4329048452503514 -0.8329803457664493
Ni 5.855724384076142 0.12575317863104007 11.218554949828102 0.32903872683777524 0.8047126091700076 -0.982041851314212
Ni 3.8742779710585578 5.886675315659837 6.222992627670187 3.7760953950175353 -1.545989161372557 -0.3248118332406213
Ni 1.4752873774916269 2.72007740201855 5.221271268885129 2.0136625419978156 -0.40474640208373525 0.6548772015706981
Ni 5.278041964971732 3.5618533252228994 5.933703407341822 -2.3266444724830446 0.10322105017488029 1.054138412170146
Ni 9.416888461951105 1.3253760793154075 3.0831002545154385 2.4405965359221837 1.3133868576876606 -2.451899619639829
Ni 6.129737461494359 4.440047588027684 10.061930838086296 -1.415716506396523 2.1795696583480075 -1.5686431513266468
Ni 3.7829154408435506 1.8999755136608034 7.502784309072935 1.4060339890014366 -0.0012318155245720722 -1.5333375340468174
Ni 0.6315117055629264 6.400015563419027 8.664016132477231 -0.2765290869748334 0.055603705407233264 1.372311657048327
Ni 6.093496090807582 0.1439586227699179 8.192545798274523 -0.025592246646807534 -1.2685709869245507 1.4633163676626735
Ni 1.174989759318313 5.404351198557797 10.88123916057858 0.6788540241012696 -0.8955635678153093 -0.2041651313901258
Ni 2.8033645612786775 7.169634740617091 7.874152642971867 -0.37594953245670093 0.589722619250236 0.1922519248923076
Ni 5.404202172104189 6.936538738867599 7.538541343785487 1.4846385261792174 0.0021034194962479902 1.0780710117263435
Ni 3.931075678189877 0.17946976383401567 2.0336522425471095 -1.8621199218994122 3.0382260687243225 1.529391662025192
Ni 6.257471760543049 8.094101717267135 4.363164840611357 0.24126692133842964 -0.3344575838605014 -0.9736109469380395
Ni 8.622819632207992 4.1918067729302875 11.41915293912238 -1.3152524501414897 -1.8938074828106806 -0.15195245394231252
Ni -0.07372152376916906 7.8228735717007165 1.2322298887337808 3.9202309240185906 -2.631397587300578 1.300315112105367
Ni 3.499057303333861 3.350878437680834 9.964419103829293 -0.5262230560346937 -0.1965065864036035 -0.3280305972882351
P 4.250010917217532 1.865131265976601 11.852588928118342 -1.3603316018683154 -0.44730150183712647 0.22795117806613
Ni 0.5559552935837098 7.962557929498092 7.061018672735626 0.3824623938745543 -0.7610056552003603 -1.2351078221700986
P 8.062489480795554 6.3200721852117265 5.526209198257661 -0.01518210705707708 -0.49601053700705544 0.8296818775208356
Ni 2.867352794796579 8.47303873217868 0.26486564741269536 0.00138351061108794 -3.6150908581752836 -0.40292734659712537
P 3.932184062438586 6.272989140024975 -0.16192469316768796 0.45904681529851266 -0.9524697940840499 0.4531659310377035
P 7.9078372785639335 0.06445114693942124 0.10030691167748736 -0.07456481989076835 -0.14931681609167835 0.4682192258264001
P 7.85757810708466 2.421279362534666 6.34146958970382 -0.44514640316733656 0.12450052837894689 -0.45603811037917585
Ni 5.8204144287244155 6.479623632105709 2.0735810865453472 -0.7424448614790374 0.2660240736784515 -0.02349705468067566
Ni 6.309137369178245 5.543569848687648 12.12010724640526 0.7615098485302885 0.42564381435803467 0.4736614798878939
Ni 0.07247715288154291 5.082044236017263 1.1574754253580417 1.512874123986143 1.477927689817945 2.19581337390038
Ni 6.464544017831257 1.2358577514637985 1.446813079283828 1.0809331637654869 0.9379808564392554 3.013709828750513
Ni 7.787442532355433 8.122742738819907 11.987452280141502 -0.7781040054435439 0.1627883682155519 -0.25968167640019146
Ni 5.42095833398173 4.5187056130726155 0.4884062592399138 1.4169195255656888 -0.17012346842438444 -1.1402785956033394
Ni 1.5958590926137863 4.297298873777995 8.738134439179133 0.8846703179415732 -0.2805158395367233 0.06593568346086064
Ni 6.039613713674967 2.6709731855547396 11.123320526065294 0.8709149160286935 -1.7101677250674159 1.2823497858761979
Ni 4.040004701623918 8.680762980201422 4.185359515981075 0.8448009925504613 1.9250803247820327 0.15807990699628902
Ni 3.09460882239531 4.551249264879246 4.357302512492556 -1.394656086181798 -0.9918683504863305 0.5807972917361481
Ni 3.392419561624042 6.667862671319216 10.522167371932971 -0.9278357975854536 -0.35689045894272087 1.601024652981146
Ni 7.419784957151339 8.479838064124541 2.254425619413896 -0.845200284871409 0.889184660872159 1.6788259775313408
Ni 7.495099201143441 7.13296491887619 0.3704387813945526 -4.132282914355961 -1.7401197913448163 0.033111180731672005
Ni 6.693942300700602 2.980482501391693 4.328552515345582 -1.3995897760379896 -0.5165644498990072 -1.2361519471638969
Ni 7.7175770680733695 6.901955287477209 7.961685193329151 0.44523562044703324 -0.7934367791458722 1.2297406443209142
Ni 2.4592811082046864 3.9899876981317592 13.271714755152487 -0.013781112944492396 0.11714048846944987 1.7460945208710121
Ni 9.070029391178666 7.886386783397742 4.363832665406588 -0.031842855542209676 0.2755718652678867 0.7043609101231225
Ni 8.103471755537733 4.652503425952478 9.11090734740332 2.1357228363663863 0.04443303350239444 -0.11574077990844582
Ni 4.040302754531134 8.35024093440575 9.194690019621692 1.8277558425972458 2.167355632780319 0.4678176195126072
Ni 5.24846021393056 7.861387595805014 12.682108356928774 -0.49275783439771265 -3.1181889197022103 -2.8963186577228375
Ni 4.62148729529533 1.396061189092315 9.647279633567612 -0.02404007166833924 -0.7267732163800515 -0.09528276916441011
Ni 7.878181014295957 0.7774840482872213 4.2621910355539745 -3.5739956307968708 -0.7759730751434701 2.0695845499764163
Ni 0.7423985640312412 5.166793717353419 4.306658666479908 0.35280651868133434 1.2255093798483863 0.4446488947056278
Ni 8.89029417397416 3.2755735078420805 4.293626303111895 -1.169265726864309 -0.2896219156030496 0.03385525798654814
Ni 0.41336026286430433 2.7614508712014496 7.509613446309518 -0.7810137228911711 -3.084127716352443 1.4247102252547013
P 2.405054107398103 0.45164795304218475 5.627960735119809 0.3300761669633541 0.5267521890652863 -0.032145731494609156
Ni 0.07824168239016435 3.0998340624249385 13.551679576561671 2.3257589845542976 -0.4259173797343954 -0.2343123443974674
P 5.603515739651434 0.7995977111719669 3.5526341762365794 0.6008853207352748 0.0409396756371553 0.28600154524164295
Ni 2.557834164806275 1.1730244729613584 13.523556421935186 0.003420081425142497 3.6003723210181864 -1.8999909859135728
P 0.9460199275030907 6.546769363609428 2.7145671488963976 0.1254394952534485 0.3931209020296649 0.008967236495616815
P 7.7749149960990165 4.6242535988404265 -0.07178138562626092 -2.7037862254756337 -1.3979219014172632 -0.4345472874952517
P 3.3505896989269686 3.963162936482333 7.381784142896653 -0.0587947015407052 0.3953297367555256 -0.11845097975075729
Ni 1.638871852786373 8.891579527136528 3.4795385635725635 0.19897278855590894 1.7468221430656563 -0.5656910322223291
