# total energy = -381164.415110902 ev
CRYSTAL
PRIMVEC
9.25869718810278 0.00000000000000 0.00000000000000
0.00000000000000 9.25869718810278 0.00000000000000
0.00000000000000 0.00000000000000 13.55103921825156
PRIMCOORD
 96 1
Ni 2.677374494451877 6.418378860704599 6.941560061497174 -0.18617383701902776 1.124531617181728 0.1494777671495748
Ni 2.1976536181592814 4.719981969859421 8.975083829114574 1.0118427367257283 1.515139780091868 -0.043500751496112176
Ni 5.3220194944198544 8.767939923276144 7.630386761557801 1.7786151192065367 -0.7191522094996841 -1.4608190551621163
Ni 0.865416905249307 2.734972849525242 2.9288675597182805 0.31025656113426564 0.6188539893985535 0.9949392761021704
Ni 8.281562043720768 -0.07027351149442809 5.833912491626922 -1.1569802246287364 0.4332380817655248 0.1141091578422938
Ni 0.06464977883544053 7.019805311252037 2.6372630407170536 0.6815053456811876 -1.4776266136377583 0.7403316717907766
Ni 5.4139213224954394 5.797583215684651 10.64008645101929 -1.8126516399659556 0.8602754340369765 1.382709198232567
Ni 4.510763189985957 1.911957999689773 5.0250097480127724 0.17963706434177448 1.7460829509067863 -0.10982312887243022
Ni 0.8371936186763866 0.8982825025815562 11.395529477193543 -0.7391340519382497 -0.18806308362194063 -2.5922209171011166
Ni 7.607149283409091 9.284251170771109 10.967275846710594 0.44974996337761897 0.5059601920205996 -0.04773510129243392
Ni 2.759230636101711 2.6275349276041164 13.71487107808305 -1.3399229563049764 -0.40643870218449357 -1.5707614832212302
Ni 8.701490253711519 5.47815816343725 13.320116339818547 -1.9807920165220403 0.6686171768646098 -0.7685893810848892
Ni 5.256495694571888 2.560261233991664 13.301307296524616 0.1792596263976977 1.1916014142470315 0.42817840785443034
Ni 1.1794932081435676 3.3879702432905945 5.139339844104708 -0.1347206634450583 -0.02934862836544623 1.6908564263333137
Ni 7.476472031599821 7.925676242031332 0.2861002235356883 -0.12233000309018932 -0.7591801719558474 0.5114528397040546
Ni 3.3564073446496847 3.8915230060899964 4.427259926110186 -0.10886359317263833 -0.6867054018248884 1.6923427810708533
Ni 6.713601678558529 6.029550614496429 7.289239879887861 -0.549495396299073 1.4716719387162203 1.3382720509651145
Ni 8.025707206219185 0.8961715196275734 13.12212187852014 0.7557906866583243 -0.02521995090905334 1.4075920775171757
Ni 5.271698475319431 7.096708049917745 1.860801846104923 0.8609336364462656 0.13695880874695768 0.3028314723147882
Ni 5.005418344808264 9.11715020430847 5.2100225900138994 -0.5351676668224912 -2.418201198946119 1.3798910120574814
Ni 7.545754862497424 3.282791443478117 0.31561417249363144 0.888286831648238 -0.9264787693369269 0.568684310522698
Ni 8.988852437671012 6.623023844177767 9.067298601154391 0.15279783266174332 0.45856036258039734 -2.0342023138223806
Ni 6.371307644309648 7.361534564973756 4.350981223633506 0.12537778877757763 0.5976675851289256 -0.5570487831662988
Ni 1.2733115865326374 6.9138395221804 0.3397015990422354 -0.6005814163416108 -1.4221527489401702 -1.2287052610778646
P 4.653236021985464 4.59585061694693 3.052303584473559 1.8747489235173325 1.65443469317117 -1.2779817387154893
Ni 1.105895824366333 0.6671354243387373 7.0152102198482575 -0.1690045243285928 1.0699051880860992 -0.32998077903607037
P 1.9937956239452739 7.011315085950273 8.82818996921802 -0.2511237595278514 0.5027067180803083 1.3121177611672499
Ni 0.5411625165598125 7.815423676171562 6.99164498381985 0.15352648329765173 -1.9713488688312695 0.5345236054805891
P 0.2578158295614685 2.233975487143819 0.6722064127768794 1.3435240433926732 -0.5142214035881273 -0.6948676259207065
P 5.717254759067305 8.075352340426447 11.256604577948274 -1.9004620120127202 0.17911693017224636 1.5918483857985164
P 4.112046655203868 1.4888077630850503 7.6945921229292455 0.4551341105076678 0.14127183430001478 -0.8478261525300302
Ni 3.242942010873108 0.30400839559530923 10.878936765304713 -0.21000564933130286 0.29122319865189844 0.01361064880489914
Ni 7.68415386774363 5.296456231542896 2.5082569837463535 -0.16306964690139655 0.23595425087626462 0.16300742620489347
Ni 2.4331763566830316 8.222232312277251 5.448940492788639 0.31772330182495606 -0.1047950795302195 -1.3529882741293666
Ni 7.919898814999378 6.762311684351966 11.624176707201382 0.1038147178948212 1.2908750497383898 0.3515631331925365
Ni 3.024908951297049 5.600835900894586 10.906973952064584 0.03307827061120755 -0.24428076846408897 0.9396237913593173
Ni 3.410080012124414 7.566198065841257 12.386855405211326 0.7605603401328257 0.31624748861037794 -0.03185365417548708
Ni 3.0547126974763064 8.891413908689806 7.607403897581172 -0.7352575997019788 -0.9570900664648808 1.2391287704040337
Ni 8.163772898367395 1.6442335124206187 2.1457391772764876 -1.8182322193775267 -0.39393902705558603 0.32439968540386716
Ni 2.8890283116801547 8.065149256148864 1.2914401155848232 0.9900112426729336 -1.2587655707983547 1.9245969573877113
Ni 2.891500383823635 4.018672694278795 1.9951335056858464 -0.829373088031165 0.6297235851232058 -0.3022465463455956
Ni 0.30514443773764993 5.279253572207369 10.67754158453702 2.641526962425096 -1.8474877738085345 2.319629474617792
Ni 2.3985117944913132 3.05877726553244 11.15742448803003 -0.41694294414992705 -0.004126877684179989 -0.36521286276548715
Ni 7.494794993292505 2.7272973895741375 5.23984763119664 1.6550769547408595 0.3472246537181827 -1.404959010769703
Ni 1.406210925661889 7.52123783240029 10.983497084146462 0.6876109443582932 -0.7055888689929526 0.9348371686039512
Ni 6.292405027055957 3.1367632717666387 3.247492660530488 -0.050710381870673955 0.47489432385373054 -0.3895002745579421
Ni 5.689274976229865 6.6037379779797565 12.964089805932177 -0.5684639669817758 0.6258921271922575 -0.5559648060735006
Ni 4.031347850699858 3.2514507535692054 8.930107855888425 -0.8928757365705011 -0.25581268036308846 -1.6815444049037684
Ni 0.24194457087849766 8.824982756519512 1.2657148255074493 -1.8296833986372616 0.34390638797822703 -0.06504042534010089
Ni 3.578069813515047 5.864143989615275 0.5779732447547462 0.038146686273050436 -0.9663583791406841 -0.5191898033369962
Ni 1.9146522805652513 1.6775555635231807 9.083058755471363 0.09949475036322865 -1.3143718473087493 2.578252627846482
Ni 6.135858975363231 4.897665627183475 0.9266298556965087 -2.007565942181775 -0.10812671500661379 0.572892949287407
Ni 1.7705406591672574 0.09943377822060745 13.165593313456721 2.038839812594392 0.5733963712863867 0.10825655571625871
Ni 8.553008527250892 6.686751456775414 5.294973914126524 -0.7055217632004429 1.9146141351433865 -0.024845084068137856
Ni 6.3705947246278205 1.5232130817561036 6.65663661837136 -1.7227962124647038 -1.5579949275841813 0.8614751107720325
Ni 1.8970237211600613 0.8840592919942386 2.006393933179855 -0.39513099048115824 1.6692851279204413 0.870289880850185
P 5.558699570089429 4.736230983386788 8.871431788464868 0.4898144354986726 -0.11823089332015121 -1.8036566355561972
Ni 1.5456283875964212 4.637977689054922 12.873961944233711 1.5763736872016851 0.8025271714829146 -0.6290913508558457
P 7.420540242016443 8.021457464219719 7.716883362227532 1.464633286701884 -0.302929174234917 -1.7520975325319825
Ni 6.146136129218148 0.4267074280561273 3.336347451368548 2.2808922059485943 0.3724690301072682 0.6799050910736033
P 9.325359786190775 8.28098800449644 12.484274490928483 -1.863606790857584 -0.3160572269764428 0.46740135791079507
P 8.818640548960397 2.0244789463553574 6.873506785583295 -0.6026416413047492 1.8235070946232208 -0.5015998581693748
P 4.463784560562672 4.399473650043529 12.630693379660391 -0.8662162250014436 1.1115436895624922 -0.9101928876927099
Ni 4.642005222322388 2.7211866494441876 10.866551406104964 0.8912590269026844 -0.5426989422025298 3.2466947125858083
Ni 6.720591994919305 4.512439014173109 12.068583060761165 -0.07062177608262031 0.32744927086346837 0.792418622294003
Ni 0.2928674052947499 3.8122870757383076 8.67964343187723 -2.6186202330302515 -2.0643821798398703 0.6022017255538531
Ni 2.003507997273028 1.2375452393780952 4.894689881914132 1.3100817045738276 0.5061846493265798 -0.5982471117814794
Ni 5.288169697578796 0.6306996733790505 9.537234886281333 -1.1389498494895869 -1.3469760064970158 1.7933789077792726
Ni 3.9162622449191287 0.23047582269824096 3.088918954158278 -0.7531342228720836 -0.5155354944138605 0.5840237690932458
Ni 3.867459652154025 4.647125281855514 6.97679310769492 1.655678335770284 -1.4448193372997504 -0.2406827667001855
Ni 4.836530449792472 6.640754249251789 5.931710258058192 -0.8464187306595422 1.0288343861877185 0.6203038344712027
Ni 3.7645862679360294 6.89278524482357 3.753474905466403 0.034568482003488846 -0.0755922327140182 -0.1413739070955178
Ni 8.82450130426685 4.70127014288574 4.428181166478262 -1.0160135802739663 -0.9444394675804056 -2.0172222343246164
Ni 6.418943641231761 3.7995471084370784 6.987213771355919 -0.5349694347687561 -0.5319039084695549 1.2046914146617704
Ni 6.431461399800992 2.4136219882671903 9.24394991374437 1.4144713211355124 2.803270691426217 -0.349332701200121
Ni 4.416778155047888 2.347940790567392 1.8126816193209978 1.0415927142946513 -0.2973012865251783 2.3434155212937964
Ni 4.347402737178619 6.947874492964789 8.671472631627712 -0.47527304734938797 -1.2270304444786029 0.35271293052626357
Ni 2.1153438003482847 2.908980804074159 7.381156521878913 0.6395616542595501 0.8290342166345077 -2.8448258891601843
Ni 0.12743115258266294 2.946071144923524 11.982317001650884 -0.6508454547034855 1.5108360105101915 1.1049284982388197
Ni 5.888661019712409 0.42025504200072983 1.0551100186681466 0.6779037443728583 -0.1475862065538168 2.127800496195516
Ni 7.486267733202075 5.200721302840342 10.000084564596966 -0.679268743041185 -2.3531530602965343 -2.071186090135581
Ni 8.699166320722703 4.880472226545114 6.818571231815041 0.7075295376590912 -0.5750889284974612 0.024111034115590735
Ni 7.83908890612937 0.7388949567284033 8.38715841077546 0.7031314085913954 0.1397350859405142 0.7482193020689696
Ni 6.884480193465139 2.2705658583461883 11.723559562587573 0.4398692139287973 -0.21652853805148514 -1.804996437413543
Ni 6.415342008033957 5.177333833797531 5.1255860494637355 0.3139175549256206 -1.5905810890503187 -1.6922576775562146
Ni 1.8172600450698773 5.376525444639578 3.493281442472554 -1.4214364395994359 0.9168875261040661 0.37167815877485666
Ni 0.602126408053233 8.779068877270387 9.30746365043747 0.18294221745560751 1.6236601309924747 -0.8893638667625007
Ni 0.36834985981510227 4.2661761869361134 1.243624499937679 0.9530506062881844 0.2949417851540662 2.262160433867046
P 1.5945050499388569 8.346650684801906 3.402259190627795 2.247046461043743 -0.6965002764281231 -0.2500364400009436
Ni 5.285734660223983 0.4518188665113563 12.58856352994325 -1.1002197799092406 -1.1999706121473332 -3.133020071177772
P 7.386875619118716 7.858846965882876 2.5717707204394538 -0.7436571366195838 0.9945225002797261 -1.0820418234486333
Ni 9.403040255418475 0.49696982911395554 3.7749263809316784 -1.7425286578966248 0.010287497968937121 0.3935916710184964
P 3.5857174973746515 0.6705213298925597 0.7744427986298139 2.83549587000851 0.43460539442669666 -1.3116382504276702
P 1.2262774049263536 5.6946450205864885 5.7002039423653095 -0.9235839642876352 -0.8195010803330919 -1.1489576114345759
P 8.510881455142902 2.196811076717122 10.186925999288496 -0.03480348083243038 -0.43344556979064064 -1.015035275521097
Ni 6.842084619139317 7.484332665494256 9.685646246643492 -0.4108419734585118 -0.09700000896583295 -2.6170960830762415
