# total energy = -340893.0467826086 ev
CRYSTAL
PRIMVEC
9.06852433152388 0.00000000000000 0.00000000000000

0.00000000000000 9.06852433152388 0.00000000000000

0.00000000000000 0.00000000000000 13.27270201967479

PRIMCOORD
 96 1
Ni 6.401616263756503 2.1048407194098724 11.515688009015031 -0.36827864617500444 -0.5463414240511235 -0.27118016395809424
Ni 4.616241511599979 0.583534134439781 6.181322769288607 0.5658663814579286 -1.6539513257768483 0.6959076371494467
Ni 2.930257783659892 1.7280254057017113 4.87084304647076 -1.5015224464187495 -1.639128401831403 1.1168851563800637
Ni 3.4970224033203814 4.199207293475768 4.764143698676217 -0.4401430364154742 0.45154433627388035 0.28988313968423624
Ni 5.107329297584722 4.436494295268407 2.5816600895641275 0.04044705227145292 -0.013553056094086337 0.07012143940743407
Ni 7.38191465123577 6.069554116518061 2.7733043026721176 -0.45404190588475346 0.6756347458330235 -0.2970179509568046
Ni 4.926085774775439 4.634115572615544 11.375382524583511 0.7963871200234478 0.41429625055569935 0.5207224379314388
Ni 5.566822345579495 7.912332626274043 12.332038362862532 0.5187534871305259 0.258367071353826 2.0645022503575023
Ni 1.9747527410900907 6.501914140383675 0.23980895834689023 0.8120268834432337 0.8065504337096948 1.255920645150392
Ni 2.7380957578253726 1.6762985441934481 0.35705953394032247 0.06652292342289834 -0.7692265004482559 0.27421972211536644
Ni 0.6666988484709572 0.20880639498112946 4.717370065035382 0.6237403709565773 -0.5814966317960178 0.5586559797524185
Ni 8.234482876663163 2.373613636903193 1.4616692498829962 2.910404189281626 1.1080156218045756 -0.5766698998313359
Ni 7.052192183217022 0.74492937853533 4.971662363234104 -1.1790618870191243 -1.1718229460685239 -0.19908900241879907
Ni 0.7889489014047656 7.029593421141532 2.3345219500336856 0.5721997798751243 1.5383660976096603 -0.5551759916236181
Ni 7.738108141123841 3.958428909901803 3.829306729399453 0.06399270080187688 -1.036905336121311 0.1309694239327422
Ni 7.639877887993143 3.9717324347672696 12.471614737955825 0.06066672175243746 0.05407209925405526 1.0724780910195981
Ni 8.270521191465729 8.789612579893937 7.204382875343621 -0.9069473841722188 0.5006992007319764 -0.733244168816376
Ni 6.841893109167824 0.7067617742723605 0.5769340625944596 -1.1676073653252794 -1.248900762189133 -0.6890757018292778
Ni 1.9335362990222336 6.616948368685274 8.923064980657541 -0.8071245610456099 0.273483101059658 1.415627803337459
Ni -0.20288102132939398 5.066520939101695 1.2132950705167238 0.45893882896573857 -1.496122872669733 -0.28090510455534207
Ni 6.59712457498663 1.9890900777037939 7.065895629995622 0.17395518346564878 -0.7440793117586669 1.0059752222013578
Ni 3.125439628022155 4.226485413990644 0.28124213814091253 0.9899983871571273 -0.5660023928151606 -1.1115133505451888
Ni 5.991546672146729 5.434204249033765 4.7823805006560764 -0.5182053279365397 0.4717452367017876 0.46959296624547514
Ni 5.287892681085953 3.1474398675065602 9.415972819430626 -0.1175724338005459 -0.8558559648130422 -0.7369936085564791
P 0.25344529804709626 5.725666613843649 12.40927226212751 0.19510893472512847 -0.37170952623342435 -0.09361335188178715
P 4.173996796457365 6.265180318561584 12.647212197655877 -1.5447146655355075 -0.8601921302945507 0.5715762873585124
P 2.565793799785927 8.649132072947143 1.4120562613441536 -1.4608558219373229 -0.5247510994748574 -0.34243186031522965
P 6.367536750161122 7.809368603559314 5.901042801555483 0.8058513507601412 -0.0788325940281868 -0.24665132557879454
P 4.872590551066245 0.9732521442478643 12.586197353756878 -0.8178571169717656 0.4601953270806591 0.6676033908881147
P 4.052995479293137 6.2016553071896725 8.203976361566074 -0.020893041398925307 -0.06742152397776775 -0.9414330766539143
P 4.8620619945776244 0.8528103550210595 3.898125945145229 0.20127444010589207 0.4277148379544505 -0.15949761327942208
P 0.47753850411596754 5.348778751942629 3.4876011136252667 -1.0028230497256214 -0.5073275046817715 0.2807037871778133
Ni 1.2479286709350634 1.173049867380763 2.5334935306204063 0.8842172895645545 -1.070249973020028 -0.8121096729650272
Ni 1.8235532386484228 6.717083011878514 4.503852571780491 0.3271430524769592 -0.9973121472097212 0.9156899062515391
Ni 6.139789835729403 5.642789372026676 9.159331773488104 -1.356499886827051 0.23311369610367597 0.596481021019992
Ni 8.571043011858846 2.5497787862123658 10.3831680964272 0.1653813257537087 -0.43691167396237013 0.4944467920643613
Ni 2.4356060677009643 5.230751910685608 6.94005716207254 -0.15182955521120303 -0.4330051398191123 -0.3341855611460374
Ni 0.5106748912041852 8.966448799987052 9.32727177143192 -0.08277203829190906 0.14460115578356386 -0.5240702713577491
Ni 1.2583121310379666 0.9405691833650137 11.42316367125267 0.2402981296672571 2.01810926491526 0.0638281501995546
Ni 4.389537477440604 6.721599136883969 1.7776393010929643 -0.8113614819450929 0.5861174183974809 -0.17746962437681046
Ni 5.625178298210223 7.826934334755229 7.958683666691476 -0.11637969904402536 0.0708446907267038 0.4164402934818957
Ni 5.187150446777522 2.594767734308876 5.094036654948184 0.9157788664209195 1.5010367650315826 -0.2498538916764923
Ni 0.9100354626956023 7.3508730932163475 6.598815854732648 0.1222649541802088 -0.31179536637629524 0.9778514673819483
Ni 4.964926263527174 4.484766049091774 7.119304702725796 0.5616700839883939 0.020819507848512532 -0.17261126784324465
Ni 8.114723947301641 6.957770710211406 9.197133009377138 0.59827230859246 1.1740230390436361 -0.09431372038292143
Ni 4.647827181065841 0.2272889539642976 10.506550808022016 -0.27865384662732007 1.2378424474924423 -1.1937619122334602
Ni 8.312853061998789 7.387791054857326 4.844987777388325 -0.9782021658531477 -0.5301416743628095 -0.15983262802133763
Ni 7.195728782787987 6.086802449370221 7.0309219599232575 0.6398737861833302 -0.31479687220678043 -0.9955062043492339
Ni 2.5339451431209516 4.932678591801475 2.2980093514203057 -0.8123004488195945 0.9270984051987969 2.316574232731236
Ni 2.354488119560815 5.324729026009965 11.483408597454956 -0.24086068703894645 -0.313576369536118 -0.4616150902463211
Ni 1.0967473055416106 3.1800321431483374 3.744348261299845 -0.19808627218589756 0.8941798000939052 0.5583307352025159
Ni 3.4183892307856425 2.514928448067861 2.882061298586616 0.8321614494095797 0.571595313521906 -2.2706072790828187
Ni 1.2244321249729473 3.326933165163126 8.172944778923169 -1.1062292193281142 1.1177487899319396 0.8861942107852674
Ni 3.5297507068237683 2.5471035716007004 7.157835047953061 0.46293689438153823 0.6531041688306752 0.3241333191163579
Ni 4.113083520028367 7.026664287854862 5.9340785280261095 0.6135179218976208 -0.0212095441980796 0.5107961799566622
Ni 0.8784425384104538 7.652464999454129 11.567305141381595 0.36071008979912716 -1.2290590448728573 -0.4913426992177409
P 0.2502903585101529 5.599514374986453 7.874587615234476 0.062013979808951264 -0.11772541443864241 0.20929731041036856
P 8.544526647368986 1.7360782551090286 8.394904161269585 0.49146302684568904 -0.7244790210292362 -1.9208354334627498
P 1.652611559225078 3.173802067086595 10.493531127961107 1.52800840852442 0.2230851082230803 -0.45303480477647784
P 3.912850507738316 6.176435741647162 3.968418796058448 0.24864444474942338 -0.866832518429204 -1.8171073617444642
P 6.972760980560838 4.09735869922624 10.462844149234282 -0.7910906475111987 0.2786456190972039 -1.0460852028483663
P 6.197501923148511 7.708345245003554 10.374421504925671 1.693700066429696 -0.6824664240428763 -2.160235219685454
P 2.5463690211480063 8.610037665520405 5.8762231579261055 -0.7745011185836339 1.0611238423490434 -0.228255082459794
P 6.80278056469287 3.9302983481208367 1.2214694381470794 -0.4878547406691405 1.016594906698733 1.7757352265555806
Ni 5.1694849618164245 2.6779623744696064 0.640203341586544 -1.1508561140088696 0.36381881063143795 -0.5012848980321173
Ni 1.3766019594941 1.2100313086904926 7.016016026848024 0.19666856590276452 -1.5507858114302517 0.5476629710760246
Ni 6.97472885029213 0.36750103259751293 9.151886515195978 -0.2013117211017307 0.5544779371153289 1.0844486331179128
Ni 2.663724791621084 1.637775453785471 9.203025736342086 0.6754108027476755 -0.9290912672591095 1.1887114942937462
Ni 6.330210704935314 2.084971583090692 2.702268739634508 -0.6962963879474331 -0.20895818190339496 1.0618949161871132
Ni 4.0970322323583765 6.899287798243175 10.35491057530873 -0.18995284444548574 -0.14785308706195827 -0.09846708042966269
Ni 8.177378380359247 7.340135960673258 0.4073363384438221 0.016754850860835658 0.00806786460979901 -0.41617675540786386
Ni 7.671300324025073 3.8974430852799467 8.18815541440841 0.5627620315009921 -0.09518789545775865 0.2613860606858079
Ni 3.14870039235748 8.476675949997873 12.357004916582449 0.07659933382229389 -0.04196657423977289 1.050757411513055
Ni 0.16528201352795466 4.963275792139638 10.156908419949085 0.408364972672929 -0.27101844156924937 -0.2026209268314575
Ni 8.806806501601452 2.3387905043310107 5.717640970008653 -1.2905495480781708 0.6473595530374141 -0.12023532534468968
Ni 3.637457567646637 2.6855890032438787 11.569376392287712 -0.42582044914521505 -0.49605887374648766 -0.6310307339704034
Ni 0.8424386839994954 3.370063065817632 12.510264787701304 0.9606243048703842 -0.1884063258939723 0.7690233832985143
Ni 3.210094300564167 8.40217802445608 7.96841237935383 0.08352074353247552 0.691313590020861 0.5944863591874665
Ni 5.594454138534558 7.7160081478742555 3.7445876703362786 0.15816166807681795 0.6044082462868687 0.4363648003199646
Ni 2.9999312543765795 8.499537699272475 3.6551430033607697 1.0029333500512405 0.6016013729656929 -0.7507140434663652
Ni 3.326933165163126 4.543865620699304 9.40990779050764 -0.29420953497373203 -0.9336431482958502 -0.4360359562256362
Ni 7.413890267238248 6.132571290539961 11.405112774017011 -0.596290759386057 0.2625178602974059 0.2809346722416968
Ni 0.5741600010700244 0.20367995830325059 0.3126754564017719 0.3634066627946838 -0.6762960335661062 0.6883197974998598
Ni 4.581989696046558 0.39426950205755695 1.7746004386645948 0.20337194606486908 -0.5307340565311699 -0.5087565238188141
Ni 6.140170713741912 5.843548358714952 0.38074470520387116 0.13264064098757802 -0.24028090327607654 -0.17443880797028666
Ni 7.884582942505586 8.642212789053245 11.505163079936054 -0.5967077923188175 1.3782475629167878 0.02759282201660409
Ni 0.21805719642302626 4.917706458500257 5.675632845786226 -0.37863556392929626 -0.19363517839307942 0.2601907548261261
Ni 8.177605093461931 8.692370795890938 2.556813240362429 0.017360088545002362 -0.012549040309604194 0.2351664648676466
P 8.411310028232172 1.5058193594995772 3.507629855968736 -0.1521637986221702 1.5485021576023976 0.9376532978965076
P 1.4967961780127748 3.09849704289925 1.5212240614007144 0.8130144441674837 0.4397771684356232 -0.7352375450973209
P 5.005653005293234 1.1500158161481213 8.455600699972416 -0.9713951702336432 0.16122539460380622 -0.6853303758542325
P 8.33749224199843 1.6603470102886384 12.580344528298001 0.420715780928798 -0.33550402284714476 -1.142145216498433
P 6.416425163623788 7.854901663102265 1.6425101302219127 -0.6238311308981708 -0.8452882165995248 -0.5247786102786833
P 1.729032011877626 3.1542140550147426 6.022249067364537 0.8851297740764951 1.1890858469140295 -0.4767236637529854
P 6.887453374283097 3.8301092937829524 6.005379798820064 0.4161340750953866 0.9477065683674517 -0.43579864340384944
P 2.443404998433276 8.547138382311898 10.284180621533539 0.06452466204594694 -0.08803765756622257 -1.2946381163252478
