# total energy = -340893.85573868285 ev
CRYSTAL
PRIMVEC
9.06494095583398 0.00000000000000 0.00000000000000
0.00000000000000 9.06494095583398 0.00000000000000
0.00000000000000 0.00000000000000 13.26745738714126
PRIMCOORD
 96 1
Ni 6.35836720997606 1.8011675265651064 11.319489788577199 0.15309839462129762 0.7325139755185708 0.6327528588678328
Ni 4.63765103521605 0.28629803313355956 6.275215412232627 -0.12318746599447816 -0.8506245412107738 -0.8498005026475817
Ni 2.875109222458437 1.7207796293473496 4.997333392113324 0.14216117888350355 -1.3080039961091925 0.2740862818612957
Ni 3.236011720420835 4.318927707952143 4.833785538705191 0.4058293507352688 0.12385466726483185 0.2761318515364148
Ni 4.899355883285133 4.408960702445462 2.8557673577433347 1.1962083168914237 1.143746499547282 -0.8669854990673004
Ni 7.278930103329422 6.179860390849756 2.578862416524191 0.5948643113521755 -1.2446448151262564 -0.5563360733699902
Ni 5.571339963207584 4.4824683094074365 11.63680714348449 -1.1752453414865114 -1.0455712393264252 -1.3185781720806131
Ni 5.47248678107411 7.926647336065142 12.452318248015441 -0.2885855039187353 -0.5431481139248066 -0.37107626352479967
Ni 1.8375270051104855 6.333819349616826 0.5560761177004029 0.02370942780179788 0.6945254120899393 0.15828482391824353
Ni 2.7745246365847085 1.4765973123249423 0.21008091529220013 -0.02716447622993386 -0.061460935518958676 0.5754697088756476
Ni 0.7784581579953653 9.516375112674885 4.54060177635122 -0.19896173281231544 -0.8782451311415198 0.4033027276586731
Ni 8.725930383131137 2.324785716347388 1.305375986319287 -0.7797975910958828 -0.04966342866339833 0.8076202697351058
Ni 6.765174569407867 0.6549021050107301 4.6140631521138475 -0.1974537808082212 0.6474922219605365 0.0929068127330658
Ni 0.6754659237791651 7.35742342786805 2.670553388735274 0.6753992327834497 0.6686521438676033 -0.7191290695712325
Ni 7.668051762775681 3.8675208385619055 3.7498080465771086 0.3002246308195604 0.026224995134799995 0.13782681317420778
Ni 7.715379819989698 3.762304067812413 12.838361453481642 -0.5811916989610894 0.8639533971091958 -1.182654232356073
Ni 8.11361174518966 9.02287972199664 6.558860137121302 -0.19315412499160284 0.4662803569324744 0.5726564077965686
Ni 6.775517667144162 0.6832644925631565 0.3818343533374002 -0.2589733374792572 -0.002749280610363007 -0.15024601277416702
Ni 1.8252168151666748 6.4337512597350655 9.13599749536397 0.8136111972112182 1.2263699280764686 0.3155885148701404
Ni 9.110990948987684 4.767751069143568 1.280993107887135 0.0487062069564516 0.26321437214379834 1.5290409635539925
Ni 6.4006189002029386 1.957338330948001 6.8058072611634906 0.4140046874572096 -0.8035442998935194 1.5842471764124908
Ni 3.6517117870211826 4.427598221241099 0.6022665248128385 -0.5436299386572315 -0.4315020729110246 0.1766530420127861
Ni 6.143310548542359 5.729650093677916 4.675597784939014 -0.5348017988426402 -0.17573567240483928 1.24342456956591
Ni 5.246615644969596 3.0640044640262776 9.498862553063361 0.6503188927760543 -0.16775753929536916 -0.719729936380025
P 0.23638193525020632 5.571058950035082 12.486986208561179 -0.5609154652105566 0.3790780507833536 -0.06378649832834177
P 4.062489590632215 6.047194978605522 12.508399412305852 -0.012053845840740532 0.28505563638860587 0.43650826787636443
P 2.329173147814843 8.350587434078541 1.4211035562144707 -0.3067115240954847 0.4226513073886141 -0.3375457358675219
P 6.362355784037383 7.85194315688477 5.7371667427953 -0.09762273015149639 -0.8194005501994855 0.34382334134611753
P 4.700534531269226 0.9505950430469152 12.612827533184129 -0.1812072370423718 0.22667385401560317 -0.40637493882609366
P 4.069995361820341 6.342358524084477 8.19341132773337 -0.6676928652781275 -0.2612533917626856 -0.00059058239614737
P 4.706009755662498 0.8753261180392249 3.889434427052456 0.06805324402449571 0.29480320269367294 -0.11575569230678127
P 9.298181981638415 5.513378730143721 3.6619642353469923 -0.981366165403426 -0.5415067216666416 0.5379087199027381
Ni 1.4826889527095084 1.1607566363144466 2.2235992183880415 0.17432259410739653 -0.9631028483178637 1.409953892881133
Ni 1.6788452120571669 6.602549526998468 4.975787840229341 0.17028879035765512 0.08112447538615707 -0.3771787768781117
Ni 6.216102025161504 5.617136045384411 8.900222004669907 -0.3792122623683727 -0.41257952497490874 1.719640697554858
Ni 8.572025814010358 2.2851175343193204 10.188001127425919 0.06511781554525559 0.3723157923588556 0.08205907138528448
Ni 2.4829780025840895 5.249462036458813 7.0169596524876185 -1.5068196902619468 -0.427905870919334 0.6705861276655226
Ni 0.5193195947371012 -0.005815159682588053 9.083697317984871 0.3195477566282045 0.04469502891452948 0.45830916580153974
Ni 1.328059188304852 1.1235087935463184 11.425761718464733 0.2066223346813667 -0.2617845816758072 -0.1720674795246327
Ni 4.035766144421351 6.900722632905511 1.5650294382291037 0.3154949267150695 -0.26261941887227674 0.19591986066219808
Ni 5.840994764576168 7.739383783886024 7.996203535224091 -0.9222235936049988 1.1253579697377654 -0.3847884709045696
Ni 5.303942332160066 2.9087401537482296 4.887293166231944 -0.5634639426640231 -0.0013719406468621533 -0.42992470112157566
Ni 0.5332288402818606 7.365337121403357 7.095091285878413 1.7726275341645343 0.3069984592082842 -0.3900744018938572
Ni 4.836245763705743 4.699881855513738 7.090978522124726 1.1476165240256495 -0.6352103192693899 -0.8444248401579652
Ni 8.117663773838322 7.274914334444954 9.068678523655782 0.09727665966598731 -0.8634672015013969 0.29617591467148346
Ni 4.582626843051888 0.18469545438008853 10.435558322000672 -0.035340327172506875 -0.3907562584522303 -0.22136504020818001
Ni 8.34016275187281 7.383176925386729 4.680559933668942 -0.4721087906887934 -0.07316793954324173 -0.18557734108560942
Ni 7.506287889765885 6.212729867091477 6.804149283445727 -0.9065550338298064 -0.6230839683195012 0.10390779182925974
Ni 2.202871324186629 5.234704312431917 2.809967649590088 0.2340140964307583 -0.2711994472318039 -0.911712923881662
Ni 2.2298757835699963 5.561350398172179 11.556340381279611 0.36170279272969963 -0.5414570993756288 -0.4665210121883707
Ni 1.0633810395718732 3.0480320378988885 3.799216507761748 0.16079756303776824 0.7541816902999915 0.09403038481454774
Ni 3.6013107147917367 2.5787491047610853 2.958842082923076 -0.5664435941176375 -0.6287679060781558 -1.0023769633271382
Ni 1.2069697057795032 3.219595112182071 8.584456567670113 -0.4831740473640195 0.6377366852356694 -2.0118306309953997
Ni 3.9483166581268425 2.4861779267741966 7.084304912524849 -0.6121138424612426 1.2834383909546865 -0.34312374417593167
Ni 3.9131900115640548 6.820117177102591 5.877616219917847 1.1784885310141575 0.9221531453783796 -0.05887671973155021
Ni 0.6153834945099623 7.525206421734024 11.38966149723334 0.7677900251120454 -1.0958203652899643 -0.25278623483193885
P 0.2299503595763229 5.413002637914107 7.9908434355821365 0.03754042014761922 0.2748599268025266 0.5157774352213376
P 8.611367658160681 1.598411990134168 7.978319313029582 -0.8049614919560202 0.6527341870857662 -0.16463236340282614
P 1.8072591669496725 3.081934917420135 10.610954053359142 0.49464039613240623 0.7250976284498416 0.5072424011671329
P 4.03241211623342 6.1483597207063525 3.727239969342859 0.026830747039598955 0.7057513627127459 0.5714431042147577
P 7.242842573015497 4.013828987084074 10.362415125668843 -1.1876465433643417 0.5595558658588685 -0.35155387722115583
P 6.4337512597350655 7.799357433862645 10.385049376972747 -0.8350305434272587 0.6304491504353207 -1.3323194329261054
P 2.3624868061679396 8.555436971891673 5.925923290765099 -0.3644266194187659 0.052248158671439046 0.06803653185394734
P 6.861888425453903 3.97190363473494 1.6617759280629139 0.20293151609334084 1.4007557713216328 -0.6604356694950819
Ni 5.424669217043477 2.755669559203908 0.33108790685400785 -0.4555349454905122 0.6562375722533343 -0.32752588973767466
Ni 1.5582633662305319 1.249448019532594 7.165302880275166 -0.2451366887064811 -0.13346390821982174 -0.9770120021997883
Ni 6.994073395822568 0.5944851794168392 9.187249765557867 -0.7055107074568495 0.08565167383254926 -0.29993692437581243
Ni 2.9823837348259308 1.6912097916472684 9.301681955377227 -0.5018423131974842 -0.006511832976588785 0.8287130858496631
Ni 6.036507413109386 2.235314748199073 2.5366315756617235 1.172255148509936 -1.631790473409093 1.056879722360709
Ni 4.245320386638635 6.625710451377286 10.332735602182076 0.47558183683905836 0.7676740683594714 0.4803262935025792
Ni 8.157458865041068 7.25501678884358 0.5175727805970627 0.18185592636996423 -0.8739215640655015 -1.4154313710559365
Ni 7.6014969655978755 3.8163945710485825 8.084737188467995 1.0806485426455323 -0.5476835399013149 0.10957810274115967
Ni 2.8905377521229187 8.19709985224599 12.331809828211298 0.5635230780367327 -0.18800369113891494 0.41610373607808343
Ni 0.3816956597393587 4.847014913671316 10.20400165487056 -1.426938857474904 -0.2846090357694905 0.5391832157397876
Ni 8.534270334543516 2.3820308190684223 5.702910330573164 0.22075440320737463 -0.33430408900177266 0.4933381323812149
Ni 3.7119120605240155 2.8011302385619428 11.692066117621806 0.09214885152111871 0.2919333373450456 -0.6736226004990012
Ni 1.2375548168770125 3.3800717635629853 12.760348570818582 -0.08697939150503729 0.23118665428429216 -0.10564997133134707
Ni 2.971659909565601 8.623378705049893 8.140169302979338 0.9954357561226146 -1.4076524984414662 -0.21424128467920525
Ni 5.819719347935429 7.796121249908344 3.4552174053724167 -1.6488955085204957 0.6412506119261988 0.1443309328413127
Ni 2.9604193826655085 8.471568137311309 3.6565905382934645 0.5544144308672451 -0.34316642448840895 -0.035884629711751104
Ni 3.321403465097342 4.420962684393626 9.575070605963672 0.07599023948338526 -0.033654454829651716 -0.38145092189090435
Ni 7.273799346695992 6.192224970439858 11.405410019316832 1.3465777426173324 -1.0953449683154426 0.5189249797113838
Ni 0.5097977806597973 0.09545201625208992 0.22408171674154892 0.2433366593832648 -0.32536307775840095 0.27896649277173247
Ni 4.49647364332731 0.3337801943454009 1.6684758259918318 -0.01127942956856122 -0.19435637282982013 -0.01924496427254105
Ni 5.9556028142518675 5.579752228500556 0.2960065849964619 0.593107733672385 0.9763990512061377 1.7545395663145718
Ni 7.951584988889459 8.90709322998464 11.535987775637606 -0.6298804224160442 0.30939575579586714 -0.2966417985643085
Ni 9.208076467616708 4.6991566602298604 5.889663526571253 0.24147620913575832 -0.048547569891400265 -0.41316856470915936
Ni 7.908898181492254 8.8165888585568 2.277358851275942 0.16469047033427123 1.201564953217647 1.473695139793836
P 8.372288902948558 1.678537004061519 3.5374355141878575 -0.1751569170832338 -0.1717229517010204 -0.9365019579008839
P 1.9949487713580678 3.2418314125739474 1.6988451914923874 -0.7020368899756361 0.27918915030549984 -1.2580508041195173
P 4.863168638619674 1.1279868744242585 8.364746871996237 1.352161407352697 -0.8862029525360157 0.5395909927011674
P 8.369351862048855 1.7603843567880781 12.4474095824377 0.5854916118880239 -0.7764443583529338 -0.0576562170608878
P 6.142086781500817 7.751322311246847 1.2589208829282363 0.9479217697020513 -0.4025715059196035 0.7606061057690965
P 1.969947663946411 3.2038855693450876 6.286917344632086 -0.8219109753261653 0.7038176360251428 -0.19754299808791786
P 6.7873655450945005 3.9535108693476113 6.0352473863036495 0.5475961223938312 1.22195405839696 -0.6465571117407769
P 2.3137536830914107 8.502325482288738 10.22759135096097 0.10553170058592794 -0.03837705711630165 0.2901875582985325
