# total energy = -340866.1721864219 ev
CRYSTAL
PRIMVEC
9.28171732403143 0.00000000000000 0.00000000000000
0.00000000000000 9.28171732403143 0.00000000000000
0.00000000000000 0.00000000000000 13.58473151408520
PRIMCOORD
 96 1
Ni 2.9189794705119807 4.027467138443674 0.05243242178189299 -0.8661511760914632 1.4433185843845078 0.8884603811116247
Ni 5.949877889837214 0.8238591619744191 1.5265844860675977 1.111875104759982 -0.5998211411368186 -0.6611139265090291
Ni 8.640805563007875 1.9724484900775883 12.953884141285032 0.014575840931645864 1.0220291903404268 0.1016004838523218
Ni 5.204221838098825 7.044313037574574 9.94827561745088 -0.8796600092111754 1.7583954497255523 -1.316358538721475
Ni 5.573253641537715 2.3497224585974332 5.9274263435373 -1.5428189911746915 0.4976100202836915 -0.1841758327523925
Ni 1.3238977661285725 1.1935917350795378 11.764595410407667 0.4517052873317769 -0.40636028353807435 1.4457369640180133
Ni 8.440728862011154 4.650400322276204 8.696592397470239 -1.634669851839417 0.6162492047858549 -0.43433671414634234
Ni 0.6808074765456901 5.083550229745774 12.935354120600774 -0.27915341197155796 1.7573909197204378 -0.43921075440919194
Ni 3.2990008273921445 5.744176468075786 9.193208832406658 0.8477860433207141 -0.07035335291258206 -0.8046046228372337
Ni 0.5177963859479429 5.467980402406854 3.049486914829322 -0.4769476068383334 -0.5699873456048378 0.5200842901268075
Ni 4.081347508145194 4.315432421818294 7.439352213262156 0.30777698924552155 0.32695407639460466 0.5099513154578637
Ni 2.6222151190103937 7.231311798707482 10.709821969435437 0.1330335055506225 -0.22298766341326756 2.215276624831314
Ni 6.716287861756928 7.555939865944463 13.318769801546372 0.9821467523231924 -0.12846774055681104 0.11770253162050698
Ni 1.8350790720616532 3.3616152931985965 2.3992534155096115 -0.380080523905939 1.7645259881033226 0.988768371404768
Ni 1.8932290317825877 6.247245552971979 1.368036973383625 -1.4258548803821058 0.7316020052272626 -2.8586843923098315
Ni 7.6404313397416965 7.139376387528574 10.851822964450692 -0.07875160427860631 -0.27621669794073717 -0.34036495048387183
Ni 3.0360590542182644 8.070091321456268 8.39051477069587 0.44680245071352087 1.821071745708851 1.1950500349172644
Ni 9.27012456843466 3.8220720133575505 1.145399201821272 -0.5041591342561189 0.5114723800880804 0.2640160421094872
Ni 4.81297888484155 5.5291840471634135 0.46988137604093877 0.7721231052697607 0.04476033493482614 0.34835748177104525
Ni 5.694974083960753 6.5650422761778975 4.914602552677554 1.5142769178709403 0.22419042547211715 -1.9539340157889316
Ni 0.8861961044296097 6.882170715728604 8.550651313404458 -0.3237803066523134 -0.40409899830772344 0.7753238715952453
Ni 0.18049413355550492 7.63284817659852 12.503726414790298 0.9634090667043731 1.5011794612570342 -1.6619878229280796
Ni 0.546825885392986 4.299300796918855 6.594748412823844 -0.4472745052539329 0.4598795956124532 0.21414898207571503
Ni 3.5803482462366722 2.6405557926590077 3.7917978356046733 1.6474459205581629 -0.5608619862648018 0.05015733758068136
P 5.596792076949094 6.501174778517922 11.86186131190864 1.4911552442518126 0.31732760904843416 1.5135127860114062
P 4.556209453760953 4.508018776846175 2.6164873711821754 -0.02411180544653912 -0.07271928204159733 -0.1245321529478307
P 6.706514213299444 6.756839685223929 8.385691990317419 0.8180746322992105 -1.4513915912006294 -0.18384647443743174
P 6.813857275417976 0.7037351749499442 5.174261382395202 -0.004290142734921644 0.40282450247067403 0.3818694974855617
P 4.577538840423157 1.0157076204663358 13.563539828328928 -1.2091319669316274 0.16848130483527113 -0.42629790300226583
P 8.213029769932307 0.5641019460519765 1.1159381025155706 -1.7870323967359545 -0.29914373905055575 0.3977195771439408
P 0.06751428443960193 2.6985108363138384 8.063040928893773 -0.9369644993595992 -0.28215388936077856 -0.02202484101052336
P 2.981575372883566 6.340369023982376 13.10565228755557 -0.45035262995862435 0.3771697780170472 -0.5113973038757708
Ni 4.734028596352121 8.733325722385095 12.002708589446911 1.2603275159688359 -1.1056502068961924 -0.4064471868249258
Ni 6.129739010263754 1.8568261360083653 3.44679918311637 0.48092433209789426 1.1091859879635928 1.1375390851849894
Ni 1.1476750789359684 8.854294345696019 10.119470398309753 0.23683613926058567 -0.9469429507285497 -1.0921467730931191
Ni 6.521733782633144 5.038988704347497 6.489833447985917 0.15221624912666043 -0.4947362982803221 1.2595592703442438
Ni 4.701505458465106 2.972702051017131 1.0545228346015276 0.1525620625018534 0.009984364906221515 0.5424487738649367
Ni 7.50295054111656 4.920201284633447 13.474355518197312 -0.7951730451106885 0.7425813870569018 0.1473200973766237
Ni 2.437193363690823 1.7953347580113672 9.69094000160684 -0.11520753311279514 0.21837484723160455 1.7559819551880533
Ni 7.971073959875592 2.8746407063321073 5.946485422115266 -2.003612356850666 0.6288794919553555 1.902973979801297
Ni 0.05755592980519001 7.775378229507487 2.628319704566413 0.7808442871928423 -0.08604453839559374 -2.9077346128692634
Ni 1.7586348472792723 3.5672610246554246 11.642278153553656 -0.2785368614334816 -0.849891262589175 -0.6338553479033922
Ni 5.084821825034164 8.788421997070405 5.392853253328289 -0.48173165849053806 0.2177117597263089 0.8625508603347145
Ni 7.024106738721825 2.9773057828641516 1.3561730821601137 0.23252825591385115 0.258681003049819 -0.7827127078601488
Ni 4.332455091591349 2.9533403884508314 12.085017931475527 0.5456845071934151 -1.5864259292313645 -0.18297229936259454
Ni 0.6816892397018735 8.130134751533637 4.8735764334497 0.8098535299409988 0.7621621374023066 1.1866823796788595
Ni 0.31638683032776854 2.431457262316914 4.595497107313511 1.4426287574063348 -0.9332114600750702 -1.3372176415586712
Ni 6.575855476987936 0.8733771244821903 12.652846487077058 0.333878828538896 0.13654408980704227 -0.3289734208174786
Ni 4.235461144411179 2.1578136689421985 8.222851683320448 1.1787281578287894 -0.6491822080684498 0.1891267489997646
Ni 1.987633379798809 1.7386791547972276 7.518551251778802 -2.4526650370509437 -0.4614081164418376 -0.3059972716372794
Ni 6.767652886033968 8.55022528257426 7.29593854085352 0.09453612080637268 -1.2358950939580844 -1.1807544442301987
Ni 4.667617908115363 6.650387667979014 6.96893992298402 5.129234850012786 1.6254120806865748 0.8614157182890068
Ni 6.890245809895756 8.058498456381814 2.2317945259177265 0.9210668542927364 -0.553698378636827 0.6396069056751887
Ni 2.758823436196781 8.18705952455335 2.53700338394032 -1.3917836497300096 0.3003133338786247 -0.42760788006294104
Ni 2.7346816891522234 9.21841612061258 6.103905206131068 1.2783139252439275 1.5268113028925252 -0.3906588136424175
Ni 6.591792185821271 9.280232358719752 9.77790969395882 -0.14458135828922197 -1.3959238971506283 0.16239833186598482
P 6.160071662836462 3.5950133597816167 8.115193042809175 -0.02191376935395581 -1.6185027551612514 -0.582700422296132
P 4.844833739073353 7.592138563935149 3.1773193681823266 -0.5143116493090885 0.21525944153107443 0.46277979997838364
P 1.6370536306177363 0.8474208016793822 3.594506578009747 0.7083278651906704 -0.3263141288177606 -0.19825982164928438
P 8.52192532611949 0.18192073352503527 10.682163379655323 -0.9456797677454101 0.7741154531094411 1.4676512475926016
P 4.720681486682736 0.039902103246655676 7.889998158093889 0.6807828656928663 -0.2856444190125403 -0.5510799671773735
P 1.3313973938148476 5.796775960771481 5.200031142677597 -0.47459221923227946 2.2601464887608107 0.03486158776387544
P 8.077321779336971 7.398744699490553 4.247375156908832 -1.9523209056655413 -1.4180425834265384 0.5073308471158812
P 3.1465207733944567 3.838250046844157 10.046099350169605 1.2839775512876082 -1.370246546989182 -0.5258641300333782
Ni 6.142362145973326 4.875565505495701 9.78873681734501 -0.17791262545150005 -0.053899578231932976 0.3024357795382662
Ni 8.681320259605142 0.5776495408179264 6.150052977038732 0.6067438363985809 -0.1739965782265455 -0.053840185748907275
Ni 0.9202089579647038 0.2763993352807245 0.42914020553829385 -2.6676146606510835 0.46068717911541307 1.2866759240553776
Ni 7.126317011099627 5.59572467944424 2.3994306963125913 -0.19401518744031748 -0.15293641512213663 -0.7304555503276453
Ni 6.6132886433972775 1.3794117180983905 7.85337435744475 0.17504507409571787 2.5006677901824674 0.4674360678034724
Ni 5.91513642148359 4.069346247503667 4.239672259610762 0.7475346172971191 0.11350469148907548 -1.0610114851408954
Ni 1.418766200016469 4.33581507330228 8.904248548923164 -0.07873540632869021 -0.38873562847777565 0.41501101723453687
Ni 8.874806941224074 0.4137037812746248 8.503593934188311 -0.3131071432091833 1.0155081013924574 -0.0043281950617086755
Ni 2.8169084238956805 5.80201084940398 3.219119582644135 2.1450456564292093 -1.3352502334196552 1.1469117846491408
Ni 2.8411893967017408 8.910188848080612 13.57202981526536 2.253324066522339 -1.811376372797958 -1.3458791738884113
Ni 8.033131522636033 5.011951061463685 4.518906231395681 0.7013907717512049 -0.023750308342062324 1.0847196273911124
Ni 9.22534028181798 2.4276146312994418 10.32385288802388 -0.7275280922682051 -0.3220725799325873 -1.1873958608061164
Ni 8.05108236415244 4.359604115084363 11.164095209440186 1.403041739142332 0.6768313372442859 -0.2544019160584909
Ni 6.0686838729861305 2.1359366609514177 10.457730523941327 0.29536601717567845 1.074815223793207 -0.48156299412315773
Ni 2.7173341592689955 6.367415948583622 7.008186736979869 -5.715325528937389 -2.5414830244266167 -1.1140996232151263
Ni 8.520746548005436 6.698866078134232 6.619962198231971 -0.13750259706556966 -0.024806774631034693 -0.28557242812402434
Ni 2.9233233142708626 7.377062607565876 4.890734616297286 1.5260060333824106 -0.8808594288359153 -0.7661455475300869
Ni 8.290699181415912 0.5535560587040235 3.518961751646673 0.4864686589548912 0.36093351866384293 -0.42823342946208187
Ni 4.068696527283321 4.838039521912025 5.211619366893333 -0.08312273676310845 0.8345667164169627 0.18058091631228254
Ni 2.0367429467395057 3.925841614264182 4.786131517165125 -0.5343361720601314 -0.816896038610077 -0.31294464948939005
Ni 4.043951468605586 5.140103734068145 11.50978627804903 -0.8077033163672154 0.57105975273341 0.611810966508843
Ni 2.7666386422757956 1.615148777474655 1.4912229989894148 1.4184274775697832 -2.8718684951002733 0.7168554430457074
Ni 4.290260404138617 0.432650551071647 3.291729529954733 -0.1605749055040009 0.08759465649153302 0.24506315515606827
Ni 4.8418450260597625 8.045828912085074 1.0501075216184073 -1.3369371342037748 -0.4828027800675298 -0.1400083942065589
P 6.44993969828495 3.429511056224716 12.17334553908803 0.13715164148405412 -0.7732950140906747 0.7299356732684331
P 1.421884857074128 2.4970975680066907 0.20419778353720047 -0.9840352275951569 0.025603559500717195 -1.5702745162824825
P 3.1316607437834083 0.13588712774180348 10.940829993779328 -1.4150683312895629 0.44089996918615676 -0.36257773913548524
P 1.1328428944772209 8.756214437576128 7.27162136934947 -1.4093746233388953 -1.293046346358096 0.5793353624786409
P 8.683371519157948 6.789195752197142 0.5884311837886906 -0.6328572456561811 -1.3817085248821945 2.198599421285949
P 8.376462250501536 2.997428546259999 2.9576545307139264 -0.4117338891451619 0.9072726287221213 1.2397203812414457
P 3.2320425178268097 2.619170715692203 6.168948697389869 1.4199302873675546 0.8142488307952171 -1.729462825851602
P 0.4349422071059804 6.149249180308989 10.810200030791863 0.08986314081073557 -0.42568109535387333 -0.6670089518372254
