# total energy = -381173.4678774892 ev
CRYSTAL
PRIMVEC
9.14798987811199 0.00000000000000 0.00000000000000

0.00000000000000 9.14798987811199 0.00000000000000

0.00000000000000 0.00000000000000 13.38900787960033

PRIMCOORD
 96 1
Ni 1.4299314008592776 4.94743402623946 7.1724775791285085 -2.1530299601862666 0.5669318466079655 0.5585641913695607
Ni 1.5352705009923109 5.8127057696335624 1.9340149008549845 -0.039760053506757334 0.6579414423183185 1.0099177517888738
Ni 2.818870660364137 5.892988526278591 13.220346143166745 0.344302080754749 -0.23309261305775342 1.7682546019078191
Ni 6.295234776556455 4.971484090872525 6.782415536186048 -0.011550166731444624 0.1424555701954708 1.1185270628588608
Ni 3.4198386885134635 3.3936205503474826 4.12254242369618 -0.7420316852010188 1.8233469148962727 -0.45012174489474094
Ni 8.315998233098938 6.218126372299284 7.257284016625971 0.6667832089796646 -1.7405504511243315 -2.4179536017116874
Ni 0.6260399232196352 0.32228641766537613 6.140439815100001 1.056436207065387 0.37157994263409555 -0.5096103871786771
Ni 0.1233633840229262 7.71299935126055 10.501078793462483 0.800100307208977 0.30248874426338873 -0.39171399437980925
Ni 4.745309196240383 0.472835797152944 6.6552475032924905 0.6061105736899561 0.5457670396048924 -0.14541799525790441
Ni 8.21209536733159 6.628102673781005 2.1260668795161126 1.5577180197737108 -0.6098155333453692 0.38248193425857996
Ni 5.326041871415826 5.839600859029231 12.158744821179061 -0.6084667326269585 -0.9550815206752841 -2.6085731332068947
Ni 7.454294205645076 0.41940421955355 10.30953544302258 -1.5411871119982232 -0.45252829745370454 -0.527535347088214
Ni 5.052645054518228 5.704759492467276 4.932939036733529 -3.8156582449118224 -0.35496573111618224 -0.8534365567382721
Ni 4.6868169507996 3.7755308197659696 9.291877403831164 -0.5933705004154683 -0.030813128726114674 0.17395852589975846
Ni 2.923560253236255 8.071124847744093 1.6483341635354471 -1.252543758258359 -1.271258818169359 -2.3298059009301615
Ni 2.5808765631812456 5.282899952507672 9.164681926968834 0.7037135063471107 0.6750076537719858 0.47760298103414517
Ni 2.4863320907648405 5.514197721310418 5.058219839374596 0.8354234079903032 -0.8205133236476901 -1.0503866584371975
Ni 9.25858878451079 5.6786053902284275 9.34310340114032 0.8135713451122182 -1.1327874294326168 0.058982134961162926
Ni 2.8583899753945063 3.3200798620305516 7.585756304852351 0.057269008924798144 -2.538750198876486 1.913315470936621
Ni 4.385043070192696 8.413945757642956 9.234974164182226 0.28591515617542373 -0.1819060628816093 -0.0880314869186355
Ni 4.902499101371595 1.2653499201390515 10.794673456576644 3.2303154998968364 1.0124356331147208 0.520933011280348
Ni 6.91779206013904 3.3267121544835656 0.3051879103220281 -0.4322672332118233 1.0613855806508623 0.26941947251324566
Ni 5.132863775236125 2.8906732306588987 6.984228419740094 0.12836798175415312 -0.39981065534501464 0.11393895081301669
Ni 7.169242850009355 6.241234194004541 0.0036372406611284475 -0.22725286644752474 -0.7354321776066302 -0.2903495377976935
P 1.8473907578259166 1.783958598006337 8.830331140631687 -0.6072948238060445 -2.023025728380271 -0.5250130948869925
Ni 4.86483682822807 7.285486353734102 0.35267146508976777 0.24213081200062167 0.5216176960521984 1.4794348704910907
P 2.9087039181415046 1.2075071819591843 5.6589975893404425 -0.27728550552488374 0.26568160273736824 0.9080005080270814
Ni 1.6710541104820733 5.919288996350886 11.265417108510272 -1.4035587879880667 -0.04883193390103848 -0.9209609248424913
P 3.6172797478422747 8.854750784044203 12.986547314009995 -0.4756697685671743 2.024232089983546 0.8694254759673608
P 2.490979269476745 7.014532050057132 3.5666575178460818 -0.1452786414665627 0.10367999208916981 0.09380567039825136
P 8.661197620291297 7.539882796252515 5.641524929222848 -0.07754292868248581 1.0801088680919784 -1.1060602978504177
Ni 3.911991380485419 2.315264685425047 12.866353708380128 -0.1615591237941411 -0.9427929331159184 0.047624800966814755
Ni 6.104929149108128 7.371148128258264 2.54891897634627 -2.6987810589515586 -1.3299797290493354 1.376170882893417
Ni 6.98982333017356 4.869868222502769 9.304810831514018 -1.7783335834103762 0.7756421741666125 -1.6207756103558282
Ni 1.999549268682429 1.1391442557503995 3.7637701643485983 2.3514556179894535 0.9598748282988695 -0.5185292869348619
Ni 6.196729224647424 3.8402619941073803 11.150713211433585 -0.5305718199216927 -0.8133934247734572 1.0889678611445053
Ni 9.026449400665731 4.246615691711318 1.3185967083487202 -0.3388006913205455 -0.605312503268693 -0.31488917481027057
Ni 7.14969359625475 8.328183355233302 0.9326878526802853 0.24985826255186644 1.2227135622708039 -2.0417387314087416
Ni 4.8258023566459896 4.2976706216151355 0.18028857884687988 -0.6840479095973832 0.0672842270689551 1.438760275589864
Ni 5.7155998601318565 7.368348843443613 6.860206380466662 0.8256755845749199 -0.24913218301911935 0.9188875872532304
Ni 8.834167807465885 1.3204757054105807 8.280512266678958 1.3410295591055936 -0.10838125421958107 0.8507626094505347
Ni 7.550531056135698 4.6280502656711064 3.437547366762489 0.003027988193046398 0.045177367867586714 -1.4584333285387592
Ni 8.461432971606534 4.190666587376656 5.495825813816092 0.7487348082528072 0.5817079764758757 0.6751650052854566
Ni 5.645992807338781 0.5407651086551457 12.941908784004857 0.5430756088156582 0.7048995562354119 0.49386649408085903
Ni 3.3558759452976434 1.175086706850937 1.7268742281635112 -0.3425827840707971 1.2989503705473564 -0.6611681767857323
Ni 7.393789402494414 2.384880886207712 2.7444389578611053 0.19853930056291613 0.08354182657839805 -0.9704826857217028
Ni 4.833697071662473 6.20542896274786 9.567704841562922 0.692347430602014 -0.8929269015234107 0.09138086300684262
Ni 4.5872593800876755 1.5759516107006566 4.167703303906926 1.7190524291515556 -0.8363518333418435 0.49844897124521903
Ni 5.882733629947794 7.96379148588036 11.439246291907397 1.1109428227536997 0.23259304771351555 -1.137400759834912
Ni 1.5694382421123179 3.2693634077415776 5.603419893383149 -0.3463427653338616 -1.5341911402963642 -1.18981038378488
Ni 0.6129235357449724 8.66609179472214 1.4571521586843625 -0.7510261753901453 0.04234092686005611 -1.1046937565201942
Ni 0.8174963677584306 8.461112791970871 3.769527908996773 -0.6431298312267827 -1.8627434144160242 0.7503096089390949
Ni 0.28318791015616335 6.246091776477025 13.3627245383522 1.5008609015753507 1.366645459901485 0.2270410075470348
Ni 7.495734598489421 0.04361212557309799 6.550478322910937 -0.8148712948705643 -0.7689038270015146 0.07372638314987302
Ni 5.923268371822694 8.55602318397089 4.631565838070682 0.6927400380547425 0.8617173086898255 0.5482198720207591
Ni 7.460029995118234 7.294433087553477 8.837093334536883 -2.8602684489675 2.2077962572938685 2.5185739810389274
P 0.6080421684995545 3.6087538215440564 3.33315325395414 -0.03538069349213907 0.6737506414364333 0.8141526715369849
Ni 2.6907164741927376 3.713900813895692 1.277403311223314 -0.675729619539675 -0.37165913261146316 -0.24656365096099475
P 7.171227963750464 6.14375321692963 10.935070397216826 0.19700692307878973 1.3857888655991553 0.8293098388933976
Ni 4.9914267081795165 3.1838114090925003 2.3225245299639594 0.5156792190805763 0.4613307262366829 -0.1342393529332656
P 1.3944737932070292 4.083205153658659 12.653870609767882 0.7728270733153205 -0.282916478558416 0.7152173932216521
P 6.287440689425466 5.180451617085193 1.7875665651007766 -0.798098960508232 -0.24634433586133703 -0.5555811974818367
P 6.988862791266572 1.338414912997283 4.553239836399033 -1.5553824296619987 -0.19322560165948657 0.7347451788419346
Ni 9.072683340055427 1.6746492703910862 4.434332438105573 -0.9384444263392354 1.2895450180730568 -0.21142001318032622
Ni 3.389549694979771 4.261151847170405 11.53384016346759 1.3956269347354997 0.30591576766706663 0.01866543761998721
Ni 1.5932321630368529 1.4062198118410558 12.993001220665995 -0.30337243241992273 0.7267305360675743 0.7426312664582307
Ni 0.6734008949268641 1.9662139946151451 1.9679969377863071 0.1502493552082767 -0.581860700003656 -0.5591239205277726
Ni 8.52331912118534 4.678611204137044 11.998947739014595 -0.4247758099307845 -0.2893349804902501 0.17890841370586608
Ni 3.9880294699605185 8.63383598342652 3.41722236349062 0.5501150321609429 0.06354018664549058 -0.266422851778767
Ni 7.804817722779026 8.967536347703792 2.9625855768287446 0.19404269824414325 1.2624967557060127 0.832779799719869
Ni 8.628255709776397 3.3628650093446812 10.141222497348444 0.32876798967489185 -1.1289433730961784 -0.42729394836694795
Ni 7.9462364938564525 1.357525063251552 0.4320101492090706 1.0334669998637234 -1.0734651375232158 -0.11907498648800137
Ni 5.724967401472388 0.9000405074301967 1.900288092833233 -0.10207073862052099 -0.42431481113396596 0.5765889100817553
Ni 6.824080054775358 2.4445074823577 8.918002728468851 -1.7312589985200764 -0.24344027484066463 0.05679335483996026
Ni 6.957009491512927 6.456952936534899 4.752870009636818 3.550875499839639 0.7620916891756875 0.4089514413040182
Ni 1.853702870643267 3.260306898047118 10.209037458980767 -0.37449634494994216 0.34198474547548197 1.00455185949127
Ni 1.4444858522975454 7.005649352164888 6.317107619667015 -0.7112614938976977 2.0462412472647853 -0.4427727607288375
Ni 0.21990852176274334 5.946714669142795 4.19773523893313 1.0393337430571454 0.6669981532039481 -0.3502953222237064
Ni 2.3572905496031766 -0.20455179163740048 7.593320777444622 2.076614203129688 1.03784713120929 0.524460050597
Ni 2.89195394920155 0.6124569882758638 11.035594910428452 -2.1969662565579 -0.48302492338066494 -0.46403552676235565
Ni 3.6062838643546584 7.3242189416597006 11.503607887469357 -0.2822924718211719 -0.017314065798415344 -1.6648831421980037
Ni 4.121452898135967 1.4580889128184158 8.723755232306036 -1.0717494403836898 1.2891909771677474 -0.633549129516883
Ni 6.081949399257136 3.5870730862148954 4.8950883150044415 -0.09166522701648085 -1.4706542960849833 -0.8920015614956639
Ni 7.6464751709594285 2.388247346376966 6.561898673115546 -0.8608444191665691 -1.1638340143257762 -0.7735829776447387
Ni 3.860570530997987 7.85954099650858 5.550747598919756 -1.8669062875444622 -0.6062527556947753 -1.0817122080233563
Ni 3.4677009700502444 6.770637499588456 7.435023050774016 0.6937293985512053 -1.473418746203998 2.026907837043496
Ni 8.426734647090285 8.478256124463211 12.383827445854113 -0.9263836385199594 0.46648861628853855 0.8704073802646559
Ni 3.914443041695636 5.787155434707678 2.3933253953985765 1.0206469652809196 -0.5332205703984494 -0.2056872244616071
P 6.270306504922716 0.3743512856199698 8.3520495452756 -0.19208428896619179 -0.35953535276473564 0.559858741811268
Ni 0.35244185055104965 8.193351136660937 8.114461618830521 -0.828331019919896 -0.8334351739156808 1.0968801740130463
P 7.25269081105265 2.090644949023267 11.816133400241815 0.4814825185942095 -0.6401406666914717 -0.114687398943267
Ni 0.30070813981962713 1.1366742985610014 10.89261366272899 1.5238938721354145 0.48724461788896734 0.18626151163682758
P 8.168596676829415 3.9907921628168084 7.826892736459532 1.5431406361801683 0.2170414731321617 -0.34642246953186145
P 2.2124595784085446 7.639266555162222 9.599529782548835 0.2918279221154329 -0.6411989327526569 -0.2541275793511817
P 3.8506175183236713 4.6877043057898655 6.501099304700074 1.8116440246370475 1.5027200662712765 -0.7243756626821525
Ni 1.5833065943313087 8.142104098975722 12.563106086650217 -0.15490947968810742 -0.06168487860430667 0.20820562000808657
