# total energy = -340864.88430019555 ev
CRYSTAL
PRIMVEC
9.31985939809747 0.00000000000000 0.00000000000000

0.00000000000000 9.31985939809747 0.00000000000000

0.00000000000000 0.00000000000000 13.64055629494040

PRIMCOORD
 96 1
Ni 6.143092169956895 3.5329443676772008 7.971868546327247 -0.7870936105366638 0.3724484612819779 -0.2770384225110842
Ni 6.885968848318236 3.672807498718471 1.71950102410415 0.4319090785414561 -0.20084043789226702 -1.4771391324783785
Ni 3.1404478060278325 4.3950500082169235 11.535409080653038 -0.8637153129564609 0.38652165154559237 0.16803007623046545
Ni 7.555628710696355 2.023770204110599 8.861123869484171 0.8617728445181093 0.07571384589354703 0.503019621335037
Ni 2.6351623050927 2.5619361692500093 4.2342330371329995 2.0456722621351933 -1.9892450323853998 -2.364039625302051
Ni 6.676523646486393 3.219685251227598 5.457177540680058 0.923815620682467 0.30622198605357587 -0.07156254272933482
Ni 3.061387438157965 9.132688730630292 4.2392396656393885 -1.710367756893364 1.8365672702412885 1.8349806424804593
Ni 5.856823366527585 0.36274757022645004 10.223269794050248 -0.4341294832315426 1.0134368206857256 -0.5559966877527006
Ni 5.288638134040674 8.59789655461842 4.427956568027713 0.34152220401676664 -0.5527632684170672 -0.1922349556114431
Ni 9.289747002390637 2.679245240377914 10.413760265695396 -0.18808031001312125 0.36591168860472467 0.28183018747277266
Ni 2.8049608247462556 0.4460820256484948 8.480988237447653 0.3878941064130868 -0.11948250633906521 1.0893391284409948
Ni 5.475081922704672 2.874934329634499 3.3826401980735565 -1.0397816292278417 -0.5075236798529775 0.874916323878603
Ni 1.675673452968368 6.190698012121139 2.9335105783789173 1.5165171200553689 -0.32090272799420216 0.6752117993629919
Ni 6.502624388666771 8.237544188275331 1.9460295283414473 0.8710280445677903 1.3531625949237018 -0.19782761920787217
Ni 0.5037523840525915 6.0263702499754945 6.996882631878972 -0.898710083864091 -0.2147735030335914 1.2370153236054566
Ni 4.572686529683347 5.425994222884963 8.082875528482665 0.9219027199304705 -0.21705098621385846 -0.4470832151787333
Ni 7.72475620046819 5.716689959561733 11.27112396173763 -1.1058229850286312 -1.655184169742685 0.3486027650126319
Ni 8.849803036187986 5.2147968874730735 9.315477270410812 1.0731555767025969 -0.34951087864919805 0.22347000236632483
Ni 8.815002680933231 4.5665820217315884 13.801924344475834 1.1363877451893654 -0.7761643652186697 -0.9249175954973943
Ni 0.7980893898236382 4.1411583965806 3.7912563886593538 -0.8913762692068391 0.1304138085395883 -0.3427835872276935
Ni 5.663995474127779 8.84743579188303 12.843320879000993 0.5979789457217571 1.1378080225756597 -0.09250057843358263
Ni 6.757131111028004 0.6385585593463448 5.5367290651439065 1.3675237487413803 0.5859322989698683 0.10849489697930993
Ni 4.560663910969197 2.8465087582560833 1.09314588874564 0.04600989107121108 -1.2888330796076963 -0.22501240715278023
Ni 5.4201413511388505 6.177063057718968 12.13503485905637 0.5503762562421295 0.4179611010017963 1.431161894417316
P 2.616485306718161 7.886045688427158 0.16438740924624162 -0.08830325252278341 -1.632596514250156 2.526698409918274
P 5.314193188702842 4.683070945226281 0.4221374427024541 0.07109922993967109 1.434757325078058 -1.0537344918635079
P 5.6390275706121145 7.801384085016823 6.443144113553924 0.3102730161944979 -0.3698619315017243 0.4274893522072057
P 6.064823990141837 1.2388143602497352 0.9247574638296432 1.124172434070096 -0.4061363404527264 -0.5637179676563582
P 5.237155230337603 6.861364419321838 2.990405524475248 0.03373518746891609 -0.8583468495556958 0.4976262182336075
P 0.4753612961542092 5.148299690166518 11.911111255540472 0.5153681155980608 0.11278735370707674 -0.6291016352684907
P 9.038800466346308 9.045818320525962 4.636001926967412 -0.5018698240013099 -0.7032615064113567 -0.11205844596085217
P 8.464808961410627 7.676190412778707 8.963755093935397 0.32913668586822026 -0.08059714212777733 -0.7314703647454047
Ni 0.6543277615667639 9.232187550314213 7.8134607589158875 -1.4695055271925208 -1.0872971583103017 -0.9499161744242608
Ni 7.988154068762212 7.652648447761699 6.600146466157458 0.5097564258382382 0.2076824005147649 -1.3368620579914652
Ni 3.4068000697733156 8.496561722619235 12.040996545034945 2.5039824563779973 1.4150495622364856 -1.4025396026949328
Ni 4.569666895215607 7.934070924267476 8.426604061492089 -1.0224534223620392 -0.12782162233237987 -0.5658915782689093
Ni 6.861653334965356 9.273362689445309 7.829652150770223 -0.7941795708491677 -0.29546911841244594 1.1924514209521528
Ni 3.4538467203694596 8.025442826495011 2.396372593738864 -1.134643508804749 -1.7410703281835433 -1.786436929243801
Ni 7.448329168637439 7.647270888848471 4.121712509799924 0.5017957762302648 -0.5159245023221631 -0.25872625446545766
Ni 4.085444276678907 6.482400293620489 10.459605586406072 -0.4062181015332552 -0.390451839837934 -1.7789491055071878
Ni 0.20490922622860588 1.861641928799481 4.692351661284847 -0.8741830452570041 -0.19652689811857765 1.7479187185639444
Ni 8.53561193379155 0.7571537710808799 0.9409693593748081 -1.957195460149023 -2.985033543861743 -1.740819645625318
Ni 3.652769800861556 6.936734122842244 4.977247649414472 -0.3707885570810517 -1.0753140178064966 0.06358312406828405
Ni 3.7839468228783404 4.628717524806964 2.4109824054414224 1.4062239935250556 0.9824403723042111 0.6685423577626164
Ni 0.6268155364162453 6.823246194096356 4.872952830048146 -0.7028262186461508 1.1507198455413215 -0.21162698698480975
Ni 2.08883214305903 6.753729362322061 11.840821807416251 -0.6451144657569792 -2.9731483623883825 1.2617159116759302
Ni 4.440642760736007 3.358597756603099 10.053676311304995 1.891278802851556 0.25768727167798205 -0.047389287917240966
Ni 2.183754911744 1.0272815098969852 6.2406496629135635 -0.4724636029250508 0.2041589607425387 -0.7679224369248516
Ni 1.6939310576668318 3.6006997460119803 5.838826717894234 -0.5476987094099663 1.8324319079166764 2.875597880235719
Ni 4.428862458368035 1.4130864124480906 11.808807158156583 1.8554224552745788 1.5430637601956458 0.13117485507532894
Ni 6.387822359735846 7.469923283025566 9.676692655740666 1.3096417888229317 -1.0752242863061676 1.401490335494812
Ni 4.457017753821868 0.4763044659324045 6.9063914563711934 0.9580418888551888 -0.23955353819174874 -1.549260633034977
Ni 2.3767412417547678 2.3583158795858736 9.885884357394971 -0.737173328667453 -0.7163455932888243 2.08760669758545
Ni 0.847165905811985 8.67660276782849 12.556268275390394 0.9931808986501668 2.5603407805630676 2.6223015385365804
Ni 3.4767176555047485 3.2586143042268243 8.03409631601136 -1.3018222927785128 1.071232134427639 -2.571037855265598
Ni 2.769293722560946 2.767280632915786 13.268019419085345 -0.08440160347553206 2.2931136877154508 -1.4876462026572894
P 8.457222595803403 7.80899841020245 1.2649528381146213 -0.05232092089090345 -1.5835084984742536 -1.1217805367991518
P 2.831009831960246 4.908742022392492 4.294634114361318 0.282968414842274 -0.16320668669989313 1.3571076956143788
P 2.6455446285404225 8.034091656081625 10.009494585509415 1.3459956448616175 1.2096742125883424 -0.9099522324368136
P 7.23175427431232 7.5215646243395975 12.190756434845637 0.14216297865571648 0.5830503494363829 0.22028980486613028
P 0.2555785062000909 2.463555732702288 14.05904901536172 0.9537494321274219 1.9745069548442769 -2.147299485460392
P 2.4407127571454037 1.1047668215167044 11.95496585426871 -2.316586059805778 0.6053289583289252 -2.6425636312197263
P 5.949872843459419 5.120526508950887 9.696444233911903 0.24122886901164264 0.1842010295633731 1.3269694814681017
P 8.121446698878309 3.269360102193812 3.4738545946760766 -0.5651001927158654 0.04593892862395959 0.4541090116772631
Ni 1.0723243907074376 6.475885711852124 0.8790127976012252 -0.6575375220116805 0.498240968999471 -2.253491188227822
Ni 0.39764112407588814 1.9273469380512274 2.3806593106752545 0.6944156259849524 0.5061306561601929 2.5562285581669073
Ni 7.41964264119391 2.5410037648841337 13.218339908189396 0.046448521270526455 -0.5986250639461884 -0.3406721973116455
Ni 7.104892347229374 6.0765204137745945 0.40981286054153077 -0.11477455934043458 0.781617417913441 0.12083773481537899
Ni 7.115740663650514 5.907970755289795 7.9007738623449635 -0.16223455259461092 -0.4041216240155427 -0.02857112676947338
Ni 5.759757030164899 3.8928400609063405 11.839034258370225 0.6147366247960703 -0.6891394651876775 0.5585618773767155
Ni 0.5437960922442302 8.387454127823464 2.6216466448917237 1.217348955524781 0.908343493188797 1.4550063051350812
Ni 7.371626725213059 1.1034247617532642 3.058894375750186 0.002599642406376168 0.3120537622440045 0.47681133837078526
Ni 4.269968174292429 3.9026725126454322 5.915854424414057 -0.19402470052201426 0.009813386545996004 -1.0634321787672458
Ni 6.642962832540927 5.096900665198663 3.5650820390818527 -0.297954603838461 0.5470595331640707 0.3794092088705272
Ni 7.859595927256029 0.274886459060636 11.73824463814994 0.49222664448459097 -0.11637867060276086 0.2602786865542421
Ni 0.974381987554728 0.06276459358948738 10.055572902706801 -0.19190534018616628 1.139210045129509 1.4318062128695341
Ni 2.186634748319715 0.8400809486441585 0.3913381031174546 -1.0008114186122312 -2.103953257264273 2.1145881112703
Ni 1.1175350289883201 2.494497666137153 7.886738153985655 -0.3565181632049666 -1.7368758304862215 0.7227527823667489
Ni 4.931473159635756 7.231903392063813 0.6534330550578039 -2.0781116136108206 -1.391424466618378 -0.25777751739894317
Ni 5.898576336945716 5.646446178748908 5.722895121995748 -0.34673742966911897 0.9606027076038295 0.8734513092973021
Ni 8.703574441129845 5.419973593668421 2.3403378706714593 -0.07945840053764379 0.5137760885205926 0.29051254573811897
Ni 4.826112148346253 0.547414993675784 2.5016646380683008 -0.8021697881434959 1.7472913693925907 0.10269577379902958
Ni 3.0908288742184284 5.14991202585454 0.16590281839579255 0.8383639786758658 0.9801335785479056 -0.3775757552062142
Ni 1.8225637580487615 3.773853415074136 1.5452699792874551 -1.3839014187684553 -0.11786553956093249 -0.10445826501609108
Ni 8.76329610060292 3.8852164158612448 7.249573845615773 -1.3360781286375891 -1.3276788488303006 0.18407555972910233
Ni 9.325078589635085 7.466484254881751 11.120667878424653 -2.6350022739327006 -1.7537726062415604 -2.823408599826673
Ni 2.7148191439685405 6.371904039763935 7.356202357792968 0.8633443027702873 0.48947839231549256 -0.3533559634269011
Ni 1.6228391696423892 6.319414591238283 9.490894733337823 -0.7453543218163485 -0.7703688415828152 0.19588232255604326
P 1.7537086362967185 4.534568304457865 8.301342354279855 -1.1713442066598923 0.07504175952718689 -0.5207882581723676
P 2.080201953191354 8.105938452723002 6.296685317966914 -0.2770885590227292 0.3410491210350901 -0.6602042702105663
P 4.694888527032126 1.7469237786037721 8.63368108703303 1.9766062605754666 -2.12512912001094 1.2621419434697554
P 8.042125374943327 5.227947209182891 5.834639305035112 -0.2711626804565975 1.4218496158774545 -0.7500568694983404
P 4.7914981902808655 1.7679121021264577 5.1874626716384 -0.13659808297342926 0.6378086761241855 -0.6621742494527435
P 8.4764121864487 1.2917698017488024 7.073801296043015 0.11600046132773573 1.0746085070990397 -1.1723929596393807
P 2.263682026544422 0.9079696009693352 2.5252895498345773 1.488068634906689 -0.40813460182967776 1.3314123477308037
P 7.1349022947174054 2.1770912122241417 10.961400799970313 -0.5001469277729322 0.3580649388667962 0.9480007025691027
