# total energy = -381163.1536297861 ev
CRYSTAL
PRIMVEC
9.28813186003924 0.00000000000000 0.00000000000000
0.00000000000000 9.28813186003924 0.00000000000000
0.00000000000000 0.00000000000000 13.59411983592843
PRIMCOORD
 96 1
Ni 8.833523989756914 0.01416440067543864 8.499219984674427 1.7069541032261248 0.4732372478662817 -0.005602433788441965
Ni 8.474481974996419 1.4548186272756096 3.8137894954105684 -1.0000945950508648 -1.1496253269255619 0.48030598178760503
Ni 3.800183311443716 1.1813760332527157 4.584902254620925 0.6134747273645113 -2.0746956459507366 -0.5885892769767411
Ni 6.240816361335083 0.4630811631446209 4.8913548683162835 0.09234888334706676 -1.7733392155195784 -1.1939845697672276
Ni 6.317824260351518 1.012842885543972 1.0619947491074826 1.4042365307813816 1.291837413651659 -0.5131065732573937
Ni 7.05074143602246 7.749246084150779 8.26071098237638 0.7270069296574124 -1.6297189355920447 -0.15495910197912022
Ni 2.997103589738502 2.2370836460866217 1.8757028797916502 1.0034974500848266 0.7159265034735347 -0.7698865026297579
Ni 4.6386322382453695 8.971127659269454 0.2927674806099877 -0.17723616820976573 0.2852746943779474 -1.8209113088715865
Ni 2.154122054720708 9.06895026118009 3.139643901191367 0.3403734351243041 0.0486360158401485 -0.07840039158677466
Ni 0.77617757736663 2.13811860399036 1.9153028288275404 -0.27274956532774314 -1.4214264122971068 -2.224949372034388
Ni 7.930169599401186 6.784525008376937 2.494140118357641 0.27693403572273595 0.4028795240783255 -0.8124516296854781
Ni 1.3469741313788768 0.2491429841559547 5.319351972004292 0.6923376604100012 0.17801418402637084 1.0456704839084507
Ni 5.7736326304669605 3.584113506255041 8.297741834214353 0.0952693994279714 -0.25320018244090586 -0.4918553771881013
Ni 5.658914917193293 7.314180712322438 10.218006382937512 -0.6389222209033384 -0.6605565113436623 -1.157562579494768
Ni 5.818002035074548 8.32743227565639 6.548178283113148 -1.125913585130919 -0.6561388418919409 -1.3380280532751085
Ni 5.3122911343692305 6.089531273989809 2.8765427128812817 0.961787214830234 -2.3900424771237163 -0.1710727197115312
Ni 0.9435255594844318 1.4731255346403898 7.377705030709013 -0.0749563989022322 0.045652250621476216 -1.1373843047746799
Ni 9.284016948156998 3.473529011539125 8.280898736388227 1.2009008372710865 1.177787648292391 0.0347901110959917
Ni 8.220535169181883 4.393249089757229 6.463501173842477 -0.310325209588672 0.9687119669745251 -0.19886120267870913
Ni 7.73732012318864 6.644125611255672 10.79449191754891 0.6259875151195413 -0.7592380217769763 0.20600578414329035
Ni 8.05222493663131 7.634546947140294 13.337802475733243 -1.0365831768952019 1.527366404065047 -0.5010126182073371
Ni 3.0163300221307368 5.396738826789616 2.9746105214659058 -0.7531105687229998 0.7324772087433643 0.753564882651599
Ni 5.82011972907717 6.680228578747757 0.23328628590473582 -0.22692942166983496 0.06801904835245061 0.06172447359299047
Ni 7.965733855261025 2.7307106875927603 1.8252692540686573 -1.644475010855297 0.5609509464341823 -0.43703123025936985
P 7.975179885088514 9.13908494281959 1.694302883390654 -0.9553396594326772 -0.2634838237551011 1.3288854675438921
Ni 5.052678568284518 1.657606404289939 6.797888772109279 -1.7490785432000004 0.029010785410053263 -0.4421850065461675
P 3.863872029759442 1.3191376010022935 9.38111136055094 0.8730399327914965 0.9176274895938842 -0.7644355068175157
Ni 2.3415658383476115 3.8644478939180504 13.559304909089173 1.0148707249187747 -0.73351619153084 -1.292479161000716
P 0.37287297151183724 2.9349195487404285 5.725788535831385 0.5516252981578823 -0.830174243776222 1.3684411183493272
P 1.9744245728402416 6.0810883623740875 0.4757399576892473 1.1140895959127974 0.8082247360883242 0.8727614823191292
P 3.3560527231830934 8.982533484862529 6.16077310091489 -0.1069406651183126 1.1303716209022725 -0.5797683362510015
Ni 3.6771341441334138 7.110789206754729 6.898281400030993 -1.2159207077186867 0.13328418810884785 -1.0434019995892483
Ni 3.6668614705943736 3.45533356175343 3.9389777194261515 0.3949744102986359 -0.4909657754942963 -0.1740153472796229
Ni 4.172525930641738 5.3288890255213675 5.228094221501787 0.290544427417319 0.34854337252960615 -0.05670593733247654
Ni 5.955977229850705 1.9821522983234976 10.137420695632436 0.12186437630768045 0.04932352882547634 -2.13052252311237
Ni 2.413539570042021 8.287651208054486 13.130641846366128 -0.712913941899456 -1.6976382251418374 -2.6741437200188525
Ni 1.1047396594999 4.4474453375875145 1.7371518208568841 0.10194372612435346 -0.3129163673546159 2.02057649550883
Ni 7.3412649040401945 9.079120765271634 10.088862343677555 -0.781719490708944 0.8554916394950878 2.231070911551093
Ni 0.5514725962383122 7.088367657095379 11.75798881757913 0.6967345039261161 1.3337754486463418 -0.30393267579876687
Ni 6.806287100693365 0.855001306108997 7.835677721478886 -0.1689623582367477 0.02215365327890378 2.599430290365362
Ni 9.219241518445187 3.525700446682691 3.7473412731993188 -2.0114483079553165 1.914460897394974 -1.4835625195062192
Ni 4.077387598760743 4.925524046811237 0.9684883419469297 0.5854962398737141 0.1692251249798311 -0.23486847401125355
Ni 4.581426635779778 8.687421679839112 8.471243203510829 -0.25235608927305575 0.8804279977254515 0.5904060184705058
Ni 0.32521278188175307 2.8763207265362696 12.91132769681291 -1.133043254197165 3.3177124385552674 -0.26277497061353455
Ni 2.070501006011873 1.563982037858187 12.596174890256775 1.3732999891035251 -0.9588052493837745 1.1398808459442886
Ni 4.412215454464931 1.489500510634356 11.72423481856627 -0.4482525528964861 -2.435284122570335 -2.0594302351512335
Ni 5.945964623996198 2.443187286078742 4.2466665834362 0.25596257567739145 2.1279565621574066 1.0281892964045518
Ni 3.144608407526463 4.896702974486066 7.509079150363837 -2.4976284891355114 -1.0701005919263569 -2.8587597256324573
Ni 2.0688662948519534 6.872752970354637 4.976426723179548 0.2981458939136607 1.2050477695599244 -0.13529607633255408
Ni 4.804676166687871 5.886492717422537 8.269234700736938 3.1056707326305415 0.6707964439041157 3.4177252662054944
Ni 8.9276034746366 1.107665420950892 13.568426783124156 -2.9909691926198874 -2.0559700445167755 1.220582117750098
Ni 6.437251056341544 4.37290808157414 0.9795375032869308 -0.5194685109196796 1.3628371418989884 0.14709846828412088
Ni 2.910018067946428 7.071500410127119 9.591766185022383 -0.25688637304324147 0.9312011145132608 0.1546431134005982
Ni 0.38974672017221057 6.1706816796955835 9.094696961948822 1.2094335573324462 0.7922463583821968 1.2624203939421226
Ni 1.096640408753026 7.927476041239955 7.2587974412748935 0.2857403211604563 1.996401440924523 0.237558619248907
Ni 4.784864582005439 2.5214676591230676 13.433641132736158 0.05902301550142738 1.1729478037015864 4.497222211745088
P 7.377005634400252 4.825500157713665 3.114004942749084 -0.18068221777683724 -0.5230012066632863 -0.1333510367910413
Ni 0.5804385634162945 8.685879849995096 1.0129599160020117 0.8735263855096117 -1.9062351670510722 0.9851408019545098
P 2.5450223608364526 0.2431363494564097 1.0658632559149057 1.369749038527473 2.3011332155858177 1.6240740786014416
Ni 0.24732158155106718 0.22263094134416977 11.59927786902729 -0.3274544130697909 -0.4934211790133245 -0.12605347468836356
P 0.9037212715535518 8.37062208755199 9.86567411443796 0.6067638910032388 -1.603406265839445 -0.4005889282719359
P 1.9481112960444926 3.658530016557739 11.365853189961856 1.2678091690578617 0.49727114888703394 0.11162315819564647
P 5.497580071467149 3.729574935093103 6.130390693669364 -0.07233130257455929 0.055815821418039355 -0.9067036435925286
Ni 9.151707513651013 5.738133391528255 0.40932888800435957 -1.093202210940827 0.9123798680416997 0.2535858479150988
Ni 5.8345441974371415 8.146991743248687 2.192622288976289 2.5939479270945522 -0.17474425502584745 -0.12455452154533386
Ni 4.557797629013669 0.570391591474903 2.4971169645323807 -1.2847000312759294 0.9771780954640074 0.6272309006083391
Ni 3.0696438974599287 4.755226154100307 9.715512891015129 -0.10059441118531064 -0.6068430809806065 1.8227784439873123
Ni 1.132799105034654 6.980736788225227 2.7629228567616058 -0.1471959130939336 -1.302448613508602 -0.9542880782397114
Ni 2.5821841753298496 0.30284138813299144 10.68704402487109 1.0142878558321111 -3.1021730038899284 0.4181621612690089
Ni 6.22407914820909 5.819144475260173 6.468135951506113 0.2128207501825948 -0.4242780443587596 0.9107603301604057
Ni 6.8878090316627585 2.1159199694891813 12.153645575882347 1.0157973504981022 -0.08234137851239368 1.7315927277104113
Ni 4.477668917782843 3.9523786356848554 11.763100076393355 -0.40982253105506194 1.1489342143958083 -1.2922169084782646
Ni 7.621450681597756 5.4212966467147705 8.550184891524395 -1.185907449186048 -0.28256552297690046 0.18156076372704863
Ni 7.9291107523998745 3.7857031142942015 10.511748188551339 -1.0641849977728703 1.4990888972765923 0.9478261246644515
Ni 1.5658025116499157 2.132926538431298 3.8964148564129073 2.376271648591869 -0.6775324770763687 2.0062639355408995
Ni 2.896327361982103 2.552945137083108 5.975213879187689 -1.4118295126372908 1.2761040620768023 1.5283588498853033
Ni 3.5449640316012876 7.324184030045354 1.6397091035282978 -0.5424824553163496 0.024583602876635084 0.12429406879509561
Ni 4.309219363258414 7.4904044329880755 11.969934692341646 0.16293543531637747 0.46600781999737806 0.24212129891892492
Ni 1.784705196973678 4.56891552252744 5.082719172287517 1.2581104537128591 -1.3006493555163343 -0.23384234673958437
Ni 4.448996455563119 7.924782483078723 4.09222446016333 -0.9836109955735447 0.26655012138525064 1.3862074411938128
Ni 9.098932349954069 5.557757876041685 4.621593160842686 -1.3907881185859596 3.2423852865771776 -0.7343471720725675
Ni 2.6658516646966377 5.883854888050848 12.034520644169008 -0.21051421353660518 -0.7654819458041591 -0.482003424094686
Ni 8.155044553337609 0.05296557039455006 6.113330253564023 1.548370774230856 -1.6011298111004426 -0.05853810544520886
Ni 1.278111923767269 1.9840006365099974 10.264579861171514 -1.9283317418397954 1.457277617667761 -1.5683965825334796
Ni 7.467499900486022 2.273483833789601 6.233501957707603 -0.07512557749024482 0.48988488372529176 -1.2157304460847513
Ni 2.5379448045645288 2.881066961778991 8.303002631947184 0.9002812850059527 -1.0486794459381037 1.4125147116297738
Ni 9.022713942122822 8.52718283364064 4.007329079800285 -0.5425169080987108 -1.3520410797247489 -0.9252104441474647
Ni 0.1813851353904515 4.861445226968711 11.83007865091842 0.8026505844346563 1.0955084904765005 -1.2679132987358939
P 8.306199606840618 7.045762997489978 6.377844166689015 -0.06543380412377764 -0.2604995443157965 0.1845337303124435
Ni 0.9061686942276357 5.839290432679862 6.803978999993138 -0.3308104740262174 -1.7724293021107989 0.21508306385421022
P 8.227231912058597 2.1407007045725055 9.404384631877134 -0.8824691965251964 -3.7781371080379125 -0.7364868441233897
Ni 5.294504362373516 3.0232589682972133 2.298860866921033 -0.7693923366021588 -0.23222229463765814 -1.2494381227498417
P 6.146114571638839 8.905367687609058 11.853188451128624 -0.6578614810100025 -0.045797517950088865 1.0248538042734157
P 5.976522576928784 4.806617386190276 10.106738281736538 -0.6944696191513395 0.9195964403947968 0.3883239948616538
P 7.764803704564786 4.2826088662517705 13.070501194317954 0.8454581665184858 -1.4025223763037522 -1.433179696178293
Ni 6.798113544893767 7.004068574780441 4.674922825995582 0.4915872111283791 1.0798764403661982 -0.8910705650409622
