# total energy = -340890.04885111377 ev
CRYSTAL
PRIMVEC
9.08903008842458 0.00000000000000 0.00000000000000

0.00000000000000 9.08903008842458 0.00000000000000

0.00000000000000 0.00000000000000 13.30271426764954

PRIMCOORD
 96 1
Ni 6.501992305241198 1.6201014645973788 11.505091726634486 0.14055886739339019 0.4823024433923436 -0.034100027007502566
Ni 4.547705376289008 0.4754644417097057 5.96175761614014 -0.09360126769692913 -0.5768156813805807 -0.18081437247932733
Ni 2.534576065476694 1.5996238794366036 4.541413949547646 0.8205842860949415 -0.5183760491864492 2.438411869566039
Ni 3.3044078389043525 4.34300223692328 4.931276086525343 0.15634338392115657 -0.043979748015059744 0.18459723656052726
Ni 4.977807376907319 4.4396095394860335 2.727907919092467 1.4439701019255777 1.4536492768865545 0.10800047384139465
Ni 7.379947182562592 6.226203860264097 2.7856550728070637 -0.036179535244350594 -2.00507711432165 -0.9593834904847477
Ni 5.217266967961819 4.772549806696137 11.670378468500552 -0.8193946366622147 -0.5010905226331241 -0.07168569857076042
Ni 5.676926494963991 7.706997758168531 12.427848251880643 -0.3026265553928336 0.5055344173370907 0.35410749688094495
Ni 2.0617828897584443 6.5746591021166525 0.3125472100306845 -0.8534915783459237 -0.039910977262324815 0.6455816352013849
Ni 2.8473114184336223 1.7915114861451211 0.07869918625459654 -0.3240045068479775 -1.3313820087135007 2.1922840205908822
Ni 0.4446717161144146 0.34480326949676343 4.868580864740828 -1.2607260369588353 -0.320288491448971 -0.23614271273798687
Ni 8.656755974491313 2.3493688960043806 1.3282290716839673 0.2002621967912938 0.3105087863543878 -0.023932856666513624
Ni 6.885349423266581 0.7761213823629705 4.833807143894575 -0.28983480294480407 -0.22781490959858183 -0.6680484488453334
Ni 1.0959825350385177 7.706334258960037 2.793078083814967 -0.7310654159975022 -0.33552459167243504 -1.1718226889582077
Ni 7.305253531940643 3.782109090959405 4.007203469698501 0.6301015372879147 0.3035056155636773 -1.3040604380804122
Ni 7.804232203818765 3.983767405190264 12.831598427085444 0.09964104613310582 -0.2385112129701634 -0.06299948365067214
Ni 8.021523650085367 9.030815014567528 6.905665223688846 1.6051700426080873 0.3244248822148477 0.8505162977676837
Ni 6.881468407348404 0.749139687152905 0.48612950980897507 -0.3416582153739987 -0.615161885258947 -0.20797524916483537
Ni 1.9311008127759193 6.842603713985121 9.227428008104757 0.12007848805185127 -1.242316424103396 -1.265728632379749
Ni 0.4218864261723161 4.924300255805904 1.3112580343949307 -1.2178744890109476 0.05309019495676017 -0.43722920520278896
Ni 6.542311243445015 1.7931202444999623 7.033451535632657 -0.17529935619836906 1.1196645188974135 0.5625442590632312
Ni 3.5480574729056427 4.065832259347673 0.3997291882207234 -0.9888087377244003 1.6035443340792062 0.11038440069253892
Ni 5.933809757014145 5.776415020117053 4.849025816150767 -0.11027564302881654 -0.07596967065809497 0.5960249073191799
Ni 5.515678009239483 2.931057743187899 9.07050953639294 -0.37148969691313444 -0.8089137917355489 1.3174551142197632
P 0.30673023066854677 5.924602569367511 12.295898255177779 0.28341090169633126 -1.4220961846706217 1.311046125369626
P 3.970470153929627 6.264405054418886 12.801800950302894 0.4743605628374476 -0.5735007580747349 -1.0738068371333507
P 2.504064190916231 8.702973693329547 1.3964522416685639 0.17389321987946182 -0.7977477478164003 -1.0720662002931602
P 6.479324263789367 7.9754422667009335 6.072396563607999 -0.8195707572287627 -0.9658654986646656 -2.459377416074113
P 4.747573151559959 1.1973615784842742 12.819427306673198 2.2458894646211647 -0.4387078466308445 -0.44879479855320126
P 4.019887211417037 6.1929834546881395 8.030382727873299 -0.4952623459871212 -0.5341878194077251 1.2930095795828893
P 4.60330297434869 0.944168462716977 3.7547711057634086 0.8375813348735703 0.9116211354988043 1.262113404224665
P 0.34093225151186585 5.691541655611362 3.4624306277919503 -0.8157205302447371 -0.15505860367146201 -0.3376591215169346
Ni 1.5071066404878537 1.1071620422501263 2.539847703023631 -0.5870188471658278 0.4522619311661953 -0.8570065334777176
Ni 1.6600204854700489 6.7113490280966355 4.800337698889674 1.3326379926077887 -0.6730366460885441 0.44490317680827896
Ni 5.8410380252183005 5.668519141979652 9.304730210409415 0.13444221297269104 0.9804819630262597 -0.12053922973835368
Ni 8.520702280629065 2.5508181625394126 10.36119182410036 -0.2125297013047372 -1.8147964542231003 0.3598372002758706
Ni 2.2659406873089716 5.234272543565818 7.109010461934724 -1.1170003418016892 -0.08635384210589644 -0.3717090120127921
Ni 0.2437868783581154 8.917847457548762 9.328382593837683 0.8373167683582741 0.5315670939554265 -0.2124577104162212
Ni 1.4564080297347224 0.9852690575225812 11.370614979521193 -0.9688631478404087 0.8937830788761189 0.3439207861559303
Ni 4.089872744367757 7.04508004093878 1.6310991912039206 0.09708845491458118 -0.5798922634233754 -0.3237314556922489
Ni 5.420743088243344 7.782727558239362 7.867997204464097 -0.03189659159828055 1.0884063322140802 1.2035814694270432
Ni 5.334569992411427 2.976293846758772 5.278903317721819 -1.1047418361493102 -0.8361494875230503 -1.0280370870974036
Ni 0.6513653531056234 7.35471603457932 6.951732973527901 0.23332966876922395 0.42929349529548005 0.2135082631679226
Ni 5.100309326661837 4.345510809273202 7.324860388003148 -0.05092918274969938 0.8032298539768941 -1.262835369992354
Ni 8.255820671955972 6.835305222691689 9.448744985870565 -0.5227836913358416 0.6521495182268897 0.2079737065029386
Ni 4.682259380159456 0.29456819928655226 10.33595613160196 -0.5081854818066927 -0.12773574748679292 0.1728670926077926
Ni 8.185480666825372 7.410577214516348 4.633442198668766 -0.2739919223752765 0.03102730161944979 0.977977451436851
Ni 7.350762306419117 6.154200562597136 7.087686688057363 -0.16713867476444763 0.2444350346537661 -0.1093086511298569
Ni 2.395613881933375 5.026751804821555 2.6907665058652177 0.3224101657776641 1.734337123224768 -0.3657875043220346
Ni 2.590091862264095 5.105371916512947 11.391314337020148 -0.314861921116761 -0.19286976098196462 0.7366583367042474
Ni 1.0243427985816906 3.3647862668772914 3.7072672891443266 -1.4851524897011583 -0.04729518554153791 0.7595079876089114
Ni 3.6597798327796998 2.7130482635312814 2.8326798975317953 -0.25858458668127077 -0.7459240782768896 -0.883558315824317
Ni 1.215948645352355 3.2735142250732494 8.339058919919085 -1.6419190772026628 0.7156357117059933 -0.1026590070238232
Ni 3.26551587845031 2.7236188057159154 7.062264670438771 0.6970633480204446 -0.08892443104655008 -0.8170073673769606
Ni 3.8176471992499654 6.745705562454261 5.98620801642465 0.5294330783315592 1.0551416566236795 -0.8202274169761552
Ni 1.403518962690536 7.498313623551841 11.432100451378988 -1.4985988450140513 -0.31183496136497907 1.0210660550962092
P 0.38597566764136904 5.627991156080007 8.28000839926616 -0.20150918182451746 -1.4800357372998834 -1.166217169845972
P 8.624544451273474 1.65708472869822 8.354982900922938 -0.6238290740156418 -0.08953403960609096 -0.9329494646629352
P 1.848845088983191 3.1234179794695898 10.56416441210585 0.369281376407906 0.8020209212704574 0.2002719669833067
P 3.8965490708792117 6.167370567434227 3.7112573734255427 1.377140188785222 -0.33656794533528483 1.2224191709588368
P 6.8615179859423225 4.117467040216898 10.423036312653162 0.5682585358391892 -1.420203338523283 0.8566882309063504
P 6.393405660804544 7.845460045047916 10.355099447121546 -0.5636027822347326 -0.6725895312487965 -0.9299860111592371
P 2.1956915724809054 8.617491363796884 5.609621317034981 1.4414097973975692 0.3044561524024047 1.102583909266043
P 7.05792284068675 4.055697990615197 1.7919023144460147 0.0798396951364625 0.3069043568325811 -0.681430012358562
Ni 5.618111380194627 3.1258992847287517 0.4145088603156798 0.38566778818572933 -1.0601234261089874 -0.2653324469280657
Ni 1.3927484618403279 1.0419755172731706 7.108944112013876 -2.267764153207068 1.900721179211378 -0.6519795683079287
Ni 6.744487632400314 0.6078679810222133 9.15777513366131 0.7741367932656796 -0.1628269347629712 0.20238927043662563
Ni 2.8318509779726906 1.8110074560385359 9.264423087944927 0.5242083395975101 -1.8261802705800099 -0.08414526449035187
Ni 6.242382334115042 1.9598221483764746 2.6805504358604635 0.8531681335682337 0.5022367204224254 -0.0737765196615181
Ni 4.010698201830911 6.952099261447111 10.421785662090302 0.8741128541407011 -0.02301188751414101 0.4048942405155091
Ni 7.88305227417573 6.953108143805231 0.20699448389259437 1.3047602923609143 0.16929660164771487 1.0965716416336921
Ni 7.684620565684808 4.114222256416455 8.379991367665003 0.775445227664458 -0.5925060955326441 -0.4967463867318155
Ni 3.2996451870516026 8.656110653343326 12.401960875913081 0.4312765871637798 -0.5926081683281471 0.8940461027295185
Ni 0.16610293678281696 4.663690491351882 10.528047332588153 0.8444474658657845 1.33531168278521 -0.46127956128377334
Ni 8.503424034117463 2.5544083294894815 5.683039776712388 1.1511101390012048 -0.4017343547302888 0.5619791305883804
Ni 4.07586654874736 2.6053432550292 11.314277534398887 -0.5198338646788984 0.7839365529649208 -0.16677177834333212
Ni 1.2371079077821308 3.1412415677963903 12.631033523194064 -1.9484033157786893 1.2758826900946156 0.21420066124925688
Ni 2.914206681098206 8.769532661874758 7.787928301350322 1.4990066219754312 -1.990948902450384 0.798962851170424
Ni 5.716418331414754 7.856475949714964 3.5784166517578493 -0.12410380716116044 0.541533461139519 0.46490790206498
Ni 3.268097163042259 8.24577729352603 3.5712599493363695 -0.13913884711741195 0.9508818807716399 0.9804271985289245
Ni 3.3576513781284194 4.425785124470703 9.14507048717319 0.3597515825405998 -0.31571989824168206 0.8963685802151079
Ni 7.359006056858896 5.9569322499786415 11.501447025502896 -0.9462731783550348 0.5846729726414704 -0.8307509422152982
Ni 0.5639397889047949 8.661736763070143 0.2582411631700023 0.3415833962720053 0.8652682592658777 0.23563543408426516
Ni 4.774313078565286 0.27553304322698197 1.7073634262536472 -0.7619639053485717 0.26689670609139193 -1.280236596187937
Ni 5.876621578660128 5.639561491592509 0.5832385268417122 0.06502217050765575 -0.4806633651270238 0.3441673549490976
Ni 8.116176811143653 8.423077006677937 11.56617819006416 0.04532186386525098 0.8681874897952014 -0.36073322972757876
Ni 0.025865562294955458 5.191063293741438 5.628711007276072 -0.42029900510635354 -1.2477280820372705 0.20051802155584175
Ni 8.042901049241223 8.528900585917576 2.2795660525617536 0.4072429432533438 1.5439011684952766 0.7786408517836202
P 8.565738425534365 1.542590214596894 3.3782507562945896 -1.4760471849657806 0.08337059110785641 0.48623263168468517
P 1.8254044799598266 3.235531167644541 1.710356443916072 0.46188377052667545 -1.2958956428814328 -2.7175323714171324
P 4.620726645344343 1.0475834489394815 8.152994654893883 1.3271983096494562 0.5842618532459809 -0.11610664788829682
P 8.575936317478613 1.3557015745277134 12.512320790152163 0.11583925315952308 0.6155094984063529 -0.30419621387279866
P 6.320029919569328 7.697317940948724 1.4250935938028895 -1.2335345641457078 0.45356008115232854 0.09994855007119562
P 1.4794487214269396 3.396779653369049 5.917605833878489 0.7467833409533913 -0.36975523072053096 0.2783422289241722
P 6.950545037273789 4.075457542385959 6.1446170890980145 0.26946960902489075 0.8052682245631615 0.608983524362377
P 2.522787593238111 8.673816084276831 10.194242698600956 1.2084498532629382 1.408068245822646 -1.7863955344829041
