# total energy = -381159.943829096 ev
CRYSTAL
PRIMVEC
9.38579654055076 0.00000000000000 0.00000000000000
0.00000000000000 9.38579654055076 0.00000000000000
0.00000000000000 0.00000000000000 13.73706196795830
PRIMCOORD
 96 1
Ni 2.254430784767132 0.7433428841177065 9.726759998267408 -2.4629005987360224 1.2462862073844214 -0.6552595246107812
Ni 7.187933946980789 4.5565038727511284 1.972710470260411 -0.1400179072882556 -0.37147298474258605 -2.890694369557525
Ni 1.4009146051705996 1.2261980026524888 6.477285546516672 0.2743786162907339 -2.1700360078259595 1.4233331424015165
Ni 2.223720458501257 1.4686612845676303 4.285770571669479 0.5195358738225052 -0.5109267919972555 -0.32024658246744203
Ni 7.830945481867345 3.9248209942835537 12.868563407895824 0.09545863262064204 -0.029864648769916305 0.5528239464516737
Ni 9.00038757286649 7.099895175472871 11.861774355127038 -0.8292519890722686 -0.315715784476624 0.8995184386979993
Ni 0.46102281721233374 3.039890553680945 8.529850373705587 -0.4238401854903927 -0.1786407618667762 0.0021108756954157197
Ni 2.9752881161234828 6.462580819083682 1.670014777654981 -1.4807916416293014 0.6112198698920634 -0.7792597163145418
Ni 9.209071373048475 8.270660663783595 9.828812702583265 1.1801484352150837 0.43090789097045146 0.1119543162828201
Ni 6.470718304680416 4.409428441031612 6.249401222360939 -0.41263608924445705 -0.8075981582479188 -0.22278403204289374
Ni 3.0495109951303707 4.262653354801248 0.49795874232055404 1.877566595471786 1.4062561323145715 -0.016174295767017302
Ni 7.30049780483734 7.375152430484885 2.088761151530096 0.712863805387811 -1.042815530958159 0.32812547099488654
Ni 9.172917284791707 6.553228842028614 3.346225119603392 0.8544832528352315 0.34126766480379933 0.5613800635518009
Ni 0.8509754444742303 3.6196136625250834 0.9398270259621674 -1.3959578357123572 0.7313960598640437 -0.0055224724801259725
Ni 5.8171665202839025 2.78435285719112 0.4506524506196794 2.2576190943532666 -0.1820968387361767 -1.3798691576806106
Ni 5.822647825460941 5.710374927297006 8.36708001301853 0.17838416577127988 1.0903901954133286 0.48121486675511965
Ni 6.9595962888523655 8.944739185204394 10.123871172547332 1.0218463849056596 1.040204575697873 -0.27280098739096886
Ni 7.274855808700919 2.2846718212062056 2.546823688514967 -0.4412349839280723 0.22786864565465273 -0.8146596930803905
Ni 7.256957094706719 5.19969373777187 3.986069886738694 2.0058358468645454 3.3850642856373634 1.8238066281415106
Ni 8.549531450461979 4.985669419360885 6.460815350755256 2.617166017082228 -0.5624113330297927 -3.024441099125088
Ni 2.792790688277007 2.5744676750525226 8.373178903607638 0.39180115477697686 0.39518549786817747 -1.3220658735188973
Ni 5.384040167535942 6.592855675003713 10.706899958931459 0.6758622884627973 1.6241177873551838 0.14579543320198116
Ni 3.40230431532649 8.335300644527202 9.5795954014808 3.290958053279558 -0.8315592970492065 0.9835816849975061
Ni 5.47344926533812 8.3943373047388 8.063215788744364 -1.0176606289590862 -0.44119307494654336 0.020853703520557633
P 9.350806286538994 1.2942919565213522 4.854513237146121 0.34594552989544297 -1.218038782502954 -0.9616568598999568
Ni 1.2885196916516966 8.40838784215323 4.167110638962779 0.893055713791791 0.16525765569165088 0.0018133990596549414
P 1.4550706511834657 7.559001413032549 13.382288411237594 -0.9004980290024492 0.7955810791823846 1.6480431878225297
Ni 2.5871009571900125 3.8915765029529523 2.5488848094342784 -0.2445759311070046 1.1234466116476651 2.9871462193293716
P 5.181841952760349 8.75803692050978 11.012754910650914 -2.510148990200025 0.4651434151145538 1.140379897067894
P 3.785704718026587 6.620271586685443 7.627640681680155 0.2525718048282876 1.2508625139011942 -1.8269109780984474
P 5.602832470587229 2.455549632941082 7.3813630120527725 -0.43221349715575247 1.9366757429291162 0.9147625093412634
Ni 2.9187480777904664 9.28682331155291 0.5703598382197996 -0.109726712503882 -1.0994546196084418 -0.8331127575792556
Ni 3.5383889793023204 6.016229879016463 9.544689624163322 -0.8996266821410893 -1.5639082077448228 1.5461508837614015
Ni 9.171124597653325 1.3870142405007462 10.274786333629738 0.08784893859418419 -0.13342791277556376 0.2439352121992122
Ni 4.621162625087806 3.4622701693951554 9.509824205770949 0.6024830042396978 3.3591347102557956 0.029899101552277537
Ni 5.622439399550986 3.9134266372888193 4.194419552563998 -1.769205395856863 -2.870613796757566 -0.7635438482411817
Ni 7.249542315443259 7.041459206239578 5.919835871432176 -0.3334628240473999 -0.38945810846609696 -0.006947120741794487
Ni 1.999944297489342 4.8258574617419825 8.14849513607069 0.6788301128418696 -0.15161358254565502 0.5297596084330425
Ni 0.1351723645525291 6.160724216688572 7.9970581247008825 -1.4438106935295778 1.199717615596263 0.08324409283232116
Ni 5.21013074351993 8.60561158476473 5.640313710474191 2.3832611925358247 0.23250717286792863 -0.969495124997453
Ni 6.790295290935541 2.2333878289333633 10.273728554360126 0.47512957979298814 -0.44402823040249334 0.41166858312486515
Ni 4.5092370013957055 2.6636327421447628 2.091207090107384 -0.1449395129595891 3.5537093697440088 1.3815987387772077
Ni 3.866582126777517 0.738562697941909 2.5042525311665176 -0.5926570192882116 -2.704104528047001 0.6954852049000474
Ni 3.565438844919145 3.416458096502816 5.074264768603388 0.08934763462689774 -0.3304415207225728 -0.8807835812926573
Ni 5.192889035283251 0.38908631824162143 13.1649405822732 -1.0840997344189265 0.5465753944388005 -0.588213381694561
Ni 8.12053484818987 3.157325639939694 4.411657567708918 -0.6262523387451538 1.4491724720621235 1.984400816919221
Ni 2.45191732968164 0.8072939473955686 12.020478788754689 0.9917824756407436 3.073404416397668 1.8440435240136759
Ni 0.48261296498415274 2.6546129916736425 12.634704085665255 -0.2225114951077974 -1.0147583677106267 -1.3637406275498642
Ni 0.7522143390035577 8.380399396882803 1.7650891422463026 1.3323297173387505 -2.2484186588009214 -1.3566829493721344
Ni 2.5700281932909825 6.031387940422143 4.13936153150402 -1.447413837499804 -0.6938232438165922 -2.1757891082596528
Ni 8.892094252433829 4.029885600707821 10.713122742034843 0.40301296433239625 0.23862948371558257 -0.5992225883208712
Ni 7.2691774017966235 8.976144060413937 13.64569703670253 0.2854896386022309 -0.21963597333221527 0.6175419554553494
Ni 6.437229782639878 4.580569055069498 10.89236329848332 0.9723655045667123 -0.652165973287122 -0.23899329481290452
Ni 6.632172776693122 0.046160285943826006 2.62719895715122 -0.39826028013875925 -0.023946740623584567 -0.33733670518050934
Ni 3.0642748530815385 8.538643926480189 6.096933650531476 -1.0057983303038616 -0.5226155411890935 -1.1847584231832693
Ni 8.253015366295868 1.8170057372056732 0.3973777309015462 -0.05807402132459676 0.2707952698148498 0.8857931186921069
P 7.766990664270869 1.2943388855040325 12.141227061190655 -0.8356265251400448 0.7798798663970439 -1.0156214870418703
Ni 0.317601276084292 8.046405827148341 6.396498241412488 -1.1326048811081655 0.4006547485128648 -0.6414275038236953
P 0.5812548708388178 4.811469035652256 4.261318694533826 0.2894421954920757 0.04173903160999909 1.0483529158366205
Ni 1.9641656410940138 6.157401644714819 6.278249406594067 -0.10933641904399881 0.079204889765941 0.2349227242879567
P 4.372119899800912 4.93980103168933 11.687972867771188 -0.2584927982984129 -0.13579744144900485 0.11646685944119298
P 5.483379438073235 1.5090577528586833 3.687246773784028 -0.8772133474428958 0.819937139429246 0.8019874969293608
P 0.29113614559166145 0.3316330419056498 8.227099304900594 -0.42603282226633726 0.1356506314584954 -0.1361468543686236
Ni 3.720980265114157 8.071916422133258 3.4079038815398826 0.28691068731947367 -0.6325420284086074 0.2769389208187424
Ni 4.54589792266542 1.3778630888781214 9.316516217474279 1.202808595816761 -3.752028326766003 -0.2070535086815144
Ni 0.6909954810973328 5.215386789580105 12.798683336946153 -1.5495254566605894 -1.552717995455958 0.11949664740645226
Ni 3.974978690972073 7.676699301594306 12.601144231571045 1.2052891961467693 1.4005248862577493 -0.21021185180483795
Ni 0.5968409245665414 2.8738839703482655 3.3500714190238554 1.1245491006832244 0.012577322444378338 -1.157371289419568
Ni 7.0867456745259 1.1829857954006284 5.003848768671513 -0.7002859687228004 -0.8166903503571741 0.9526921945075012
Ni 4.380567116683334 4.6010207057214965 6.931611597900552 -2.334247224530967 -0.8363541473346887 0.33841399740508815
Ni 6.9943800508148755 0.9340594539907799 7.61354696960166 -0.4671794717079761 -0.44387782086755817 0.5982476260021117
Ni 5.85188458167066 5.083685292586598 13.422867902561098 -0.42302977377395534 1.0987563079898368 0.1182298648788867
Ni 5.024395215868525 7.543195731665882 0.9630371622161044 0.7830932311280191 0.26200903898178746 0.45604222414423395
Ni 1.9385611881437368 8.016314963453846 7.944047145865412 -0.8985470759236655 -0.24394369683964442 1.4909878654360127
Ni 4.807771031817062 5.491592010042257 2.5876228074774157 0.4596571951890019 -0.01267348170261043 0.03510661389514599
Ni 4.556747903461065 6.429730531207594 5.090776261869565 -0.42607833079229196 -1.3401353294260983 2.1710724195102737
Ni 1.865154873435483 8.306730279871541 11.301563378701642 -1.4177988428468487 -1.3705437665146267 -0.9460548916966415
Ni 1.864497867677961 1.7247433572565445 1.692887025233621 0.8580773979443932 -0.4777405350532741 -0.2789685496542615
Ni 2.534868999467032 3.651825716236722 12.242964402742901 0.07281621263077782 -0.47529952971194916 -2.323716243092656
Ni 2.4219672529351834 6.261950032329605 12.05318641252343 1.481582255851397 -2.660708677559869 -1.2853304657710767
Ni 1.0282890968938594 6.242915636954545 9.964864516271222 0.8474070627147405 -0.4898856550562402 1.7660689071104103
Ni 8.54022074029824 2.300393030404048 6.65082610872882 0.5396190177256255 0.798486682864954 0.20366710870778473
Ni 9.258168474728425 0.8102195001758477 2.395221487126126 -1.8679059324535703 0.7209100727310552 1.3812099879792212
Ni 7.617080721997473 4.09409383481077 8.236467268423201 -0.31740268526074367 -1.6659807461375564 1.6750652249373281
Ni 0.02629524757532847 9.388518417020743 12.522293216292242 1.1843316200584957 0.06811469339005043 0.08206215670907802
Ni 4.905739976060093 2.7683876172833415 11.918260894419797 -0.16420633160900108 -0.019758413573849845 -0.09881109403264274
Ni 7.78956350494001 8.181195251202201 8.062776533466478 0.8463691083685294 -0.9986318944624092 -1.1897121676441187
Ni 9.297485576417834 5.8778175374996975 1.1373830257710422 -0.5554672976117918 0.6967008224747033 -0.3396969778825698
P 3.6423366759388007 2.167574623622754 13.794620531759989 -0.21055946495224384 -1.3108355520207167 -0.7986859433599536
Ni 8.337816037998856 8.551239665431535 4.453857986094195 -0.33754239343341225 0.5619505913432903 -0.7371021091098854
P 1.8140585970933611 2.9333429914039857 10.307164515940064 -0.9061259167121879 -0.6958297327236597 0.12503377517459757
Ni 1.674473031009593 3.4001080389370597 6.270790514086887 -1.0250877746610927 1.8561230808860292 -0.4313105257255088
P 7.287010415215072 6.83995554040765 0.0047520287861896075 0.1259619434158218 -1.3320175854149703 -0.4922477275305136
P 7.740044042415941 5.8292929694084465 9.461401004282287 0.774433241460176 0.7172619344555067 0.8901220850847638
P 6.046405214879784 6.993985847360362 3.856172339839411 1.0317672435637972 1.4765349232354763 -0.7919123720815459
Ni 4.282260283765005 1.2071072924982134 6.327125942055418 -0.7936134139330525 0.8709830502624677 -0.2900047528637651
