# total energy = -340896.60227631114 ev
CRYSTAL
PRIMVEC
8.98960681718141 0.00000000000000 0.00000000000000

0.00000000000000 8.98960681718141 0.00000000000000

0.00000000000000 0.00000000000000 13.15719826033433

PRIMCOORD
 96 1
Ni 6.381101621293218 1.745952453169765 11.339307593971455 0.4205332326043468 0.17088837161486697 1.1032385121309065
Ni 4.550377175510007 0.5719017076650555 5.905306002560487 -0.03312197936494941 -1.597668077804087 0.772569962999192
Ni 2.792333701124432 1.6395964145048996 4.772958043241757 -0.9862363490115338 -0.3394846047614476 0.00622849740821508
Ni 3.359353153308219 4.173002469473967 4.641096692016672 -0.37909656272611486 0.8863621038216992 0.04263069018633303
Ni 5.054397462875657 4.598076029466204 2.645847158511986 -0.2730706961125878 -0.2756081178224608 -0.004075969841586528
Ni 7.37276313234035 5.985307210817629 2.5489571758621743 -0.42331722310738706 0.2905657675735577 -0.3839292082280678
Ni 5.182301589164534 4.577894362083682 11.30919061309621 -0.4816365276735705 -0.5702848222405985 0.918996602027269
Ni 5.568549037163401 7.892182616243311 12.299401201597446 -0.3616863376694674 0.3492218866538695 0.31439372323109077
Ni 1.8633117706213598 6.385155933983426 0.5166057369583145 0.44750950408287443 0.3567760448520436 -0.8053327592525099
Ni 2.7355283754272564 1.4985764518190958 0.3710010747780403 -0.6708298682452125 -0.24007212969938008 0.28600000257974617
Ni 0.6382063509226371 9.19951417189502 4.774746975005285 -0.03157366104122304 -0.39418456740748886 -0.10225174428307551
Ni 8.492508561813398 2.310769451674836 1.321390401807401 0.6275499745106546 0.6446102724270512 0.8187001816983513
Ni 6.769479606115986 0.8765325150554953 4.944777297962865 -0.02657672204726391 -0.4868188432054584 -1.501317015276163
Ni 0.6342751958462999 7.2493627990842775 2.524498253539517 0.3351540957068938 0.7126267496763405 -0.4240255620283214
Ni 7.3468371061794615 3.814416041758405 3.830810387774221 1.9067596720959739 -0.27441538306594027 -0.20198869256409727
Ni 7.687354424122699 3.9415830202854263 12.609385319868194 -0.44438792773475727 -0.6171963991904725 -0.3861182454595867
Ni 7.864377762250374 8.796213439698093 6.653752801268697 0.9403143896684386 -0.05894793928911783 1.7315888710556693
Ni 6.911137830888276 0.6002684120862357 0.5470301623878953 -0.6574804435214999 -0.14658861852723784 -1.200216152499236
Ni 1.882486602036469 6.4505463342241685 9.141515925368598 -0.1930476813207256 -0.3764699237365452 -0.018778823269399916
Ni 0.19053471722608584 4.802922200800521 1.4505018322964887 -0.5293052945044433 -1.1654939185267026 -0.6978097392681659
Ni 6.1263901007513955 2.118742459711334 6.959894761570942 1.686089858182606 0.057892758551726105 0.9170824157236915
Ni 3.539864458894433 4.19578213323669 0.570174804188805 0.10567465392169542 0.6976446744452115 -0.12565983879437068
Ni 6.064991085952898 5.709874646482169 4.522023955499105 -0.5971507933935071 0.7315444125164499 1.7360044836248618
Ni 5.25829073588367 2.733631568381505 9.494063135201051 -0.9107695861317863 0.1668918488609642 -1.0889159248606473
P 0.3109648843782907 5.475920128161392 12.497167158575202 -0.5772167734737415 -0.5187511731376807 -1.1556031417755517
P 3.988715529009954 6.096104115267334 12.609964250549456 -0.39313915686211004 -0.37510878172296047 0.38337590682775907
P 2.244686851706496 8.45217219586891 1.307904193608176 -0.13642633328225537 -0.28046544591476213 -0.4406773116523895
P 6.350483020355635 7.706996715094107 5.607360765785808 -0.710504304016699 0.011254746978212875 0.14706504394302414
P 4.555986690185594 1.1037978669177722 12.38751553003843 0.1943985389216652 -1.3500975828451327 -0.28865260971124485
P 4.003098899972999 6.162249642483637 8.256957489315722 0.002033485490261014 0.31888621178480564 -1.1056250100852119
P 4.550422123544267 1.001675933080153 3.7255924333368062 0.8407414777691069 -0.034474379627785795 -0.3525977451046379
P 0.3001539831781921 5.317963746166603 3.584915873632745 -0.5528077485017577 0.8790527146444795 0.5088333998033366
Ni 1.553763648282929 0.9989161237766186 2.574547889687487 -1.1165010335677674 1.2662688211539355 -0.18467642653789484
Ni 1.7092748572140004 6.5732274989320905 4.707132546029381 1.3798285342506622 -0.6920198720592663 0.1622893170919463
Ni 6.094090443332507 5.563730607890782 9.286416701332367 -0.06824350565843085 0.5825860082054547 -0.12310519069331702
Ni 8.640010031039425 2.2229589719454466 10.136226711059896 -0.3081454283285338 0.9211861534794201 -0.057320430988023856
Ni 2.4239845603677033 5.170102692666501 6.848229461099343 -0.33866956505932 -0.14723730785483027 0.3815753632839106
Ni 0.570902063383124 0.06825359002307416 9.074704268284568 -0.29333793100205613 -0.8318194926891288 0.987918621809963
Ni 1.5231720161659028 1.1828794383939634 11.259549105099316 -0.10740397790797632 -1.1042960068611434 0.5197837281672533
Ni 3.9924641950671975 7.057875183531889 1.5174591210115183 1.0632169774326463 -1.0827918142407804 -0.3342341549957856
Ni 5.509712060317696 7.922046090205332 7.955079299543336 0.1785685138679441 -0.5373073388733133 -0.1671435598604541
Ni 5.308039220202102 2.9009910791433846 4.862966481846436 -0.5570444122909246 0.019900338468352822 -0.4121331814661096
Ni 0.8600986147695313 7.352968018052461 6.77627305201397 -0.5287064845781798 0.24587613797566688 1.0856927899376592
Ni 5.252699200421787 4.570307133900676 7.324849426780392 -0.6590968960790005 -0.1804716444279279 -0.8371043952371519
Ni 8.154094811873508 7.0980767053736 9.087900112182478 0.30908979451967417 0.2380227033695191 0.1682614755149812
Ni 4.508764285392547 0.12536186547115888 10.26348268669475 0.25888566286145737 -0.04483669669871633 0.1362882650424943
Ni 8.332844154516748 7.214896646414081 4.614821869109929 -1.2001912127985717 -0.4169825391386109 0.3243662610627704
Ni 7.207291439017371 6.198999155294217 7.008892613717239 -0.09373265106847084 -0.1942293603336526 -0.7073161360967044
Ni 2.2937611155110353 5.266156641879086 2.55439139320415 0.6523986581232184 -0.6794620899989137 0.5920826348419803
Ni 2.2772382181172373 5.112407395890988 11.434276497637015 0.30358017755535455 0.38045744762938344 0.07554569574679892
Ni 1.103618074780734 3.2114651309875613 3.594994121874414 -0.5986772573403625 0.2179256755093279 0.20310815088052114
Ni 3.714406665530983 2.5979873905931394 2.571745829231749 -0.5526498827676546 0.43250248915108097 -0.38718345349930733
Ni 0.9505250700928244 3.2355662669575134 8.208881071871746 0.8633998385985711 0.3501330856142293 -0.8353994967309032
Ni 3.6557584704291672 2.8019435908491164 7.00301071395404 -0.5285033674284381 -0.37927422595455973 0.024079923767339174
Ni 4.087511308312369 6.9281731358726315 5.896069181520157 0.3640026445074699 -0.05021287340896514 0.02732002797119166
Ni 0.8121129923547579 7.233954612940115 11.337952860218873 -0.34656516575731283 0.0348189074513981 -0.2578402523160785
P 0.29582368955763033 5.541526278966582 7.87330713873637 -0.046324594098152476 -0.06257268052589869 0.9983025361474483
P 8.39057540971967 1.5594001317790722 7.955012776452632 -0.1790804205073561 0.6885298566281368 -0.7146779757784143
P 1.8157567503747924 3.197468313119148 10.317677430562133 -0.17762543322838442 0.04093479054114886 -0.6158900216742231
P 3.8980553439085113 6.195088676313638 3.7383945324546013 0.40972302936272015 -0.35599648637354175 0.09841283015295955
P 6.9561757612163095 3.7462388633935717 10.387397225462752 0.5921942207191802 0.84319122486118 -0.41790222273940286
P 6.321554465506212 7.627645455412359 10.138923593115466 -0.35046732902519645 0.4817432284547638 0.21768579158437992
P 2.4597272372108696 8.483195329114828 5.761431839699204 0.19737896170622782 0.42726232379806417 -0.15311356412994923
P 6.922482714735377 3.87958170182785 1.6426232151319353 -0.3140556231653817 0.1872598709943549 -0.4059373370680428
Ni 5.40935208942305 2.5910024660692104 0.5205647598158926 -0.03979810583354436 1.119979479034671 0.06112257834293344
Ni 1.4400900696406145 0.9568897117439717 7.1417275393643855 0.019371719658392444 1.3012759333567396 -1.812540568309388
Ni 6.84838138545514 0.7051744271658891 9.210565095598065 -0.6142897670666388 -0.5827958102234156 -0.8569137166535952
Ni 2.7679448977352186 1.563939883239283 9.141858429389655 0.4929306125301511 0.14233729945005164 -0.02388014905170726
Ni 6.323397334910852 1.8718878555580751 2.7449863407961437 0.15885355193751996 0.22956685929268203 -0.7746229888734788
Ni 3.977226811453222 6.569029352532252 10.49277339698076 0.47812362942430553 1.12602774211128 -0.6429475400126475
Ni 8.21376782215644 7.179414668169619 0.17321084586178342 -0.15551008938658378 -0.28915037528326976 0.9086209152198996
Ni 7.602079013525546 3.9144164283789746 8.050389808269268 0.22896779225610248 -0.38038057164486105 0.44730638693313285
Ni 2.9096300913280633 8.227674743956333 12.356214617940788 1.1528037246535436 0.14078563869221558 -0.09636263249215017
Ni 0.20257090184009888 4.9214861255702695 10.063283243142182 -1.1097007228164824 -0.8592351656979201 0.4408552319911504
Ni 8.654833892738212 2.30923222890316 5.729631105460598 -0.0580159143931517 0.8008976062992917 0.6262896197409924
Ni 3.516086948771149 2.8974581636505863 11.70727467643698 0.4225942288984335 -0.3646960710300687 -1.1360812696925402
Ni 1.110018674859289 3.2430186510377412 12.423829046916692 -1.0284363794183513 0.3171502029303054 0.9282314903619757
Ni 2.9247685892666677 8.284138464593138 8.004418756750006 1.4870885303816066 -0.17137533855361453 -0.28658158611482903
Ni 5.448052346920493 7.982680988421419 3.541970723779834 0.3466011612015708 -0.3021997522680602 -0.09708382692889087
Ni 2.8995257732265243 8.205308602108799 3.3889262629689245 0.7843592423246363 0.21405102304527004 1.0931410186855883
Ni 3.3538964619491134 4.31283580405532 9.188921718141422 0.2920222975144261 -0.47605260582788983 0.14371438230323635
Ni 7.1372624016410455 6.1225964866598925 11.488865885245199 0.9014112848453378 -0.5430054176993552 -0.624047360674035
Ni 0.311533027531331 0.21631241487391795 0.400258649238244 1.6012992467987712 -0.7964051177455768 0.2680629584853512
Ni 4.6009886620862215 0.38894073421169806 1.5169458144602745 0.27954576231397016 -0.17252205056354802 -0.16995197584352664
Ni 5.897847325755464 5.446497144935114 0.46209006412631864 -0.16465987420665193 0.871421166241151 -0.28443162965136176
Ni 8.020644098157007 -0.21408299237464598 11.216261451225348 -0.2604483793628869 -0.09337243951557467 0.21233172636131817
Ni 0.043089882523227055 4.9574625321915855 5.821481514509232 -0.19583861380230144 -1.23298717628267 -0.778352374008924
Ni 7.746020598438219 8.73729555639072 2.5862838214326462 0.3773530976724469 -0.16117680075405788 0.7996141116011777
P 8.446095221637023 1.61153985152011 3.5615348051716307 -0.1900708580805888 0.05423279320163563 -0.08999735239575468
P 1.8079627612341924 3.2018192828354692 1.4132012565858871 0.00038335148134772685 -0.2623034302937547 0.9420509127435711
P 4.717952436836332 0.9934684220243655 8.11561030494051 -0.7839550649076822 0.48905673139704164 0.8119955159846661
P 8.404707071690861 1.673037751993979 12.320334400112788 -0.04347092669944126 0.17921334654079457 -0.2637090523920297
P 6.3765079321918945 7.543943226014289 1.2833742533913879 -0.9944718495474486 0.2792629409662287 0.5157985182672601
P 1.7529913153348051 3.202871066837142 5.884767447785944 0.05281997201450903 0.4308299865446645 0.6265696128752564
P 6.880752959728842 4.054420565490513 5.933357171781166 -0.24955590082009924 0.49881329656317325 0.4516865182786995
P 2.3223480653000865 8.350373887877959 10.203920248576095 0.46707148537520204 0.7215790737736218 -0.13475460200678727
