# total energy = -340886.9537128006 ev
CRYSTAL
PRIMVEC
9.13546459653574 0.00000000000000 0.00000000000000
0.00000000000000 9.13546459653574 0.00000000000000
0.00000000000000 0.00000000000000 13.37067586394382
PRIMCOORD
 96 1
Ni 4.949192702963392 3.0405292414836143 9.955404407572445 1.5159049403926668 -1.9148938711673344 -0.7573803997429472
Ni 4.581152244852571 0.7479305272181318 6.335895005695127 -0.2866705462842095 -0.42272072717396875 -0.6263860361095406
Ni 2.7106750249619713 1.8909132539659566 4.972688204098131 0.16651826757162935 -0.6132075897460536 0.04730546995418305
Ni 3.733847048404075 3.0451426510535993 2.956643752304554 0.3053593809429644 0.09343388888112941 -0.14923454079051718
Ni 5.119897992517314 3.016822711119041 0.9208904494094233 1.2874482834450278 -0.8476664870237144 -0.4983718381503804
Ni 5.328332750435663 5.012583691094328 2.9211716572168456 -0.188393727488482 -0.9129113150651373 0.026996068972869637
Ni 5.116042826500415 4.429805004563595 11.969268223991062 0.6089398156086351 0.28761491247534987 -0.23021683417185515
Ni 5.718819044810744 8.429019025618976 12.684840022421385 -0.895515231075877 -1.061050823019263 -0.5426390354988719
Ni 2.2143909162700766 5.352267667412611 11.661007504896293 0.5342886066516476 1.243324039432304 1.2508018358665878
Ni 1.0497196832646276 7.44647241278622 11.884605306783476 -1.5874746822108532 -0.1970416329714671 1.6211101108771113
Ni 8.289091115948771 0.0321595756618146 6.628967101520475 -0.5326911802575406 2.512523403969473 0.955003359139181
Ni 8.731603880622986 2.3493399977904934 1.520833760179847 0.5987538762145689 0.2889287461907669 -1.4339332865148662
Ni 1.4908438573355993 1.5658186144462183 2.659373910543744 -0.2897198746334946 0.18371509106589004 1.7462547005979605
Ni 1.8986966697157126 6.492355365461964 0.7814101774994766 -1.683828830062571 -0.09791095081587653 -1.5507369604701873
Ni 7.8062178691355655 4.259318966157554 3.916993013507312 -0.4807482115313463 -1.507873842558074 0.40338243185667305
Ni 7.508173339985578 4.374069535679485 12.791966133275775 -0.04841824340238758 -1.3720648311448436 0.2061932175637481
Ni 6.84764271513774 0.9424967364865922 9.25824331073893 -0.33007796673556705 -0.560890525509892 0.5103539502129211
Ni 7.139639566792024 0.7022623402075329 0.2068159536098311 0.4647392376975996 1.5584505270643612 2.4015841592147287
Ni 1.5673716434103715 6.833738538176321 9.610266558950634 0.5448221591931197 -0.8206107684575029 -0.4949931514861346
Ni 9.27377542747336 4.78208678642051 1.7627225890789542 -0.181239632942204 0.6166523537615445 -0.06193299005937075
Ni 6.376526811129621 2.2506038975283307 7.240996631817808 0.036910242762788044 0.39877012989564226 -0.15960688516377672
Ni 3.58086455997049 4.5682621044501 0.5020449326024539 -1.7931567644661377 0.8917704193214643 0.4194166025014003
Ni 6.237539854302406 5.9041502130211905 5.023362625652001 -0.5313603772612591 0.30215964305874415 0.022457814782883903
Ni 6.640961966402434 2.0129630596194072 11.443065469077979 0.4561535529111176 0.5807965204051998 0.6362932679209236
P 9.187353933350483 5.683556151859972 12.841945345981573 0.987192542277216 0.46831281398147084 -0.4431573977617658
P 4.361106311561054 6.393966412850612 12.488264924510473 -0.5539326061348202 0.2739158177217025 1.3767514379872354
P 2.2628636908806463 8.955970888620648 1.8943436208838362 0.7479675910694795 -2.351290810276815 -1.7828687522765683
P 6.335243647076632 8.390211572444136 6.191291565296373 -0.2956737782240843 -0.8771747808954765 -0.5789232146418869
P 4.898901970918314 1.4341674356085026 12.687674757054191 -0.04761554499543413 -0.6546964530184595 0.613458272304279
P 4.108958356034041 6.305315865390949 8.445506711939585 -0.2430687504338588 -0.4911123283744897 -0.756398238335336
P 4.746896977185696 1.3750335739322463 4.011871207113228 0.6381231220408107 -0.06688467763769126 -0.8237390296738394
P 0.19335667376931992 5.826599254922976 3.9447237159819415 0.06679366058578175 -0.791764790760088 0.6798400421636228
Ni 0.8493168257302997 9.22892029680282 4.540574338658597 -1.2540733075290078 0.6851779094367684 -0.42620431484719506
Ni 1.8131887220423366 7.0674419908878905 4.917801419865609 0.985467074945677 -1.8506618006611417 -0.750873708972681
Ni 8.087005505854462 7.8884827269132085 8.75894267167078 -0.43791980351191034 -0.7338347512125233 0.47868618679599495
Ni 8.909087684832212 2.428928164471097 10.305260723605931 -0.007043537110342709 -0.5760728896772852 0.16403406769719492
Ni 3.2114081048629406 4.385397511653308 4.948941477689779 0.7724226387880504 0.4202902633556052 0.9431747419353692
Ni 1.5518413537688396 1.5083108654500752 7.256305843218561 -0.5854833843579078 -1.1337076272540412 0.11859110487304736
Ni 1.6222757850254343 1.2548748094292643 11.90117155809874 -0.037169924182077915 -0.13809703611645893 -0.8135134952910892
Ni 3.9548065281450935 7.0752162711731525 1.3283979412316247 1.0448063361359425 0.7925384357013189 0.903846890870024
Ni 5.455681125496223 8.115279768466545 8.191236588010378 0.5410778616593391 0.5247827240437414 1.1371235949141254
Ni 6.8350175032056235 1.1598294368230888 4.844315743467678 -0.0742179780743109 -0.3268178079270565 1.5432990161349034
Ni 0.8075686665345133 7.764194732458479 6.965640942287649 0.4783966805800341 -0.691033596886597 1.3435189011863506
Ni 4.813476242425394 4.883408223134762 6.736909009354268 0.5392626628274713 0.30102758633682997 0.8831219996178468
Ni 0.7519492180494906 0.005552535320072413 9.266854399571933 -0.9994376781931561 1.6446146217569548 0.021541730726517737
Ni 4.65621835660814 0.43628603207440975 10.578410198460542 0.2679220620321128 -0.054388602053209556 0.18254601045845337
Ni 7.9426286249751845 7.865086802341466 4.778078144600094 0.6237097748289581 -1.312004118407521 -0.18345155299185825
Ni 7.5117087647451495 6.31800502557453 7.1014067343339216 -0.8755135911429697 0.14868895269969232 -0.015410678128115396
Ni 2.6280082067465464 5.632543718119788 2.952766661172868 -1.764218998385865 -1.1021751038633987 -1.7281826735875978
Ni 3.5154546341861557 4.656026511853745 9.89547667403157 -0.8045686273929756 1.7612827985756763 -1.2487716928104364
Ni 1.1370455883725121 3.721020856253068 4.082562344922133 -0.9762882366598865 -0.09086175727857901 -0.6005724174805462
Ni 0.6366651374010507 0.0460262972188036 0.33512172534947077 0.05189128955265257 -0.2679575432557385 1.2677214944400619
Ni 2.261822247928214 5.686625667930298 7.280988041191202 2.389130249722092 -0.13523899784237356 1.0269955332067668
Ni 5.436387024482744 3.227376896800233 4.910741532903859 0.28020113650978196 0.6812695755212976 0.4503474877523018
Ni 4.135040107167319 7.407674095075875 6.353865377903278 -0.41675756761199845 -0.8484709852028807 -1.382365184629587
Ni 0.6374023693857985 7.299775123925208 2.6067874362710675 0.7864624047105682 1.4701431607765199 -0.6152153642047018
P 9.335805231394538 5.824763026559477 8.334035774171365 -0.8761928765981813 0.6407605596636577 0.3257307455104649
P 8.586103337610822 1.6694513236777113 8.243542603523059 0.5337638444964291 0.20955982004313584 -0.8152752151772024
P 1.6538022729977442 3.5452727902978967 10.692074561254017 0.15926415711237732 -0.9925214106892972 -0.925105286028168
P 4.070635082477437 6.272903237362623 4.179272199159301 1.7575518707783344 1.7154641975796652 1.8695460391601544
P 6.791532692209334 4.151931581018609 10.525596251121941 0.03323510790404599 -0.037922228967070176 0.7299022489273366
P 6.596307815950783 8.097785353958583 10.349691968723905 -0.8004471490254343 0.09570828673760291 0.13885062645303184
P 2.3834974995373694 8.826914181699518 5.9313921681453365 1.4358736980706885 1.6469293859330607 1.7612136359006376
P 7.038418620187216 3.7789397011514874 1.554741863746008 0.11247882132772243 2.005382818487527 0.2160755096744666
Ni 3.1372464040923784 1.6027807037930641 0.809572073898271 -1.3105069650367043 0.7563735557449878 -1.0085355267293663
Ni 1.0726953764695997 3.7838180391918272 8.421934472903088 0.2693135430630007 -0.6508930201119694 0.31838433244772263
Ni 8.135030642704775 8.959204843051884 11.718808502302727 0.6765878537749123 -0.43604649774859744 -1.255702872712631
Ni 2.779117924958652 1.7214777939768433 9.563523127768972 -1.0505149564849456 0.7896716556764851 1.2233591662746028
Ni 6.730827530639934 2.0373182079631276 2.644224569771654 -1.8342103399733376 -0.7997082139768809 0.6896567711437285
Ni 4.029488950391872 7.192981543978439 10.49005746714342 0.055581593920046204 -0.03280161991105318 0.020849075534867322
Ni 6.948626139665677 6.6078367721434965 11.905624183493615 0.2152807816873131 -1.1219363456507259 -0.960069975028811
Ni 7.762943173822661 4.003653856799959 8.584481792662958 -0.008306462983166339 -0.06726597223650997 -0.5978961561999638
Ni 3.362846699796867 8.613226531696533 12.85569056586078 -1.277966826317154 -0.09131170033180404 -0.647832893129407
Ni 8.914441067026292 4.850885969532495 10.687662131902924 0.4233699307221934 1.1406670892910096 -0.09023235122469621
Ni 8.621795597392861 2.6126880327884003 5.977440390478928 0.556397522735545 0.2987778710707048 0.4799025757015993
Ni 3.312830031686639 2.874483038822153 11.872437781622558 0.7590978966546862 0.3751728021916764 0.4622645509048619
Ni 1.0709505027510513 3.7840738321976874 13.016392521792653 -0.11889243816355008 -1.5877981269885428 0.3949319870964747
Ni 2.9366224683172706 8.793167775854918 8.509071273895925 1.3546360941454347 -1.3616881158962097 -1.3326361928355757
Ni 5.706952076431715 8.40168571584988 3.907192487197056 -0.3765673685463579 -0.9852220488144063 -0.274834729991546
Ni 3.274305777911145 8.89821648208314 3.8033688467576168 0.20532084226112382 -0.9161421632976093 0.2023545605439483
Ni 3.471896739473906 3.214441079075287 7.859109467922376 0.34083854768618077 -0.09472612532999171 -1.089379237650311
Ni 6.256651246025985 6.001653025576526 9.290306050477097 -0.49168954103419843 -0.10274873852415209 0.5440315449710244
Ni 8.17355489648027 9.111593526293293 2.6365498660493887 -0.27135936984843584 0.009708999757647795 -0.5500808364888978
Ni 4.87237258202478 0.28800830785576 1.6564926672915272 0.40618776251595207 0.015491410767379771 0.43626838395141637
Ni 5.782237439335164 5.713931571305909 0.7634297562803806 1.519334534899506 0.15518510194699728 -0.7625704285843189
Ni 8.19761770996015 7.158705281193129 0.5910106535871943 0.19044906735561395 1.0274385342814565 0.30049665353402444
Ni 0.3691504170469663 5.48585556472327 6.153412275314227 -1.1460787472248843 -2.140116851669024 -1.9434243745068596
Ni 7.454392860503402 6.3682957576196095 2.8974258443549434 -0.5391518482812199 0.10748162522344715 -0.6492030340040562
P 8.637892285833084 1.8149792730833605 3.8579614690333996 0.5479385933349145 0.476170876573309 -0.453814877475612
P 1.959721572542438 3.41764121583799 1.7753450603717216 -0.12574597075027377 1.3655067183113516 -0.9606739271613971
P 4.686155273758317 1.2451638106710594 8.462167058539151 -0.012261333865856303 0.8315011901177616 0.3048047939910751
P 8.795625215804078 1.8197205791562754 12.538711872998414 -1.1228133489390404 0.003313380643949132 0.89067024427875
P 6.420605427318086 7.835487897377605 1.6900262168133926 -0.7933110522012853 0.6806170295389633 -0.29861152069616964
P 1.768982209350941 3.3834837140911143 6.238463449762852 -0.03820607875607614 1.2795300570392156 0.6080491854735657
P 7.096839915632862 4.196750169831171 6.468678982130224 -1.2745675708276176 0.9567493952960103 -1.5655791676893425
P 2.213641808181485 8.63293172861229 10.711449054355052 2.3979010539361862 1.5285925631626642 -0.46255431423113885
