# total energy = -381166.2015298172 ev
CRYSTAL
PRIMVEC
9.27413914783149 0.00000000000000 0.00000000000000

0.00000000000000 9.27413914783149 0.00000000000000

0.00000000000000 0.00000000000000 13.57364008720182

PRIMCOORD
 96 1
Ni 2.62076041623472 6.948815645219741 5.232040807495006 1.1914404631891353 -0.824046019391297 -0.19831381481567137
Ni 2.6441497950113977 8.64397060990554 9.84304723777377 -0.20724145632260438 0.011918348704140765 0.2946885314926796
Ni 1.51838987369314 6.886920040955049 12.053174742838491 0.5934784867482424 0.3597862924332771 -1.1774752592582947
Ni 7.29634545921596 0.597706207757536 8.438107907528334 2.46933684127967 1.9023160345023236 4.807481343982515
Ni 6.277859504713656 1.2767892763453024 6.69404391554096 -1.9920156531520017 2.933153824273316 -1.5520808760925915
Ni 2.037259407316295 6.7100436602933495 2.989526153911684 -3.454823970830004 1.0748481339136713 1.407424698701376
Ni 3.8726208067149503 5.521469994940816 6.533115344452763 0.40689095923056373 -0.7469013545884943 1.124123840220348
Ni 3.9383095338661054 7.193050098068204 8.541497864894774 -0.23222512285113553 0.9170741881935754 -2.256422245831688
Ni 6.068189768241356 3.9319382003135366 7.336837277882436 -0.45868506108371976 -0.7296155709248532 0.5810094077469543
Ni 5.553855288631601 0.5775275359326761 10.596614627022525 1.6250084174902533 1.4758931758864196 0.45060536939937884
Ni 3.4358366781482506 1.3498231216531302 10.970379125667227 -1.387837777708384 -0.5656900037810645 -0.35459112138558285
Ni 6.312665348706073 7.610785144950804 12.188979671140794 -0.6628208818978069 -0.40512641113097325 0.24098332865973981
Ni 0.802645205881707 6.193446290746438 8.081962418320563 1.5118793641730413 1.1706988597664096 -0.24534494806254517
Ni 4.98530419192095 3.5697645206994046 5.181384532389497 2.5287609488742575 -1.2633238795929984 0.9859895231080501
Ni 8.667870066331988 0.6809777752031809 6.485865460633802 0.24640372834436275 -0.2377141709901648 0.3298776777993029
Ni 2.0573286442999317 3.1916485959952214 13.452101648714015 1.8087106530403365 2.4293795841604418 -2.1440426690859913
Ni 4.804996379797167 7.72645220764023 6.081384085920016 -0.8159118203199367 0.5602372081966093 0.7222547596844078
Ni 8.016658567941505 1.4387621154946626 11.285979006201817 -0.6533322256810812 -0.9190127999771849 0.3738630822413174
Ni 7.067858494536728 4.158672352705381 9.683923414151849 -0.4594306810004926 -0.7122570250417476 0.29660014669309565
Ni 4.263822541670479 6.156470298207732 13.43035657479741 -0.1723631563881806 0.15958991588291227 -0.6483833663162382
Ni 4.34121523234906 3.092925385417212 12.216438542148722 -0.42551963007534466 0.8067376100198363 0.9875373272111445
Ni 2.376210642657309 3.697497238340638 10.370939581314383 0.7003595022732132 -0.14948085247336834 0.373196395191596
Ni 2.8947092107169956 3.5566787104480593 5.713280521773842 -1.6238521923986227 -0.9835557168555771 -0.9227516981943268
Ni 4.279560755700623 8.453312858560992 3.792760267625397 0.24476259319651397 1.0253088895329632 1.6637202322381541
P 7.9498198475435995 5.7998332796283645 11.646767129436395 -0.39454863561512693 2.5939790374428036 -0.16585363740443693
Ni 1.7512078613258646 8.877419238996161 4.240798563973817 2.997644033536902 -0.4874374506260638 -0.08658884093483797
P 6.054825733817409 6.488892539631703 2.128957457536123 1.2765583760054016 -0.7925073253530674 0.6110342362438186
Ni 7.479899220020091 6.750311972207836 4.205886994795812 0.5715878573227382 0.7203709123981336 -0.7661496612951451
P 1.0022283886833039 4.338497909596654 1.5308756471455753 -0.2451482586707068 1.5226533148600938 0.9244889926004077
P 6.496896121663533 8.408147801208722 7.4396309081056025 -0.7034895632617626 -2.664442947791321 -1.9992072858044345
P 9.394981119008092 1.2592982500277705 13.29166089734178 0.4836106206808058 0.1748571264546279 -1.2269872499454935
Ni 0.20076470812124353 2.471678630415884 9.517401609780459 -0.4079757076543103 -0.9069918642569089 -2.422318563548602
Ni 3.915383862043762 7.005619747125829 2.2302848463696803 1.1468889018310053 -1.0941370640502706 -0.6834642691797713
Ni 6.116563677717626 5.789325680043125 5.791885342431056 0.7040994289316197 -0.7605773094136902 -0.270707852307366
Ni 1.2207178314270641 8.179345515800541 6.588277923740504 -1.1530137837818206 0.5852951796065017 1.2241155848246532
Ni 2.5797687214714693 0.9119177496708473 13.193469094933437 -0.328188463022338 0.3314648197807646 0.5842615961356648
Ni 8.897034043164549 8.302357696646641 12.269918792606132 -0.20140299526395636 0.3262825042488768 0.6818912682656967
Ni 5.7996663451248045 5.177603465883847 12.069938676651626 -1.2024175310259293 0.25769549920809814 -0.7160470882117991
Ni 3.7752145238872536 8.357603743186163 12.357238521763126 0.3688062365437003 -0.5444508918966301 -1.9146010225172643
Ni 8.137083263982413 6.232555335275086 9.582446711678994 -1.8914387254681875 4.076999311292307 -0.3378727801896375
Ni 5.241604299721221 8.170127021548355 0.9984565963167396 -0.5720321439490084 1.879406219783686 -2.263739091208076
Ni 0.807504854763142 8.938313236239487 1.0861074122391283 0.06126553167870094 -0.45775303618775354 -1.0172849907872221
Ni 9.142214458199856 8.746255089892847 3.0892927051369483 -2.99824849989012 -1.3066217710496852 -0.6112682066314956
Ni 3.0109698183079705 0.6645087590130044 2.3390371109560566 0.3037665825345478 -0.8353969256277419 -0.818011383161443
Ni 4.689338591246829 3.0535752132723086 9.740226712547253 0.5597849511505392 -0.927508753263338 -0.3339641891638506
Ni 9.008286615648702 6.536172100695742 1.7424206145412087 0.49154658769843085 -1.0041978185859608 0.6062190742433624
Ni 7.513916762190136 3.002428336209112 5.464638998031376 -2.1272693062823946 0.675995728716868 0.3599181900254511
Ni 6.59134395412257 8.958475214613992 5.179049304167464 2.1962607458504433 -3.91335193751057 1.4796140763814325
Ni 1.8161175607937359 1.4426201573547333 7.294039908239004 -1.1368590283988291 -1.1479643942833713 0.014129497422846634
Ni 0.9819180240834127 0.6375488366879434 10.933553374181725 0.43708908008049885 -0.5708964876826683 0.609037517528764
Ni 1.5370958122310305 3.7431352767863295 7.832546503964355 -0.057029896330798566 0.33311649645157465 0.667663811812405
Ni 7.556800381327076 3.8616031294799407 12.163039904115273 0.5093877296449099 -3.5497884374230475 0.49914651153287587
Ni 7.219268089266327 5.372536595347368 0.4176979503262543 -0.6510719688919948 1.1644701052478783 0.8652700590380904
Ni 2.3434822058203157 6.089149322577316 9.784083188874387 0.3647176682966235 -0.31869903547466405 0.9480958333860704
Ni 3.83529239689095 2.8784423707589095 3.1515138316835825 1.5830503278909125 0.3918366360006026 0.5649294714659561
Ni 1.8049978680287726 2.1528893734493737 3.6886098308538453 -0.7122446837465733 0.19899104338835405 2.4799940638831997
P 4.885820501937831 7.998778027782332 10.288180873760234 -0.8217932188013782 -2.8124886104800595 0.3976735543973538
Ni 0.19641884654521202 4.882194313554927 12.832763511536731 1.6636500411218509 1.0217862210916855 1.302652244878976
P 2.674856469527489 5.017587470081781 12.267502879374044 0.18003609955240607 0.04526504248538656 -0.5047196347452791
Ni 8.326859972113725 3.4635107091829878 1.1264072562265104 0.35703778315386253 -0.2468109910851104 0.4720727952445353
P 3.9625243110215003 2.4975163819114536 1.0536785300946354 -1.2484580182247598 0.25711365856269913 -1.292831145023496
P 0.43036085983524575 6.767450581240074 5.055000274571472 -1.36070518315765 0.5475567845154635 -0.9292406483527803
P 6.189180186766552 2.5455007775460823 11.183538720677854 -0.09941658882712555 0.8468537613144319 0.5316627389930263
Ni 1.9245878915518762 6.291195716720344 0.7250030408616939 -0.8474633698739726 -0.8819773444904424 -0.6072963664679412
Ni 1.9819577159422535 4.604572959994314 3.573043856280465 -0.4854859833266478 -1.3651133395276749 -0.022143368866258638
Ni 7.427908396300003 7.839476140689944 0.7360077343019819 1.3370847155252328 0.6629718056533743 0.115923071122581
Ni 8.307560488674284 4.908662706508393 7.707098934194087 -0.29550408541543943 -2.271754248203068 -0.7588808955478737
Ni 6.458797958295335 8.779113364677054 2.9080027616838837 1.709144168898908 -1.3073635343117163 -0.23256733668190271
Ni 0.48733931555616417 2.8562771783416765 11.629582149708725 0.9548236390282071 0.32117423648803395 2.1455660477090532
Ni 6.266378120524312 3.854582606191303 3.075324924258457 0.11946939371294261 0.13803507253027195 -0.20095947996863453
Ni 0.3864496660874994 2.7447185592676626 5.722334863764196 1.4919144910153403 0.5396051337685546 0.3617333888573189
Ni 4.32405807503865 5.3135159741995555 3.9899711256486134 -0.25414943372805265 1.1813152018296753 -0.4532775169149032
Ni 4.758616410224539 0.5878607817030865 8.409371987568168 -0.5440541706788437 -1.7508610890217202 0.1909486326998518
Ni 5.43547090318977 1.182452733555306 1.8134929794321974 -0.3993817953377122 -0.25625182478303615 0.9449184640993533
Ni 6.163351709410069 6.341146229841354 8.21115674028186 0.6048461051552357 0.3280794482482995 -0.6437857196432268
Ni 0.21226093093312712 8.72626932016099 9.011444460007725 0.19898024475507667 -0.24770830608839917 -0.5516633504846692
Ni 5.852825710369816 1.3157963053439976 4.24982508354691 -0.7798870654858956 3.6841278062692875 -2.0099033320657
Ni 5.301867655506651 0.728428907840324 13.016713278079864 0.6257833695285351 1.2746814706976628 -0.08990273579941936
Ni 7.522013085612833 8.54682400297227 10.444861889146718 0.323835585370281 -0.7670060957581694 -1.163389213478874
Ni 3.883211873551971 2.385698086943012 7.465963898628403 0.9230874842671908 0.4780655224928605 -0.6161430182252937
Ni 1.131101825432202 4.93557625813802 5.829185929837797 -0.8656197290680254 1.2903369178467325 0.21344012893414854
Ni 3.6127501553662977 4.797920211674009 1.646807950212881 -0.1296735879394541 -1.9562338675667021 0.14430779291286117
Ni 6.0161803962430955 3.0316140519149832 0.6544704308655515 0.45088330565111384 1.199241961511425 -1.1547189393983857
Ni 1.2424842358635686 2.213097084400284 1.5736739442029166 -2.212316513761725 -2.104906879426794 0.6346004535995329
Ni 8.47391072147257 4.614997092327775 3.8331148290333905 1.0373539936229552 0.7038214926798847 0.0982919883043791
Ni 8.487784833546286 2.3859206662810926 3.4228510285990414 -0.6368452837696517 -0.9110405804049859 -1.2284615204981746
Ni 3.7420131059568376 1.3047971763871615 5.159693248479595 -0.7851735106958154 -0.6540693609574219 0.6897853263017927
Ni 7.720832079353685 1.0435817748709362 1.0583990668897698 0.15418314304504413 -0.23521917248245297 0.2050400777959114
P 2.8190600581867162 8.191939796680293 0.6562464285006561 0.40031047779956863 0.728461659826068 0.4866897738267619
Ni 8.244737470500922 6.942036249547357 6.892015252969287 -0.7130741216264042 2.4036855218284474 -1.7028092278198157
P 8.07490943554512 2.806373035916099 7.8658156231101035 -0.6040516342783985 -0.952246108109018 -0.9630599108950705
Ni 4.826002304828561 5.5652532055691655 9.922290119200149 -0.31352237636973096 -0.6366622212245682 0.6705676157227612
P 3.1568613002809784 9.042628752686783 6.97634870934036 0.8333683252334874 -0.07059349394784617 0.029923269921993626
P 3.5831563775406114 4.261939891435877 8.401282156042832 -0.3083686000829335 1.910825871745548 -0.08633790126629645
P 9.539472205979006 0.9221619637060252 4.5160587217229535 -1.449695177334813 0.9222225651637342 1.6499234355643777
Ni 0.3139323903268013 4.848612655921957 10.000962641072697 1.7341897990136264 -2.2978296051338813 1.3006784089820569
