# total energy = -340868.0080891027 ev
CRYSTAL
PRIMVEC
9.30813986935828 0.00000000000000 0.00000000000000
0.00000000000000 9.30813986935828 0.00000000000000
0.00000000000000 0.00000000000000 13.62340358000134
PRIMCOORD
 96 1
Ni 1.023969840995181 1.5035345106365956 2.539034344378129 1.0293005271908595 0.2718522503244544 0.4418309656408584
Ni 7.900776970277004 2.835976103964155 6.254014389578875 2.823629200477911 0.4404963059898349 1.1012973292441357
Ni 6.860322413730205 5.048520929836406 13.460563301405953 1.9764815620721443 -0.8218397557685977 -1.123506261241007
Ni 5.725641558183384 8.770203766493234 7.552296971539223 -0.2259603728883463 0.4519456854773571 0.5500731231794139
Ni 8.60646427961095 0.6281793601940393 0.6412768436794616 0.14345341533236583 0.5926400500073471 -0.8011079225378849
Ni 4.090154858015594 5.692392882886726 8.910604954503368 -1.0604098470011545 0.3329357478993363 1.8321681127323286
Ni 7.086379896444271 1.634379031533887 8.090203199698106 -0.9123716405115835 -0.457176080638361 0.09119394380701713
Ni 5.200615933853034 7.446837609451856 12.406942381139352 0.10978044855995286 -0.33137894493517767 -0.2498199531147633
Ni 7.019742923754244 6.496867479713234 7.944201303981923 0.7057657608904491 0.9195501605378937 0.4291091471988158
Ni 6.471130473219601 7.604052090347868 5.734784943889966 -0.05451227211526741 -0.38744904845586825 -0.9552031338548129
Ni 2.221443407502599 2.928499013384307 8.282634096640416 1.212782419200021 0.3623890201634469 -0.6947161879445067
Ni 1.0394678937300454 3.5728084490043206 6.13024591654287 0.011165786808832382 -1.2139856954795027 -0.10216381255495954
Ni 7.468925825151455 7.558386356583758 -0.06323019353029112 -0.683695668464287 -1.659661231677432 1.8797941992507239
Ni 4.12190492280756 3.767274105302693 0.4352104527724037 0.13006413850965343 -0.33966972418906016 0.08595557822621326
Ni 0.22805128625509177 6.854504826367267 9.696035097338564 1.1449919419186088 0.3141736368004847 -0.942322678347719
Ni 1.3353085003800151 6.958644294233732 7.098651747931144 -1.1502624462889286 0.17542148359853016 -1.291345304506589
Ni 8.575393709022974 7.475180895084085 4.724418949184276 -0.8754171747744214 -0.891204262405349 -0.751313367613261
Ni 4.937865764123451 6.263735810765836 6.999050929021749 -0.7240920700034627 0.38562253677009073 -2.0465865464193462
Ni 1.370307105955445 8.986599400114933 8.422941272438768 -1.8122451485561564 0.37010824318457547 0.004354163203637663
Ni 0.5089048570441571 5.021750719827114 8.11941214232994 1.1769245289611474 -0.7876942202351401 1.7668764906133698
Ni 3.348426431450781 1.4883250102349328 1.995447358511086 0.9906738159575971 -0.2896396562148625 1.1049822342948907
Ni 3.6033391474850145 1.9100395911393002 10.096235774767804 -0.4815671078882158 -1.0429183750846103 -1.1300690020601893
Ni 6.558896923211815 2.6298287322410054 0.12285348289556121 -0.5770144276549481 -0.433522445775163 0.07701662386537059
Ni 4.764948451417398 8.335746342229088 3.4676190229705925 -0.07804583646083334 -0.4178909098854932 -0.615457819232811
P 5.17062510747962 5.433338044650081 11.651443492582972 0.4718023151919681 -0.7479632201941054 0.17567190904643937
P 1.1484941349813778 1.398017438082587 6.751391115504635 -0.5480756331334109 -0.3268885132639919 -0.268850230273337
P 8.596979285174417 8.030420741142585 7.927594651799177 0.1724207490989934 0.02458411709726734 0.5097592540517156
P 5.064968412828901 2.675615471822266 2.3155971030123297 1.1495276250054332 0.8327268349947465 -0.09975751710631206
P 5.564052251590443 0.7500061552717895 9.288885893563036 -0.9188976145555594 0.056716478855437805 1.8620487023418446
P 6.85068848905718 5.553487512939349 5.097305821241029 -0.17149875150535623 -0.6801493458739254 0.010669563898704207
P 7.749054291851603 4.696217147276713 8.726865998488275 0.6621878762994983 -1.608950592696442 0.7616633433890173
P 8.781196679574238 6.988402417112629 11.886868687172335 -0.0978387028170444 -0.16162237293190876 -0.4217740469899833
Ni 6.8491247215740225 4.353221504497721 10.694181366140151 -1.987209747122926 1.327850084300842 1.063821958006497
Ni 6.629517779727982 7.514368163560829 2.6625030953131947 1.8986036186477433 -1.4530874908458136 -1.3883625398636024
Ni 0.9857226946362871 8.937340724395472 4.893512478068418 1.755541525216525 0.8112190428299577 0.008300292335579254
Ni 1.8677434039758023 0.7419844004087828 0.5025129574567507 -0.8259370657664227 -0.2533338798052927 -1.0237736838353595
Ni 8.399339553210826 0.9348164781756422 9.979061187952446 0.9102741345526066 -1.3421145646396564 -0.9629596378717804
Ni 0.6015813507706907 5.227479225260132 11.387393906540005 0.9705778165386705 -0.8966657997405526 0.3390169210964097
Ni 7.536577385077578 7.754415780365287 10.119505193405573 -0.6118618743514365 0.910581124270064 0.12434574796863745
Ni 2.7515605842929918 5.233129266107017 5.876196065066307 -0.5504855281264842 0.46307599106256375 0.12852661881920444
Ni 8.3542602322529 9.0817192805339 12.175004015711842 0.14376554725614593 1.3663433552800341 -2.4912997187040067
Ni 8.902481740916752 1.7265203072230308 4.331288734732459 -0.3915643561758224 0.8715571775983829 0.9709470269526311
Ni 4.845761720993431 0.30316052777351143 11.519718421662427 -0.326126952507619 0.08286254112318632 -1.544064433546018
Ni 4.879838820730571 2.814064742920389 11.862946767935938 -0.1311162339232516 1.616826653010409 -0.1107150445590803
Ni 2.769934852220093 6.9233292119057595 1.230092080740923 -0.725330313285938 -0.33049448544769533 -2.2776001654608837
Ni 0.4686797309818646 1.9443121618118357 12.464991664067707 -0.08408844311048744 -0.40333846599261497 -0.6126558310076415
Ni 0.25587890094347077 5.779926629384423 0.24999522578809064 0.1120964982876392 -0.3695749963889248 -0.7310674728800313
Ni 5.257051185343414 7.586897188732039 9.949512498218615 -0.5095936750081289 0.2652445151999496 -0.765199895787366
Ni 4.025779763292277 8.240421682734945 5.687893328116736 0.0649658633484236 -0.46019198464654937 0.43316454821511197
Ni 0.9945188867290481 8.122413086595238 13.148464167001034 -0.013094114179796805 -0.6852843531076457 0.270509877363947
Ni 3.0490673479637067 1.4396434391818747 5.585159389357157 -0.8803974015978322 1.6368118378830845 -0.837858499794357
Ni 6.121656365153241 4.571832475387228 2.2081625536634975 0.46714656158751156 -0.3031654586154392 0.9534884651565515
Ni 6.276934752974868 4.204179570329162 7.206562874036749 -0.10338842899068001 0.2225099524459007 -0.40193927165224325
Ni 3.6469198579382494 3.5678006698023044 3.9278451014036264 0.059336690087104266 -0.5758481752609889 0.4288870038856807
Ni 6.999078853441091 9.287494326665822 4.163993538453949 0.2887994197017542 0.26874070127866617 -0.6863143370340566
Ni 0.9059184274124827 5.6747911905614234 2.6900496041801967 0.08650862251620585 -0.05027560832610051 -1.1085128731559684
P 3.169980083714992 1.9797668662365195 12.932655876999497 0.9300076084257919 -0.8745183171092358 1.0899963024090196
P 2.3040159154971835 5.01890242905422 13.446462400452171 -0.35702749874121736 -0.3914306588114355 0.851528798192598
P 6.548620736893922 1.2798412954268272 5.8381192576654 -1.2521748049547146 -0.10287112303462928 0.9640523567153267
P 0.9963525902658459 6.3007263582543365 4.725563850377303 0.4684169436595029 -0.603192885822529 1.9798543351991194
P 2.7653924800071117 8.199270396764472 11.941757856645141 1.3874423420421782 2.03433318297329 0.4199675899088638
P 1.1975201072063215 2.0042286575801977 9.935302692029401 0.3168516978532801 -1.4108033853656219 2.1072404126559774
P 8.244126322367663 3.5544248729374393 12.628840056185425 0.5096589810284254 0.07363408054638286 0.334702609991772
P 4.2792217932411605 6.293205381311531 2.6080095217810677 1.1682704528305752 -0.05360133026522382 -0.4881200785153852
Ni 5.882828114660056 0.6625021948213904 1.8449217068614834 0.07676645552777747 -0.8159786690021301 -0.7890461062773443
Ni 8.53594581263237 4.391319720620124 3.492455001533455 -1.3388613478096814 -0.6892309964602193 0.7557541769934338
Ni 1.080796034356351 -0.16863649922090934 10.855346221559095 0.19918824700082471 0.4682642201317226 -0.09785515787727662
Ni 2.2439784139116727 3.8117670134544364 2.0201055516041366 -0.3831892447382498 0.022623136716154586 -0.694002963927566
Ni 3.327613430901137 0.41979989655147776 7.498552703259443 0.1411201392134989 0.4692042154474887 2.0330257770157756
Ni 5.028499121168121 3.6681982654769283 9.355967795334582 0.5197397623031952 -0.9404568287835738 0.019851230397972264
Ni 2.596728987180838 7.437371231294883 9.870632529275037 0.49113649674420584 0.35484977436360826 -1.6723341991594103
Ni 7.592891630750809 2.323767788111828 2.164704710655368 -0.9671695621880699 0.4670974535171311 2.3355957681390613
Ni 5.120807943373317 1.463760829353667 4.187793521059219 -1.6253328907092073 -0.9065092681935356 -0.24325386986147138
Ni 4.685708257464304 5.641030567576827 4.561919306520783 1.154500395629676 0.4860254007698856 -0.06569451398433203
Ni 0.4037601100813765 7.9575100822403675 1.9166083453825398 -0.24821918428654668 -0.05308608119170212 0.22686514409080286
Ni 2.4631292569084593 7.195880852824419 3.4619382652624315 0.8100484195606242 1.5005312861500737 1.4272764433199807
Ni 8.695608334290707 5.245890725746356 6.250131033662367 -1.1244282588346444 1.0441671598900468 -1.6122233499104428
Ni 2.3181922123831886 3.333151774070653 11.600259893556862 -0.40249977214140353 1.697517383293257 -1.0839151292119462
Ni 8.392395680934424 0.21836244355736173 6.2566430082529445 0.7091650163799851 -0.47363345486343594 1.3262166624624772
Ni 8.621850634668446 3.1682022290168783 10.540999171397138 1.7754909717552585 0.15105102517396568 1.126977764729375
Ni 6.462082961352761 3.2458228066481314 4.67474792287253 -0.981080515842207 2.196385958574398 -1.800940007955982
Ni 4.793533748683926 2.144893265946127 7.3022673056339436 1.0906899860419346 -0.6939659400420436 -0.5468828983768904
Ni 4.191622889764998 9.197465998706898 0.02172519824815243 -0.7728576694429399 0.24460549879335938 1.2493861864659839
Ni 9.340997514125283 3.0802868487881727 1.122973077330656 0.739260807324101 1.4066235429563194 -1.8799114415548785
Ni 3.0304045277034044 6.167638575669896 11.716889954195048 0.6829320508253851 -2.4215824567135265 0.4007735334789162
Ni 6.787681690881626 1.6131843972532345 11.428482827973944 0.4950021503471991 0.35530691650568486 -0.05564072929275579
Ni 9.096807775118414 2.7176882636310267 8.43557055649322 0.5969052530416042 0.037911173223476646 -2.5614682092992913
Ni 5.21280028882597 6.058277241386459 0.6770284777631499 -2.2793354029844357 1.9175428787544073 0.6599726138157344
P 8.088587306632176 6.068451038166763 1.7535502143322037 -0.7655585646783654 -0.3389413306634679 0.7839941456757336
P 6.540820515757697 0.29275030424277726 13.225246081238048 -1.6182883251576 -0.03563626114637088 0.10634648317773944
P 1.3103068369290565 3.409543677250853 3.9975695840589114 -0.11614829975950965 -0.24879099762961668 -1.0673389700208198
P 3.0841311105176015 0.003629243700494701 4.078492689684356 -1.836748018793527 1.0067843483662144 -1.4176905994037585
P 3.272862952711063 7.6692183769525455 7.628588346809791 0.5991575394108908 -1.4756674330288586 1.3042429864048635
P 4.01224572805114 4.053936886128893 7.251097668817506 -0.15876330621655882 1.4185110384225248 -0.1511628681614816
P 8.529709358979302 0.3532448354915208 2.6308703130824656 -0.8097373160781086 -0.887349407435633 2.4214366751642813
P 2.196367278933395 4.91042536804995 9.548003096336213 -0.9808010369285753 0.4124710244215025 1.3332686842132524
