# total energy = -340872.017021469 ev
CRYSTAL
PRIMVEC
9.22612246712312 0.00000000000000 0.00000000000000

0.00000000000000 9.22612246712312 0.00000000000000

0.00000000000000 0.00000000000000 13.50336282138657

PRIMCOORD
 96 1
Ni 2.9127791676803354 7.26844087570686 5.2623413774173144 -0.10902300156863805 1.4375276887343436 0.0008093832751727995
Ni 1.6754915434679039 8.85604437523785 2.526182487829179 -2.2120131235886937 1.6581388814956346 -1.8190146060695058
Ni 7.349649206877626 2.4336389424256937 7.6096579489121945 -1.0039458504761547 -0.1588008443227136 0.6214065806170781
Ni 4.07609174084446 5.508539536524195 13.261261433001302 -0.1092960527243666 0.339655326011357 0.5653094805131941
Ni -0.06088595090834258 4.841177184001343 4.095475824437936 -0.4840837036624823 -0.19559795854640508 -1.1000349175919442
Ni 5.533496198171197 0.4011001445864939 0.8498679742248937 0.17908119183830448 -0.4501885935769343 0.28669214355076433
Ni 5.8281047451997 4.897733315571076 11.139180347442078 0.22166020285109567 -1.334761980929327 0.6383105554612685
Ni 9.185269334280976 7.463315037373402 12.276771413395233 -0.22236854177202994 1.4265596197586141 -0.29728406013399766
Ni 7.911067993525233 1.218051158580638 1.4608347297113418 -0.34402774404743974 -0.8563236484780801 -1.1836795882967936
Ni 1.1398320911339501 3.2407862785395776 5.1540986617888604 0.09784333080273472 -0.11942079986319432 1.3343074098904117
Ni 6.863930756205493 5.2854887964214425 7.967186806883481 -0.38856182190407274 -0.731920564908946 -0.9043325722571909
Ni 8.789643970848394 7.042825273519869 5.030191835201337 -0.14831434296909296 0.8106194615727459 2.3235210963627146
Ni 1.356729007459049 5.653112877747313 10.662984177910749 0.6560725074303798 -1.4973256347285826 -0.27078884205694653
Ni 1.6882051404178375 3.3635213875562426 2.8466573921935554 0.29602370536433537 0.521540820067676 -0.5140648234056051
Ni 8.556462948125159 8.761734949967735 3.385279352496031 1.3453700954624765 1.268455287282293 -0.13381280691880826
Ni 6.563906475207752 7.91300547927232 4.922529442684749 -0.8570666972916916 -0.16200829551641777 0.14452993622599625
Ni 6.957825005958377 0.6480649944818637 12.496605927157818 -0.676699439652112 1.0261452693913296 -2.083174887066341
Ni 6.2660687852674375 2.2543661540845057 2.7328513246341797 0.8783700867551582 1.154062022540677 1.2031194421889602
Ni 6.748890233441545 -0.04736137778141406 7.051645446730418 0.01142701089001903 0.05154239085366607 -0.5273736246993691
Ni 3.3066792461857495 5.888748049083526 7.020506360325685 -1.8995027334232448 0.42583536154355056 -0.8989990758594194
Ni 5.864723225819646 6.797548804061246 9.812191746200817 0.23878015036083394 -0.4141802938031254 -0.39699504027309046
Ni 6.874586927814471 6.1046208657994505 13.04734086382863 1.1062826982738687 -0.9848898622859683 0.6146594917012317
Ni 8.643022430406926 2.558902009036178 3.1636355960905687 -0.126988070687491 0.364584742263185 1.5475657618310572
Ni 1.2972758733912906 7.550769453547872 7.3852592722968256 0.3369644094427552 0.13139699838846403 -0.3114258988520185
P 4.658352338457162 2.8392192921492616 1.593463932609799 -0.06491521261614627 0.5466119041036909 -0.9681388680798745
P 1.7078106509538378 3.9997086717962023 12.238367678051183 1.0651152228966236 0.07958772702665648 0.9273927965107641
P 3.5255136482579355 2.8024070629546065 5.320635710485863 -0.7115404585906971 -0.4438209994876937 -0.0024620883872473725
P 7.953443574650809 6.070825578696688 11.053394014234625 -1.1163228561186902 0.5641866797626606 -0.4155285803009037
P 7.081464274990349 0.7221240032458777 4.286116118440963 -1.0356501235579711 1.3640830984909476 0.5205154641269552
P 6.964578527705365 0.8811602142648715 9.093542300728048 -1.365597478252945 -1.1935032592554349 -0.09194239193726746
P 7.647634514779622 7.154433678674691 6.987990736428261 0.5115826804136996 0.02368474521144953 0.13175900971357307
P 4.918971849808193 5.92627068971878 5.385721392404082 -1.9497076364124102 0.13044671866005275 -0.6702246305610458
Ni 7.3341954515139545 3.716429803326857 0.6055491762926885 -0.013079716002093605 -1.2684619721505124 -1.043989496661602
Ni 8.957208809603612 5.018798496396205 1.5490927411647226 0.7467378324274365 1.0407072263659043 0.599569944357961
Ni 2.699692639991174 1.3252125726397652 11.911505529007243 1.550858573649716 1.6200950393490359 3.133824569356938
Ni 6.918457140802087 5.348604701163456 5.265704299106901 0.616885552818273 -0.36074685657433353 -0.4336209190262403
Ni 7.750302807130028 8.407931600304417 10.361657168401155 0.08381899149918469 -0.09723655045667125 0.14335108542654668
Ni 3.501433468258424 4.07817684455323 10.685089967672752 -0.6850825215094847 -0.6293132370586646 0.932195102995414
Ni 1.8420230564913433 1.2393819540438067 4.479672789799486 -0.00803829692344422 -1.809891303611999 -0.7406967684396792
Ni 6.19337616526125 2.7327775156533383 5.404221613451982 1.206360060613445 -1.64580504252063 -0.8610753042304525
Ni 8.708075820896026 6.285397512125282 9.007634182702207 -0.5485284044001134 0.46995652023248097 -1.0538100822964496
Ni 0.6919241361223527 5.304328538781213 6.195369930356229 0.7582424906329265 1.6288385898696207 1.0152188522868126
Ni 1.2442164422889193 6.773016544054082 3.591097540796834 0.3963178117004078 -0.003978267921457665 -1.6209697286445053
Ni 9.264687797666337 5.292316127149273 12.625509621748305 -0.6699803757607236 -2.2328110341706515 0.9478276673263483
Ni 2.884676398224967 0.6146811924472924 9.90011208156685 -1.1999888669797787 -2.1279910149397674 -2.483739132747929
Ni 4.43637182857661 0.07099962650813728 5.516043142038985 0.02700609627519865 0.2682753316064735 -0.27896109345509373
Ni 4.800794445358485 1.7133740028847595 10.538294976126306 1.3391549677907 1.2418117165528355 0.380778321303912
Ni 1.6219892584804843 6.489082620879769 0.49509772691255505 -0.4226317670045882 -0.20797062117914505 0.018777537717819273
Ni 8.428967159844222 1.7916576531896837 10.34464327570495 -0.7869743113499801 -1.1286219852010173 0.9763761683880022
Ni 3.2326488384018117 7.408124371949235 9.059905702934095 -0.12771286466865747 -1.4698225442123074 1.414914579320518
Ni 2.861592639466815 3.4601742479680744 0.6683679998868155 -1.4722044141809225 1.1467660030998958 -0.39911285794704165
Ni 1.2905038993990907 9.191312444587366 -0.205957502752141 0.07240355057339144 -1.1325071791880368 2.2284417014583617
Ni 7.914961417264617 4.146726935509693 9.927362357293498 -0.15204707053864783 -0.5914771400474975 0.45920262415008656
Ni 4.672219200732742 3.947737923161242 3.7177731267781704 0.2992473545079556 0.42268447461939457 0.26585309531822604
Ni 3.6298610949224837 1.755583513803443 3.0966991539777515 -0.014147495144975635 0.5818231618975013 1.6399161878400208
Ni 5.317401954512749 9.4011421509969 3.088394721020832 0.2160307724794602 -2.2217601756731287 0.8520918697849196
P 7.344999241084616 4.4549347872582254 3.067586124097116 -1.1714007709294407 -0.4333496676427247 -1.2908166856966286
P 3.887454438059017 8.582711266936887 7.521589072972219 -0.6246047758394018 1.6720305518760625 -0.871079723741332
P 5.569764086132147 7.1790766521531175 0.942099676684324 -0.1601918111329693 0.47210596247531594 0.40471914839022555
P 5.81790987972098 3.6224340662253165 9.208739667576284 0.20277879256556047 -1.0311995439857853 -0.04190615331548267
P 1.4811155924220414 5.572947098430933 8.44828481535494 0.898182493495395 -0.1204448702523345 -0.43065026643369064
P 3.3212380676567186 8.660432123762895 3.6792070116762714 1.4651037985803994 0.10246514584546225 0.32339824072254625
P 3.9336773123109525 6.163834120679475 11.284125501406185 -0.2264026026320875 0.19849456336790977 -2.185468797441262
P 0.7606430651224904 8.878113260509434 5.708006462023593 0.3186594404859802 -0.7132145038590104 -0.0629082094884465
Ni 4.702065707360489 2.5892744046524196 12.913994791203752 1.3002937719491283 0.6185817095737733 -0.3910185109746814
Ni 2.384269960365393 7.592213196290325 11.917136231633183 1.3141389053623367 -0.10755335900164702 -0.44860427980895
Ni 5.3731461872932265 7.592443849355456 12.05366900700589 -0.34732544096210505 1.2263359895147394 0.5755491559633313
Ni 5.132944085267451 8.931818520194167 9.366783147802963 0.411636187225033 0.1187217169136407 -0.46429572240227784
Ni 4.8250591478101 6.6600611249989035 3.3408398877436767 0.24503718701413926 0.09710388153354889 0.21134802229181024
Ni 7.598533090274872 6.730456440476401 3.0218365499348265 -0.7950483466073662 -1.5650785739038402 -1.439818027430417
Ni 8.875696016386877 9.28526205107588 8.151561641025332 0.626100900768954 -0.16224457989693994 -0.30730107805036755
Ni 1.2702433341581225 2.7131720051173374 10.661756180991999 0.5629111554843467 0.5182472369180687 -0.8849317991330758
Ni 2.5733962476489105 5.0712766817744495 4.596436752266081 0.9149160041999921 -0.9526572275045077 -0.5894487967635591
Ni 5.629226446322511 5.000189407101564 1.5117011114704626 0.2273811644952729 -0.009020715441371561 1.177757309275088
Ni 1.008941089734308 7.723519373207201 9.851824401075874 0.01727832746447347 2.75911276596208 0.21552117983289332
Ni 2.2478525115252506 3.7649315298622708 7.341535754658633 0.7514419227713253 0.3575275783060875 -0.8665874922979334
Ni 3.389096199417793 7.473297702032204 1.6402126958502292 1.4904235082921105 0.28546701289441156 -0.7042053583818646
Ni 4.920346542076364 1.3721458583322992 7.450588523851821 0.23586451937593572 0.9373807609614114 -0.06599944681926054
Ni 3.1412087372619055 0.9819085505011405 1.0007427571873482 -0.42369954614747035 -0.059120717421556244 -1.1382574514082526
Ni 5.363283462228293 7.087341315089847 7.15906426961023 0.7366531944979249 0.13983021675748175 0.39807310382861766
Ni 4.402908681887634 5.035451647698548 8.668929382682261 0.25859924196929013 0.2871289739778668 2.4649104300772
Ni 7.609539854542848 8.333439886390222 0.43890694979798694 -0.13101596089996145 -1.3230020121799215 1.3332715124267298
Ni 4.87915190464425 4.092080611319231 6.617066471046519 -0.5847115391888897 -0.3253275965347752 -0.13042974937918828
Ni 9.135162262412262 1.6776781345253309 12.853041489600392 -0.4553937919269576 1.6571135255549139 -0.2941745679707385
Ni 3.3703302660388634 2.441167458471518 8.663379869935248 0.11608710750427105 0.9921863959473816 1.5855512399358953
Ni 9.245681985099672 3.8255471553782816 7.826441383929249 -0.19934457007303086 -0.28658287166640967 2.115350186247305
Ni 2.1282358319491346 1.3023963714371636 6.799766763935531 0.06592257083473807 -0.32682037903021777 1.1108260946701773
Ni 8.791747526802373 1.374701494293933 5.59318736620217 -1.2714184836756748 0.5700626789274633 0.04758289198528579
P 0.7318428007981708 1.8370594025297582 8.728330850463433 1.263121019553573 0.773273673934436 -1.5889890619728504
P 1.0677760735875201 0.260339037223834 11.166890084074467 -1.858197961137187 -0.4622159570551137 -0.06430611827723763
P 0.7221230806336171 1.7890189821246032 1.5941798797239606 1.572286661616505 -0.7179059957974088 -0.7575102404525922
P 4.64471612924671 0.43729606879112304 12.447913219884477 -0.6655169406727313 -0.26420321841962885 -1.0553699705844017
P 2.578544424062599 5.424203549790275 2.21926444802085 -0.09095997341934012 -0.8243797485816318 0.5496031255215309
P 7.038802684064011 2.8215604934829535 12.080014200104973 0.3473598937444663 0.480299811140018 -0.07072976241539432
P 8.19317514442372 3.711475375487877 5.973860875340803 0.4553855643968415 -0.39528911332557726 -0.6841121871764153
P 9.26385744663187 7.515211977027521 1.5831878772521533 -0.12392820081524465 -0.4583441328045332 -0.04752709904668589
