# total energy = -381166.4176959621 ev
CRYSTAL
PRIMVEC
9.24558776807084 0.00000000000000 0.00000000000000
0.00000000000000 9.24558776807084 0.00000000000000
0.00000000000000 0.00000000000000 13.53185225691282
PRIMCOORD
 96 1
Ni 6.508487047298754 0.9242527570027244 2.627913193364398 -0.4299354997548531 -0.3904847499583985 -0.9394929222084077
Ni 7.1391008584390905 7.563704480891623 2.0246894362581536 -0.1977959946389884 0.9495865589989838 -1.4846382690689013
Ni 8.33513784072166 6.42328895517246 7.241665862800874 1.1038164961215635 -0.4575488905967475 -0.1760480614389355
Ni 3.8384352381466167 9.06065761124088 5.3306564766293265 0.5499643655156915 1.5000422623287974 2.314627136307194
Ni 5.918008333056981 9.023083542179428 9.732662994669898 0.4229544404513296 -0.3354698271750997 -0.7172141119367067
Ni 9.114365231117347 3.6885642589423586 8.126337333617826 0.0740850520408724 -0.5393153704422776 -1.7738480368351965
Ni 8.176224676590703 0.31951734628143363 6.919039225322253 0.2883700454738195 -0.21532526177200334 0.37421249516093613
Ni 0.9604686492075979 5.00534861867142 1.1958724108186687 -0.050198989451894195 0.2393349944230394 -0.20041029233338387
Ni 8.610933726573789 2.690826645072678 0.6211435554957384 1.0398957862082026 -1.60639517326444 -0.4485646848202662
Ni 4.489278395523777 4.055253519042302 2.592161429670077 0.9044284744051069 -0.11882738925356955 1.1117290661004209
Ni 9.109002790158772 3.8873074155725087 4.2860927339270845 -1.0354436639741198 0.6412824936053988 -0.04614975908318504
Ni 6.895368671284084 0.9487729805651928 4.756825367887563 0.5599790694392163 0.10640433299886835 1.9646303191605134
Ni 3.903921736956226 4.070610440477113 10.728769686841144 -0.11634344648945126 0.8980248848716083 0.35432475509807365
Ni 4.677148740831027 7.2171151287984685 10.682882909735119 1.1669802732642418 -0.8100283649559662 -0.1561297252484537
Ni 2.803132800803346 4.253210800704386 6.7629894197514195 0.5664518216477535 0.5995673732547997 -1.0220492449450849
Ni 5.773740180095644 9.087063010167922 6.790350812463145 0.2007458212959317 -1.6804524573911706 -0.7613005607329599
Ni 7.4113556841409896 7.630790466400944 5.413282446213078 0.6533131995176877 0.17135914060369845 -0.7924798145492415
Ni 6.689007150257615 3.2961352822412646 6.846724859878324 -0.5435615473131413 0.5479496490785078 -0.499858707108552
Ni 0.28152075385479947 9.226190616279315 12.9073574803752 0.3888292166328465 0.33345948161329025 0.7681978020734254
Ni 5.939162238079765 7.898265323179426 13.258685196246406 -0.8779242574669913 -0.2699187807471674 -0.9809594168833105
Ni 3.3049925554107693 8.943793380695425 9.54780486188731 -1.9083067048681197 -0.2616308297067623 1.1641183783354143
Ni 7.632916951608654 2.733106718354669 12.112983967947901 -1.1097269480687275 -0.6145129388210384 1.2611361279130602
Ni 2.6469008571516763 6.868824588539146 0.6387998546312332 0.5835260035212209 0.13299622455478388 0.6753730075312045
Ni 2.0562649679162894 2.4638751998828616 10.206643603645457 -1.0609459220102826 1.1304191863107564 0.17445320614798987
P 4.3980614257008765 2.818841054576821 6.545343658742298 1.7217839691501058 -1.13341349305239 0.560326425476306
Ni 5.478768945022687 8.38709804449266 3.913060075996663 0.8192164592131375 0.13746094519435684 -0.43069937450407114
P 0.14246711244628352 1.9597780130134121 2.9115400921336168 -0.2867623346670674 -0.07944940167657931 0.41630119680087013
Ni 4.934444205376079 4.177554155249207 8.44551351770724 1.131775957448967 -0.029930211900529094 -0.8619528217393994
P 2.732718403664565 5.429915258772514 2.583934705592597 0.5596275996370684 0.4792263755701811 -2.3766110342091586
P 2.0031120833113985 5.1873757524513975 12.817249056536667 0.5560103145994554 0.31588727705748176 -0.9419899775986488
P 3.8131670465263063 7.000564969950712 4.742576067878334 0.5947049029561757 -1.2356292418912076 0.2586547777975739
Ni 3.323918273759389 2.0336872423631247 12.352348539398031 -0.6030841281588065 -0.3300630543372316 0.5978632460794993
Ni 4.0661725583045 8.913467852515907 12.132956286842228 -0.19251546296633942 0.5744104143731978 -0.044473656932342766
Ni 6.264412773392942 2.6463923498193984 1.1182307376500322 -0.6903067460229014 1.0925072417563313 0.566069241497354
Ni 0.4853499083665205 6.927848421434889 13.274219632968117 -1.21091297009145 0.07508084029523844 -0.39485433978100387
Ni 9.074470519503135 4.461504649593512 12.345244229686706 0.6118143089429527 2.4295513338516157 0.33909276863966764
Ni 3.2270522497542675 6.062202521315439 9.156842235420747 1.6867048660587856 2.4847403203189335 1.6377778013407795
Ni 3.0769131485020806 6.639876096371655 6.9975509083084795 1.2306251038083968 1.1493088241264076 -2.2153606999046875
Ni 7.585117262374477 7.763242758077699 11.478122733744863 0.3174530788827049 -0.014997758960412881 -0.23365337065722988
Ni 2.2937933656174985 5.299728136121362 4.61506554291254 1.7111558000122982 -0.399555344801099 0.07070122317030404
Ni 8.220021026281671 3.933193268119747 2.2313754774184935 -1.4590941020512096 1.9677734927751853 1.08714186367936
Ni 6.371134594056406 6.871283914909802 8.19428130968052 -0.5422698250849113 -0.1503545133275733 1.6707082335202128
Ni 8.756764383883398 0.16946607811391307 2.0221598434197645 -0.120775771229192 0.6654328655993571 -3.3233385264927926
Ni 3.4653018033085257 3.848670103907204 0.6094136781782528 -1.3326462201379048 -0.03145796139896518 -1.2799357771180666
Ni 0.8128175356484316 2.4155854944921247 12.398545968256137 1.0218759525920142 -1.2170147121138137 -0.7961773180054869
Ni 8.797666864574307 3.1928805570251537 10.271149145583161 0.672300796363784 0.12308205076486543 0.9030915007612381
Ni 6.35993818715842 5.530285360576427 11.08086848473984 0.17112388466444076 -0.2719185847860156 0.39293552549173616
Ni 1.5398619036057009 3.5430017236806783 2.9028668061625176 2.689464666646639 -0.5616217472489617 -0.9890403941192322
Ni 6.810928717362276 4.677823668744778 13.497792740354035 0.4985237903472124 0.4781377704916927 0.5168665545204583
Ni 7.4635285364327615 4.9184216016153774 5.680144320516468 0.3306505514095854 1.787118785802174 -0.9262196021382694
Ni 6.533912413912677 3.4813428982449475 4.022369736702032 0.0006029236913215423 -0.7762612958078503 -0.3745595940877098
Ni 2.7467162236840132 9.337211635297498 0.5808300187514862 0.6965236734668907 -2.568002925094016 -0.6914550006947316
Ni 4.7324558474072065 6.107977426808362 1.346077155744659 1.0205389789481456 0.0768019367514032 0.9504825884506922
Ni 1.8117561513810756 7.993883192823501 5.156501960911805 -0.0917690995841968 -2.217202638209433 -3.3704581056884146
Ni 5.950432609680628 1.1388807581344684 11.580532412230605 -0.24769467924164434 -1.2259896619189146 1.5384830828034988
Ni 1.2582320518141579 8.081346453975398 7.196915368442795 -2.4661949532165783 -0.08273424307543815 3.6351161522572752
P 0.7299502562215442 4.170693929057378 6.202135418129402 -0.3531003957726693 0.7376620953784134 0.25044138874884614
Ni 4.784915312922626 8.575190283908542 1.5229424778226168 0.32557056578351673 0.7268698898589159 0.29215599487881294
P 2.8737043729357397 4.101305792171013 8.771603552398071 -1.4056074429869791 -2.4618320482621927 2.2677878073561524
Ni 5.510157715806058 6.421513802303414 6.128752262728903 -0.9904609286158427 -0.24517062726821004 -0.7387761543781987
P 1.8740344312034003 0.518848522299455 6.156004557503885 0.16666122090739685 2.570002214912232 0.5557390632159397
P 4.906051005059221 1.25960039881738 0.22365724223543795 -0.16213787911574656 -0.9490258013995077 -0.6175774366789751
P 1.5690594700663454 0.3902220548790058 11.221884039892164 0.37278681845800316 0.013382077733860825 -0.44807129012361546
Ni 4.350298718818137 4.099327236369057 4.972684881322208 1.0302695759723484 1.3253576568962915 -0.9536193343074608
Ni 1.5325209068451715 4.8993294626852855 10.314343607504467 -1.7297456471993435 0.35578719857621305 1.7113805144285945
Ni 4.1233565192161805 1.8076696015471285 10.11539797250019 1.8359154955899026 -0.7608501034591025 -0.9765540887267634
Ni 7.243381843907617 0.673664041891032 13.68137960480593 -0.06900198109101019 -0.43144370886926336 -0.35916459968887826
Ni 0.4075113041764742 6.194913689452263 5.0795056297757695 -2.9475843978763496 0.9037918692623725 0.7612689361640761
Ni 6.120163111607326 1.6499491182500627 8.071804082745496 -0.977311278607762 -0.5070333704801203 1.8535180391630142
Ni 1.247525661072731 5.636720568016243 8.01843485138469 -1.1732434805651342 0.012418942489643129 -0.8021137380945799
Ni 1.764816301817842 2.2036119016348743 7.483330736510472 0.24430982192981152 1.167050978601177 -0.6492364583451529
Ni 1.9908062058702591 2.615345665786832 5.065066795215419 0.4165577928963665 1.9892396330687612 1.5409042906504817
Ni 6.111037716389892 6.163164340742367 3.562341644365408 -0.6523279527862831 -1.7600720660970268 1.0070805394503946
Ni 2.4964751426758416 7.218557440504568 11.546350549354845 -0.4572655550283738 -0.32899424675308503 0.9113640251826756
Ni 3.8681782942909786 1.0971554201240539 7.640720227762164 -0.6891530920344324 -0.9189246111387528 -0.0845098469186222
Ni 0.9006570922262167 0.9568906067059293 9.00539395892764 -2.0182416767280658 -2.9199116145514297 0.8605256023745695
Ni 9.090530105615276 9.014207777834205 4.061517404817187 -0.5495136511315182 0.10988766356177851 3.068419561588567
Ni 8.669569244779428 2.3904467411018486 5.930253189618247 0.024790576681118594 -0.7399051257763193 0.3145528745167744
Ni 4.538095099422511 1.7926270300995453 4.198784798651227 0.4888253321125259 0.1335433553075055 0.42881089923210663
Ni 4.435284162423661 5.524238746116243 12.642579561575367 -0.7330194544000795 0.9670926862035473 -0.6495534753649393
Ni 1.1674218878570806 7.395841587712566 9.606559648176335 -0.5311850280256594 0.20469914951672485 0.27873946436259095
Ni 2.0510227195998914 0.8415916541851062 3.913628679650029 -1.4835170109802645 0.35650196525505057 -1.8608086592871564
Ni 7.314868729238112 4.685035227275272 9.01930394586242 -0.36115231954286836 1.2690708093791048 0.10382088854240829
Ni 8.2907220366441 8.109323602838575 8.8335258770878 -0.08614866807362583 0.7208283116505263 1.0073505052823295
Ni 3.2067489388145667 8.449098956679197 3.1637874657073226 0.864493328773066 -1.6407484539333292 -1.802778860936934
Ni 8.369300287862915 0.7998570705868321 10.953885882840828 0.026256619703683814 -0.32877981674943374 -1.1429072914754383
Ni 6.075636360475451 3.058431218370723 10.423693948796418 1.2954361867465107 0.8145838455371325 -3.118489224551449
Ni 1.6607849472215241 1.7320314472676692 1.131637764605251 -3.099111334245469 2.5091454886361757 0.34728533175278903
P 4.511597244616872 7.899004970208194 8.233509414410054 0.2725919567039563 -0.32524249302013664 -0.6560743072025926
Ni 3.728431233792992 1.8188752540329745 2.0211446778727797 1.1799129221655098 -0.38053792315833174 -0.014824723717658339
P 7.533240268894212 6.638655678774186 13.481202457498751 1.4029705195847644 0.06234770899928617 0.1150057015146342
Ni 5.337635046345758 3.348511537465948 12.440346195528214 -1.0659300054884353 -0.6058794315157566 1.6179036881246716
P 8.239372041671832 6.440800098578558 3.4293364665346484 0.8099697438038889 -0.4393063994467918 0.6612982746056933
P 8.542007869080406 5.952106061083217 10.59208476504226 0.23380815106753927 -0.2339865856269325 -0.8510035218167472
P 8.033250905929714 1.8601845405897064 8.800967539440189 0.9065416640933678 -1.1181025737269326 0.08647828349890267
Ni 1.072931979931879 7.685348680360495 2.5691981631031666 -0.3345162050125788 -1.314957287498574 -0.3702599382710914
