# total energy = -381163.64601936896 ev
CRYSTAL
PRIMVEC
9.31968087359068 0.00000000000000 0.00000000000000
0.00000000000000 9.31968087359068 0.00000000000000
0.00000000000000 0.00000000000000 13.64029500627777
PRIMCOORD
 96 1
Ni 1.7955389853166421 8.111356056770097 8.331532579129096 0.3659407420704472 -0.9716918755384555 0.3105481242327555
Ni 3.8592983784865242 6.569219187142459 9.696326178464915 -0.13608617633401723 0.22274649393673895 -0.8082139374550469
Ni 5.3917148212416475 1.6280643248189803 6.002821190094652 -0.16122359483159332 -1.856464780496164 0.9894718252296959
Ni 6.70816630530382 0.21693140957183804 7.713082301958219 0.25146520202767014 1.3534623855523078 1.4710451037654988
Ni 6.046347826398953 7.410376279956982 9.57734181616254 -0.0936848285496709 1.528312055807768 0.32628404691077356
Ni 2.562940125811828 8.927415249711487 10.401488627934198 -0.06353401599790348 1.3714395388560188 -0.43617068203128756
Ni 5.626803764539006 7.709798978480571 7.048172484996197 -0.27238601134073737 -2.5943590464900415 -0.8410173571383129
Ni 2.547991358119104 4.9338482327280335 10.830053208653112 1.3335656466283807 0.09851387450719808 -1.3665847818668788
Ni 7.320665034439426 7.342445128016668 2.7662657336663297 -1.5629376163014372 0.2549724438499802 1.6111784535856961
Ni 6.010457736383565 8.559567456175442 4.778167628037817 0.5085912018855435 -0.4980473649314261 -0.3031762572487166
Ni 8.267181116509713 8.499390278499682 9.270735507827512 0.8182517813070231 -1.3871284103461852 0.3055668689680802
Ni 8.152679520579035 0.35284497169580314 0.08447358501673947 0.3073406730390513 -0.5935911010667068 -0.5574748149601237
Ni 7.091894834593233 2.2191650672822085 0.6772444142446412 0.9158272031603518 -0.5382709883381633 0.22382995680890486
Ni 0.7167225812935059 1.2168427377405806 9.85339448359743 -0.25529845973083126 -0.5831549933350473 -0.4618444326483078
Ni 9.262122259011043 5.955359784638315 2.466792708867466 -1.0540800481283847 -0.684977106279872 -0.3379735674335599
Ni 2.0131814865187514 3.2786915963861425 8.825461671749315 -3.0964494711425896 -1.5041915086104802 -0.005805036717551292
Ni 3.331701939675553 1.145603099184981 4.905677634158958 0.9579061346082728 3.658023652983068 0.1693778485076115
Ni 5.971305758155927 4.047173819831675 0.5919301940372012 -2.129340072768494 1.2521768618372435 -0.8413749975880478
Ni 4.393670225098374 7.6600225643615945 3.1183623350094356 0.23033819024106783 0.8294170538952231 0.5770044003526192
Ni 4.450231366698836 6.187531667905858 5.191973562548381 0.09017141607977375 -0.06154321082011982 -1.028237633143984
Ni 0.3939876337009773 5.533951786657079 12.230160941742842 -0.39457666063958496 -0.21413792633212153 -0.1711197708993827
Ni 9.304331092477595 2.8256805614684826 13.590098055514646 0.1596243686652735 -0.2235021411558409 -0.8315963209347292
Ni 7.5238247519791335 1.1915584442553186 9.754215374551794 -1.2500212489468214 0.4885713071201908 0.11349440707643034
Ni 7.645688895588896 0.9961527009801668 5.735184194247376 1.6652682934515641 3.1857289715357133 -1.8366665148233146
P 1.4557620697671843 3.2362963693074636 5.801695026863269 0.47226665642289634 0.5416805282403445 -0.37272794019560973
Ni 4.45885207125979 9.14128328026799 8.35305731345772 -1.7540135186077728 -1.0954151594317456 1.2555756031061474
P 7.6217932345139925 8.388523358005514 6.1560013244781615 0.9451658042234689 -3.6243686839327833 0.21261506192969187
Ni 3.9945642228083416 3.9162882253948825 8.899118835454225 2.8421092615599695 -0.6630463676450516 3.61714259849799
P 1.5804407569200902 1.0252487438334612 11.886138911677152 -0.038905933036578154 0.6389867555926867 -0.7761278555537794
P 2.4168634519865435 9.031907508670852 3.7012943774211227 0.05884252405950511 -1.0340434411924837 -0.6093257381931443
P 6.032769051755374 5.768714541133212 8.263399190119621 0.9191822356755137 -0.886859098062776 -0.18375262917204482
Ni 5.864576775851018 1.4476073492365522 12.325165765844856 0.377385236461963 0.26776882428370014 0.9515087157223613
Ni 9.01266236821856 7.956900990079626 1.5657417566676188 1.0153600058503676 1.6024235902112016 -2.273986737078013
Ni 1.2541494192081455 8.045736185620179 6.01369259752206 0.807642638332609 0.10087517565052305 -1.5938656733388614
Ni 6.154726392171201 6.378818112352964 0.9733893810989459 -0.24666006732954293 -0.8924617889615339 0.819791357880001
Ni 1.9560332050400835 6.550812817944748 3.42249985995182 0.7499673951083278 1.3052374891076488 0.316377586430339
Ni 5.673234413320271 3.2257092121385518 2.8355584909432445 -3.1050174153172594 1.2688964885847696 -2.2418055243597776
Ni 5.766962441179202 5.027790613240913 10.654748152509924 0.24322507350606498 0.9859635549661213 -0.7812986011214416
Ni 5.532190367022463 2.7767895170071175 10.4621336535764 1.1345681754821235 -0.5218295549526883 -0.6796469523162101
Ni 8.820061848805945 6.473506067314358 4.614825313921049 -0.24446974454644346 1.0494137530009668 1.230550027596087
Ni 1.4564703654932734 8.77548581646536 13.300992243422384 0.1585506759851205 0.13737018525276343 0.571203477400126
Ni 8.361971587957777 4.2178824094997704 5.451685102007944 3.0093842047919654 -2.7108115077535313 -0.2060554064343032
Ni 4.4582369723397655 5.777763951002062 12.500483869540892 0.5249087080986443 -0.5103452084621726 0.58286060202308
Ni 6.091045014587422 8.746147461916298 1.0424351668397907 -0.38677567653792744 0.6162448339104806 0.16537541221643776
Ni 3.182270180831952 9.093669032049705 1.6225535976763943 -0.05244433384264516 0.596518816236463 -0.6277662042865189
Ni 8.662549926876565 7.675064528860383 12.567662923256268 0.3613541511410293 -0.26153055668347214 -0.24846138220433983
Ni 6.909424807999814 3.2352432453989364 6.961310265840027 -0.847147895516083 -0.536760722341224 0.594525439955518
Ni 8.931264277801946 7.022584369923165 7.163691790049096 -0.6986628312970806 -0.481449608473745 0.7485635727822656
Ni 4.8477903020082005 1.5804593962813032 1.0542870046669959 -0.7586690366473837 0.9487100699313017 -0.6839512361185188
Ni 8.177134362490325 3.3548613459825476 10.005770329544605 0.07487026694632912 0.9695725152026076 -0.14749467528127502
Ni 2.428121626159119 1.030346609125182 7.993444389705524 0.35128262583764014 0.20985292580352244 0.06376232995862567
Ni 2.406854115015231 4.519364757437382 13.02293491268905 -1.3099801459989568 0.7355486485798365 -1.047130870504061
Ni 3.740351294906576 8.48854217027379 5.469526698560906 0.12258839895789857 -2.500790431803261 1.343935419898479
Ni 6.924066026232526 5.597539967434795 6.017429789445241 -2.383088414403386 2.2718547783366745 1.6956574472663828
Ni 2.6999021520040167 7.138073851998125 11.693620405453874 0.10977659190521094 -0.40115071431267685 1.5181939935371596
Ni 8.389884031374054 4.7667277200934155 8.1491212665235 0.12678778175122682 0.2901392215591003 -0.9960350802695104
P 6.917290618431647 2.4766492030768332 4.154615757702977 1.762066470819236 -1.0356632361840938 2.2330550318606575
Ni 1.047597337927696 3.3647308877447637 1.736477373409473 0.8842957082109738 1.1982227762182913 1.6908898506744103
P 7.170944365497026 9.054861882004504 11.552170021081626 0.392325402711563 0.6638158988212245 -0.3697724571117115
Ni 1.0755936584694308 3.1512915624961577 11.18946109943197 -0.03511638408715888 -0.241221669922791 1.299819146305555
P 0.6393832117809934 4.862217167586964 9.910451432206155 -2.026143448073646 0.803525787950758 0.6065407192488393
P 3.8177512423430304 8.335009751963357 13.173578230011488 0.4907693432127741 -0.6651749839522801 0.2387194723262276
P 8.78696766297249 2.4356426084085134 7.837181304977404 -0.49573542896879785 0.22049446467776865 0.7678702435306776
Ni 1.4903101257752438 5.405657063428876 5.729864520557221 0.4673802748648725 0.6721164482671199 0.8607112360228144
Ni 4.150790028814035 5.175246599795949 7.279920322796148 1.561411666575214 1.1636666355099767 -1.7102070629457837
Ni 7.95189632159397 6.250933455071444 9.986932459134815 0.6715706030659789 -1.4451091006260273 0.8537710572595554
Ni 2.9798467180601533 2.1288666818864463 2.8053580659380875 -0.10664910201982278 -0.10586337289373382 -0.905620180720363
Ni 7.614672998530676 0.8394748904650615 2.6919123898201187 0.40074345157192914 -0.6396508715392468 -0.367753884019786
Ni 8.12821535898714 3.490294944555281 2.464965119500544 1.1280877099641025 -2.782325199522802 0.08259463217378034
Ni 7.121494140199275 4.910959097158626 3.645600898085119 -1.6349465025395713 2.78623636165175 0.869282008410961
Ni 3.3577690863317557 2.0779625864140905 10.520664043689003 -0.8362119653298695 -0.8816382159834687 0.33192196192284124
Ni 1.6287446615032501 5.466626413956183 8.145943255436704 0.13346493666108628 0.7640706672789292 0.28236163449621043
Ni 3.0687098726425246 4.454024476705656 3.850709360839632 1.2677968277626874 -0.15064427665385022 -0.015126314118477178
Ni 0.1583059587170499 1.892687335958135 3.8540513983051 -1.7469794945791268 2.308963253153198 -2.8308372881905766
Ni 0.7795549359740394 4.466000266284927 3.8554288470987315 -0.7047645733194444 -2.0424280441662823 -0.1889226034087585
Ni 3.1308535029262425 4.389662762437606 1.4052773599221182 1.740683120047454 -1.7236968699021022 2.2622262541079747
Ni 0.6793953965286068 1.0735619680972277 1.52712659204291 0.07662298797137772 -0.9777329395262129 0.45774815109174716
Ni 3.507387238787486 6.558650669334761 1.2485287198344037 -0.2831005695447641 1.228800134784516 -1.2686208663258798
Ni 8.367721830891949 1.962389227213673 11.83678840696189 -0.8406923696987263 -1.837375625075197 -0.38180521990652955
Ni 4.845059635590514 3.554871011477279 5.167325803248539 0.6589927664009683 1.8832286788535695 -1.067751117857574
Ni 1.189256483145529 1.1782406206687213 5.428632872027924 0.6782243609370706 -1.8767577264172453 3.3749626784269875
Ni 6.392331649232297 7.2835261072227775 12.565589294321336 -0.9640199608154946 0.019261933553405535 -1.356546680904586
Ni 7.574113748531464 4.174191746816796 12.221704263560563 -0.6339139690554695 0.2160001763518409 -0.39817569084475296
Ni 4.849029819528856 9.000267193012 11.114603560864952 -0.26813057849849303 -0.7446069021273628 0.23582852393167772
Ni 0.20646540825080995 0.4081731195520341 7.547311279075413 -1.3144219838203945 0.0897924354738002 -0.5619513626742386
Ni 8.284124295852214 4.75008277053032 0.7064513612971521 0.10778244429331761 1.8458664361550274 -1.2158353470937318
Ni 5.327586098988758 0.9470752629066729 3.340494126359665 -0.992991151236864 -0.4190715604571557 0.09997117577901493
Ni 0.32972004820705253 8.781795240235919 3.686971892265151 -0.5362488157018119 -0.2677210017649002 0.2741826982298439
P 1.06011366898214 5.805024016775889 0.727844688129227 0.8625164075523533 0.19046603663647843 -0.68978018409547
Ni 0.6523189284627271 7.341149692412373 10.591688397622594 0.2650041170543694 -0.20568439624812962 -0.8132738684764573
P 5.076411386964692 1.7455295791825043 8.390008915094182 0.07781675116916276 2.3865162091380125 0.13332429731816395
Ni 2.3871336708520117 2.2465835676263444 13.660755214032344 -0.49061687679530985 -1.7274558227239023 0.48223148094509205
P 2.8561372776903164 6.7080078707335105 6.925641052255013 -0.21578188969344775 2.7928734073522934 -1.1155564102663111
P 4.14261666892219 3.2652246579098425 13.066092489641337 2.1172294055478886 0.18325794892381342 -0.21282846349207865
P 5.110735770638197 5.677512146718625 2.8401959640130072 -0.26588137745300017 -1.1906369934512335 0.34280955536962254
Ni 3.451310720578558 2.982335072782072 6.879973685315415 -1.0664943626323373 -1.4052168924167798 -0.7992078773016945
