# total energy = -340865.35074399604 ev
CRYSTAL
PRIMVEC
9.24053660333279 0.00000000000000 0.00000000000000
0.00000000000000 9.24053660333279 0.00000000000000
0.00000000000000 0.00000000000000 13.52445936673036
PRIMCOORD
 96 1
Ni 3.3811399662114905 4.64478330988296 7.836463635585269 0.30850666832269447 0.12403824403054767 -0.7182276408028856
Ni 5.188635075819225 2.608547963863938 5.630042559742478 0.009214576619732516 0.48909324106193186 0.17365102196166865
Ni 8.894792426505719 8.986689560347127 6.959618978264145 -0.9336158946023404 -1.3704388655056463 0.5864292932109448
Ni 6.763629050727743 -0.1253109132250734 1.9427072575146644 0.40697092053887973 0.5155756036231766 0.08782425600383585
Ni 5.994372881996755 7.074582338902431 11.836768511015844 -0.48473959207892653 0.8106395161774039 -0.7032509648883953
Ni 3.294352848962771 6.901165193522669 6.623075872819773 1.1517454585923583 0.61849094963218 -1.1743459696006935
Ni 7.431599700701998 0.9317510001639868 12.948344044453574 -1.3005943339086827 -1.0729468031259006 0.21854402581961718
Ni 4.536752199602425 5.2815856308027085 10.991382335590115 0.9789344160334817 0.8109035684720679 -0.11002778868406857
Ni 3.487821958187265 3.2762413977481746 3.682101462448249 -0.5423592994749239 -0.5899995270607065 2.076553525095082
Ni 2.806692784473425 2.5797452121109297 11.82263603474666 -1.8607176422352472 0.20441889927214474 0.7991022049617656
Ni 8.825063339329521 5.467810159541363 4.393691140133414 -0.4230734825276972 0.19924224016721168 -0.4249537302695455
Ni 2.9843513360304827 0.09844775004856643 11.830209578325988 -0.7205927986009525 1.523809282841408 -0.891120187331975
Ni 6.6328847021382895 4.964071561830895 12.367942261101893 0.5098086192324123 -0.6728152741063574 -1.154181835947993
Ni 3.8196588584767426 -0.028034863183655345 5.261041146371375 0.7270046156645672 0.4209273827189718 -0.40508038838438626
Ni -0.2312222444705937 4.0682847290787505 11.424246019618973 -0.3261621766209286 0.06909248392228746 0.6430475559256216
Ni 3.045985713378115 4.870446447695032 12.825136277298116 0.1561631495895504 -0.18456046978532084 -0.061212824063894576
Ni 8.332385663610825 6.428262265558685 6.890225322556873 -0.2527553815940034 -0.11549935332160109 0.08686317764214717
Ni 1.0192126765650869 7.588457804971272 5.283762701162994 0.11252175875051589 0.07531301091070255 0.32090247088388607
Ni 2.9580342885513136 1.463183485267386 8.213444252080762 1.3977200698191026 1.468474000604213 1.8362271132930503
Ni 5.770382281261133 3.074816186740126 2.3066236037411803 -0.4235769045266769 -0.38081714496164737 1.9845465984684663
Ni 1.2336578032677106 1.999624341063801 2.4414079148158474 3.2540053873146086 -1.6573361830886812 -0.24969319772891188
Ni 3.9414583678949047 1.1892939883282831 2.64963046435117 -0.4141119024590353 -0.48733563494087684 0.47933847566801324
Ni 0.3233226701113508 0.4667718321063893 9.168879670922369 0.4152167054874398 0.1669656395216931 -1.6937232063581475
Ni 6.538159964178683 6.605329422790368 9.577805745578056 2.2509560805107944 1.094881912636095 1.3822739104673614
P 7.199107806539115 4.916011532357876 5.761053959831983 0.011365818634780426 0.6227091014785856 -1.3021603928442218
P 7.898949066329261 7.163642628089309 2.81450750605107 -0.3167789356338157 0.5219676231924495 -0.040432139873117466
P 4.469545778845403 8.397013974730667 2.1699856410779166 -0.1881211905533857 -0.284392034662678 -0.10031210405820143
P 5.257874414569721 5.500198239391955 8.574046941977914 -3.066014037470868 -0.9639258584397917 -0.32932643328152317
P 8.41769429504611 5.108621271703311 0.054061757821937305 0.4201912758838957 -0.4663544047035194 -0.039660551814415565
P 7.921264961575818 7.896167664892734 12.56285659020902 0.36844216833606225 -0.150627821593618 -0.784168723580385
P 1.0040766780500314 6.753399777006028 3.3112334607376814 1.767006588433331 -0.6249577883034463 -1.1229218494924467
P 2.933001675622568 4.98626733010511 5.224404267914419 -0.6458091778311588 -0.26892453515469816 0.9629218426553092
Ni 4.185870553928618 3.5109510206312113 9.832768775997906 1.7985249707565865 -0.08178627733987205 -1.7326983020697644
Ni 1.280932387152341 6.977297972378312 7.494686690361331 -1.761281770134412 0.5430735519331292 0.6450257626979149
Ni 3.2321640394351006 7.368412913250258 3.7760158053713657 0.8929958070881331 -1.2030204547172507 0.6859276431185993
Ni 0.06742542146813604 8.744735356978252 3.4233923185986046 -1.150848657809702 0.8762108743203104 -0.7306062169728965
Ni 1.659498679682745 5.819089148277531 0.8623388633840454 -0.21596829467264095 0.8939262893222023 1.218736579900927
Ni 2.047924624481503 3.159330132050687 9.494319347907833 -2.4617682849037927 2.136129070665869 -0.5091486170509102
Ni 7.374437742940011 5.238922074548732 1.997292029693105 0.44711895351267517 -0.867306372741829 -0.2747218585627656
Ni 2.25596605950468 5.948909443233585 9.327048083243799 0.3115619102092505 -2.155831177080487 1.0771891233420223
Ni 2.0645021466646596 9.491232084718652 6.711958743709038 0.5427434222872202 -4.195845469598955 -1.6852658196194137
Ni 5.526145665417766 4.588453000391031 3.9882949503573046 1.730476611828097 -0.6611010709932227 0.07071639267895563
Ni 4.353955909843675 -0.346418466624495 7.845741134064583 -0.3586727476541242 -0.5124157178379563 0.13689453116792555
Ni 8.588699660442703 3.0523616834485594 2.4803050284600934 -2.7266415328072524 1.448437650778628 0.4231128204060649
Ni 6.550154180340186 4.224357387759635 7.607752044836618 -0.32325760137962395 -1.7939162683399814 -1.6962806826726786
Ni 8.48348691374403 3.191357830984254 6.367274725754431 -3.3986384247773724 0.6661666584415883 -0.878165684053836
Ni 6.563811693041806 8.979491182542958 8.897876917534001 -1.3816589025911818 0.2589419700206896 -0.7371147075153757
Ni -0.1702402489881404 8.342845950740887 0.7742007797232981 0.3116794096237213 -0.29730025808391375 0.7274653573510698
Ni 5.9179721275874275 0.9423129331937234 3.9021038477021266 0.5035490114759457 -0.16730656780087963 0.9498349275643643
Ni 2.990764268246263 0.8849347468815214 0.5041553458991299 -0.16693735738691892 0.21823729321247576 -0.18269821976560147
Ni 1.9739541311280107 8.495555054196204 2.1311846290115435 0.9019836124090402 -0.2900734013181714 -1.6644424551161592
Ni 7.80191419428616 1.6392341835023316 8.291953696881505 -1.0469688910049 1.705445122780766 -1.353628478816527
Ni 8.575476452948779 0.9899663790680472 5.090525529400481 -0.7283863265034424 0.9484041086551086 -0.8039682748048155
Ni 5.76579897523948 6.63975966117077 2.955026493974604 -1.299991153107045 2.066407180689699 0.22900944412731528
Ni 8.234288129889316 1.7524677157388961 10.617673793010484 -0.41676476670085 3.1719054353890597 1.0182499258036528
Ni 8.968217728215507 2.47284144726314 13.25559280161197 2.092831179209183 1.2602804647809844 -1.5227921544308032
P 9.155144537715543 3.5503896297046285 8.426454323490718 -0.308033842451334 -0.22325171570793165 0.1590425280198745
P 4.94445390319386 8.710221953770844 11.008991101628142 0.03976288172023474 -0.7347696043219669 -1.162039898539831
P 6.402102307197194 2.864289047443109 11.314413928806946 2.224816446000949 -0.03238330142671197 -0.8840347412401033
P 7.0468976920458335 2.7914366589860276 4.191648661298255 0.5214958257623535 -0.6833979347182102 0.007208601933297263
P 2.00175890495695 7.969435877484844 13.233574451635368 0.08927255841458819 0.4534932324701352 1.300628786691044
P 1.4587110656817406 3.3111059413362725 0.4571182437982826 1.0549624507333382 1.3542805105782287 0.4719853777370517
P 8.663335472412241 7.63602808601859 8.824912718587278 -0.943800034224194 0.24193952192542206 -0.3783468290442839
P 8.808947843963063 1.1944779292116445 1.3575854082035874 -1.1394064774110313 -1.788322833412604 0.9407054544592702
Ni 5.260119864898877 9.226509199822853 13.128394970867499 -0.8309049512946594 -0.5074365194558099 0.24322173107195533
Ni 4.800089004048125 3.2362945591763883 12.53427930754256 0.5037796394295131 0.1661122903824623 1.6833305502699136
Ni 1.5952677116252652 4.480052268657136 2.764818370022371 0.083715633152101 0.7476919688105897 0.224612086390568
Ni 3.200690772681572 7.105889276001947 11.478546183278327 0.15733531552078064 -0.9510253483280396 0.4947674086285737
Ni 0.9073190220969494 4.734564360903888 6.415259906883145 1.4484546200594925 0.7875787777031984 0.3377591374299086
Ni 4.141820917224546 6.948282688289622 0.468704028253824 -2.208160582611823 2.222096733076941 -0.2545734086393487
Ni 3.376843116816191 3.2571319686095084 1.281995972884382 0.6934087819869929 -0.6359456547735176 -1.0165308862300169
Ni 2.6708476598276167 2.981357402258274 6.265056836881602 0.4868165292126132 -0.4262220554590079 -1.0769137581934485
Ni 1.253044448496396 8.027198470108539 10.348334336162232 -0.11073175672962865 -0.17748453677514595 1.4695227535837014
Ni 6.485535109756679 7.341994219871415 0.5038762817018438 0.9379710862472428 -1.668498627463404 1.5213929600904315
Ni 0.6605606638880387 6.447815240441383 12.435036871369272 -0.8753932635150216 0.3474146582418017 -0.6885504254534272
Ni 6.972954920301342 3.1785134854800248 0.4348614879842636 0.2069000138227856 1.0376139321525615 -1.2434037436303038
Ni 5.212762116187242 5.0974402227391975 0.7182363954701948 0.7773792114623773 -1.5830248739696156 -0.03178629127266138
Ni 0.37184380234743497 0.3454583748993946 12.129870931100555 1.4875608420323347 -0.09783921703767666 0.283330426167383
Ni 9.203075199679887 6.049446478547264 10.177790997582337 -1.3443961615849813 -0.6146345520005673 -0.8586047312027729
Ni 0.6413865509950348 3.1157979653813173 4.517913518178344 0.8026734672527918 -0.7123279874889991 0.6119775739936943
Ni 7.178547613196016 4.195693244051637 9.641248495886249 1.0422930827957855 -0.5336005794456874 2.6596653238970194
Ni 7.598622394938647 7.871125811427654 5.073971108558161 -0.19116666224792883 -0.07347750036386055 -0.7419527523339673
Ni 5.9799946074610855 7.20390364489645 7.2928207057701515 0.09360512435167105 -0.19812381029205234 -0.7348428807620635
Ni 7.827316428668265 8.89445052666136 10.677086745423429 0.033828518513670774 -2.848190691867359 0.8517951644801073
Ni 5.0202355416688125 5.369047307203808 5.950288131254615 -0.4203784521940373 0.37243534865585537 1.7101931789887126
Ni 4.74132843350036 1.5549142894547838 10.673016289168311 0.5297529235648231 -1.2026800406586966 -0.07640084465824261
Ni 0.7422802710112052 1.7987720433084589 6.981014516091838 -0.42748241022867023 1.8458643792724985 1.6234994370448945
Ni 6.185707427328101 0.3849478069226489 6.4266608806120065 0.8279137298768193 -0.14225553836952273 -0.5613965186120332
P 5.260711259224252 1.8664682124911804 7.730756520192729 -0.3075651303450316 -0.15067590122273405 0.5482484112658493
P 1.7785167876643795 4.8458666210466514 11.11584773974063 0.338243790375811 0.045502355307173246 -0.26256439726462527
P 4.034048541961362 4.970244240101993 2.4704315153872383 -0.3756479420558821 1.4438885979553648 -0.07336154361128655
P 5.4023502001514645 7.64067607579458 5.180827746670647 -0.747772444339538 0.14028838734082288 0.04017914332204694
P 2.2483241359564805 1.4361087138088309 4.44946609339167 0.03012638707173521 0.270265879673941 0.2936022404070363
P 5.34986395377447 1.7994743240698412 0.7415863067325233 -1.0907316379131473 -0.887960815767387 -0.6078856633125079
P 1.5953601169886047 1.4117876221778012 10.504393134038617 0.013744089058969879 -1.5142236960355018 1.0672302123570976
P 2.650176580048509 7.864953133156557 8.8563028205138 2.4533265818943426 2.498012611947807 -1.6347657539873328
