# total energy = -340888.74017593433 ev
CRYSTAL
PRIMVEC
9.10331673334278 0.00000000000000 0.00000000000000

0.00000000000000 9.10331673334278 0.00000000000000

0.00000000000000 0.00000000000000 13.32362421660655

PRIMCOORD
 96 1
Ni 6.735489221777482 2.1909588933411257 11.753394736631346 -1.0452359674741936 0.47470611910232446 -0.11107705588418934
Ni 4.574343689811528 0.20201078501993788 6.12561617750723 -0.38595832284295467 0.5174255123477218 -0.9360435302072267
Ni 2.730148326700337 1.846826221565366 5.185767939204933 2.0579420806414817 0.13677497487092574 -0.9460484639387383
Ni 3.7464516785432496 4.612750581915909 5.217571285556169 -1.1576605385252128 0.045181481632644765 -0.23681968420035343
Ni 3.7226009894431122 2.958022544087603 2.7386307969688515 0.9337513917389403 -0.010999179323981057 0.9595526690727604
Ni 5.319568484393413 4.979459478488745 2.7241210208785045 -1.0054774566293327 -0.1868945172351362 -0.2981713478349574
Ni 5.793678308448471 3.537730838967697 0.2038150623404139 -0.9126395494609895 -0.007171835158090874 0.8284240938543345
Ni 5.894488434820579 8.435069299757076 12.68768722090394 -0.08975361181606478 1.1229976970357047 -0.6328184219984456
Ni 2.3726519863753395 5.40192618832049 11.492877847116112 -0.03779624491216717 -0.07692689236504172 1.616299062641713
Ni 0.7140249981113133 7.64118727874762 11.319617156109937 0.18333302513612296 -0.3343349422397081 0.8424654024387491
Ni 0.4962509103258037 0.7991228002899712 5.09552676323178 -1.0134869571973708 1.2575697507180406 -1.2807091649489815
Ni 8.68974368077442 2.666925793952072 1.3736522184414126 0.6205578594635377 1.1482528720580676 1.037545026587839
Ni 1.3053154425112938 1.2157570152719233 2.7253872921967597 0.3132302990506089 0.388572363427034 0.6611303815692614
Ni 2.18621606547045 6.779685823144339 0.8793375835246161 -1.2150781572127332 -1.165017493110916 -1.4486752207107307
Ni 7.915096967424731 4.251121335922415 4.0093718436013965 0.7440764835451894 -0.06967072502326065 0.19317597936847378
Ni 7.8178189278353925 4.65113926738739 12.79712729127106 0.7324561256974418 -0.5672043835430618 0.6354856844179636
Ni 8.11029938207139 9.56967935218983 6.885688481219773 0.1582010059551856 -0.6062023620728141 1.487263365396574
Ni 6.935898733433787 1.1702677429691042 0.8326184531693434 -0.42403816043381165 -0.6243561501637054 -0.8896281761674807
Ni 2.2383871720478874 6.686740962185407 9.573929690640538 -0.7584533210921519 0.754048764266553 -0.6920898060652532
Ni 0.489377906405726 5.204757457320539 1.6701963931408832 -0.9945225002797261 -0.663205004710103 -0.20551007545379446
Ni 6.417874510821836 2.540025562633021 7.080506735912223 -0.8879117076970062 -0.5448740954769777 0.8263217027993511
Ni 3.338268072222235 4.173033087410591 0.671720976234501 1.0542404849656488 1.3981137057130955 -1.1885783111499917
Ni 6.24095155560765 5.929563513104101 4.821485986797782 0.4430949199549466 0.21396823352347666 0.9146416674926827
Ni 5.399550222726927 3.2826103954442813 9.677360661818726 -0.06345071225547783 0.0740544559132531 -0.6217464804550001
P 0.45694734155105454 6.067915716517798 12.781525117206662 -0.0022474012732800006 -0.6410696062636443 0.11780948951201645
P 3.9364287895473584 6.257337525218431 13.011477621739562 0.2887078884292124 -0.42941459425437656 0.08116972680179568
P 2.414326969085427 8.688432803205558 1.8142909685715145 0.6581386459307891 0.6299832665424957 -0.3545885502824216
P 6.628215740725566 8.228424016332221 6.040958065513128 -0.12760230723272217 -1.116790282673412 -1.2917204284578205
P 4.62073419044294 1.7350830121362872 12.941768976020363 0.6857378957052965 -1.089931510609355 0.24941911813191886
P 4.240306595979299 6.240387149987723 8.634427378363357 -1.522611920099197 1.0985855867399272 -1.045623432720599
P 4.782026751311731 1.5863166147032934 4.045771454428458 -0.04558591615991504 -1.5405121974183857 0.47510695408516884
P 0.27274901582968103 6.046504716226377 3.7975394904630853 1.6754012681205082 -0.4045617968767549 0.2891858565068955
Ni 0.3723920970328425 7.7602040380205946 2.1046394260948196 1.4294551961388544 -0.9439995518295096 1.7638065934387945
Ni 2.2545819720132094 6.769189699276989 5.070957822463703 -0.2107471554830177 0.5343703677321764 -0.4781609104201442
Ni 6.205111798742291 6.08702357774726 9.142203997647055 1.0096033058722484 -0.3612412797122488 1.6095144356197117
Ni 8.880931532866436 2.621736931092117 10.588017295259414 -0.8649892945728781 -0.10722554334858309 -0.11406519197823581
Ni 2.4643314863476613 5.729090278232642 7.282093306385572 0.5164047843926913 -0.5457356721463247 0.3501850218980872
Ni 0.990440829807229 -0.005565767677795403 9.374234789325591 -0.16739115709488592 0.07948282601767602 -0.5493059059960862
Ni 1.3288293089027652 1.0934630620767918 11.608979724461658 1.4347442124519354 0.2507578915480004 0.18623168684015667
Ni 4.2605796817144155 7.466112296772872 1.5348810560950508 1.2553280058717153 -0.1385814319520452 1.6205043589723123
Ni 5.679631959957433 8.183999832054104 7.962597162331451 0.5609915698641307 0.36508893559311323 1.5583795646171097
Ni 6.742107332836947 1.0838317532722324 5.033372049503152 0.5916874562860907 0.6453666909771015 -0.6195484443624169
Ni 0.9214376911129387 7.777063380086799 7.238098798643914 -0.0802749829016682 -0.15806653725985037 0.3458324013563463
Ni 5.3519944975898595 4.937738979196405 7.083438003809264 0.6258738723598124 -1.72862284644881 1.1230228938466853
Ni 8.231500937292468 7.663053444861562 9.38913145636508 -0.37001954012551114 -0.257177421921099 -0.7063712556849318
Ni 4.806897011854317 0.8340440325254814 10.74462346881952 -0.3957971633102474 -0.45729872225915436 0.2955076849598653
Ni 8.960103076035862 7.73996736555128 5.036036590228193 -1.1506725372431539 -0.7191434677489357 0.045025415670754715
Ni 7.72527461280028 6.502234944368008 7.145072918168572 -1.5794872931300021 0.710212483807893 0.11262306021507056
Ni 2.6024470035336473 5.371730487654401 2.960535969759568 -0.028563156349673387 -0.019836832220269062 -0.012966844573313152
Ni 3.276165247397374 4.419013801217771 9.220986829204048 0.15315367333926527 -0.6183048017633029 1.183048382470698
Ni 1.3149558546323035 3.422318993009093 4.0403759187682855 -0.7374042137313365 0.8223146385224871 0.39379478816823793
Ni 0.6859212395655331 9.530990257275485 0.5688125354205689 -0.4232819989940775 -1.6401293322920913 -0.13504282267116743
Ni 1.182320533949479 3.62566887587889 8.34832925929076 -0.6308828955386296 -0.008518064773340168 0.5044306427499508
Ni 5.61393332513465 3.287362326631408 4.793240216515375 0.3301813250826507 1.7452982502219623 1.4571953423666
Ni 4.573305911736178 6.755261625107824 6.205211024891601 -1.4285018310866493 2.364361270307528 -0.18185206971522228
Ni 8.117390865586279 7.60217046444106 0.35721595817832386 -0.11886749846288559 0.35507191767674334 -1.268939168897247
P 0.28812724830939934 5.7994589143944975 8.509198515944606 1.1951323102184255 1.7216114481279836 -1.0987714774984882
P 8.729088214473197 1.7590611476667306 8.579307707587624 0.4470024825394689 -0.12807693287629557 -0.7175198161025836
P 1.7191066917657756 3.4711946990314737 10.718415931090368 1.550984300594303 -0.5840471661320135 -0.5567906444089057
P 4.259605626854219 6.545712383735282 3.9180510142972222 -0.3856027392757488 0.3613580077957712 0.21020362427472183
P 7.107678314853479 4.216164600752748 10.648746429631906 -1.3603388009571669 0.08044030483493887 0.3220116447876648
P 6.266131328909551 8.254231918469202 10.39425229428028 0.7507947761056296 -0.1276267327127544 -0.1552835751980745
P 2.21516461178283 8.943398490349315 5.742375658260405 0.8596622259330098 -2.0286518163177965 1.5300246676235003
P 7.135734736153718 4.400397519076632 1.7503774941046617 0.9824822812857401 1.6708725270122193 -1.4505158734638954
Ni 2.599078776446987 1.7785240382377587 0.5587369847732284 1.3168141382016547 -0.45323355105084523 -0.023037084325121613
Ni 1.3930258965112263 1.363176121870253 7.294684103368167 0.4089103036534377 -0.2071129011645401 0.41490354512239513
Ni 6.744965774202384 1.3589066664549994 9.309735971610973 -0.11550218153507849 -1.189084818472765 -0.40394061835298817
Ni 2.7732252201437912 1.6049237935279808 9.480051739745436 0.7670719159990983 0.6601093965039148 -0.17884002236177585
Ni 6.521005982888804 2.6721693042275225 2.7347536944926114 -0.20627523575459314 -1.7430817021866174 -0.10678048539136449
Ni 4.260688921511821 7.0938412738488195 11.004887286137432 0.5247626694390835 1.094182315465909 -0.8658518996834895
Ni 7.287669087711462 6.558784746158105 11.477422236446566 0.10914512896879913 0.7510634563859839 -0.6572449304719262
Ni 7.8300355785118745 4.212432241008069 8.467215841138493 -0.4539372619860892 -0.7405340176095697 -0.10610917035595273
Ni 3.418541116682163 8.674714105314754 12.865730794373176 -0.5550536071131409 0.627936411315796 -0.025906178342800547
Ni -0.046694551400856626 4.989555056432277 10.470356019805909 1.341516011823709 1.4523207878831181 1.022721074201129
Ni 8.652975385631116 2.8603439585744455 6.165320292205799 1.392800263919982 -0.4989691054147471 -0.15337118866671007
Ni 3.7563925001071237 3.083193145281072 11.485483223163424 -0.6871275769639714 0.04473565234447779 0.32937965511696177
Ni 1.112488993458199 3.544876942381287 12.942794919784326 -0.4940436430886718 0.3215660726098139 -0.7244150005605202
Ni 3.225041022211736 8.436507623756244 8.113687636454241 -0.09765666871322536 0.2977928814496162 -0.08708506384496616
Ni 5.7891084435903535 8.4114279869353 3.6598399948388844 -0.12127687923532662 -1.7270094792151034 1.8155585292001055
Ni 3.381645375108554 8.957790833657452 3.891963640345213 -0.3851165436679496 -1.1077399995456858 -0.5035569818957456
Ni 3.8484361327374623 3.061363392432931 7.336227087989723 -0.5027409137523534 -0.22221941778867535 -0.29842691548918926
Ni 5.232313196216003 5.045158113311528 11.552448129304462 0.39468259008983 -0.9424419775344026 0.024797775769970196
Ni 8.01492393562019 0.09415287105190467 2.988701630857211 -0.6212718548114268 0.7989086008937208 0.17082615091836387
Ni 4.813615259394737 0.7072830819481218 2.074448277086955 -0.6831385104092363 1.2442352383926636 -1.9523386462773538
Ni 6.052904347691032 6.296081240031479 0.2510594540548768 -0.12209037627555748 -1.4819265265646928 1.4038328675850598
Ni 8.11658067042219 0.2946852774802921 11.213335026219474 -0.33963192897258926 -1.1889920016486426 -0.41504906956132387
Ni 0.38136250506310027 5.446113686370897 6.149358537141607 0.32472287307124076 -1.7870578506572514 -1.2607648606165707
Ni 7.469070874619263 6.411975561761954 2.930943818974142 -0.3822273950456127 0.7412354145519686 -1.8455908138961374
P 8.560194384368293 2.1204081908502617 3.677133565099774 -0.8566812889278148 -0.15090627206598525 0.5824119445214356
P 1.843457994478705 3.337421463792345 1.9150847089740108 -1.5985857045223502 0.6018960213879763 -0.6206241939250988
P 4.616847074318604 1.206817558517597 8.088558841724463 0.6508981623182919 0.1407966944358091 1.185801519735803
P 8.637599884146335 1.7157111547297637 12.746830557550767 -0.7250755169626545 1.170751824491532 -0.44372458311914553
P 6.403609613944005 8.249316127585969 1.6273743925580413 0.6670691156511995 -0.6913585843261836 -0.6259900862227025
P 1.857358758698518 3.3654141618774296 6.285445835422436 -0.03656417227727896 2.0307215543626316 0.060019060866109544
P 7.276772417920292 4.419359727242887 6.246554646882892 -0.8230216918918407 1.2923359505546324 -0.7726900335168241
P 2.7486462657276194 8.669270322077395 10.714099138429571 -0.7113923630486071 0.5456598246030666 -0.5402710494873276
