# total energy = -340866.3690677231 ev
CRYSTAL
PRIMVEC
9.28973967758154 0.00000000000000 0.00000000000000
0.00000000000000 9.28973967758154 0.00000000000000
0.00000000000000 0.00000000000000 13.59647303942121
PRIMCOORD
 96 1
Ni 1.8340268721155821 3.214222087736483 5.142974578236708 0.06173321534373885 -0.1435040660646432 -0.37995068319629405
Ni 3.9152444295046784 7.323649947444186 7.0500838330441145 0.37761843551869156 1.9587553484369749 0.7644869288807414
Ni 1.580909332875196 0.2159548643045313 7.1636146716249005 -0.13000628868852449 -0.9265553882111335 -1.2981666983037965
Ni 9.219620804279366 4.360148646090012 5.641529828857899 -0.07296996459982272 0.4821381499003374 1.1915767316566834
Ni 5.956460367487267 1.6838210699363403 8.052280466805088 -1.3164562406416036 0.251498883479083 -1.6268346720657145
Ni 7.880597715274731 4.529491312174829 -0.07447584365582181 0.03674517793983349 -0.6517237435433808 0.6991487697945636
Ni 1.1436412823725723 8.170437595786348 5.102416503418578 -0.8263047335184867 1.382755220979154 -0.9817073507929288
Ni 6.339188355859004 2.969920511528325 13.306909356191065 -1.7229257960640327 -1.3838055166205394 -0.12389271959161889
Ni 0.828393034643412 7.6615735209535 11.01334692736817 -0.4443179937287703 2.0165545188336305 3.151189800108263
Ni 8.248842999360646 9.036464295171449 4.455374052473743 0.27095879197590755 0.4978977267274392 0.194929985945103
Ni 4.58901996455683 3.67895989870939 1.8198878882008809 0.7274782128668762 -0.03935819008264834 0.15585898808557028
Ni 6.538313927614341 0.5074548213112591 11.809923532307598 0.43726082977167274 2.0147478046421945 -0.8636484642742674
Ni 0.45347678843585015 3.9888284581435416 8.923080234478869 0.18282009005544644 1.8177246836134888 0.5122470534705759
Ni 3.8240191850615988 9.371489469875645 2.7160319238878596 -0.5779824479951723 -0.5087740073203109 1.2440963988219542
Ni 4.6812485008939895 0.5218371964076721 9.838448457625166 0.33643450508121414 -0.554484107762916 0.49871610886367657
Ni 1.6076452039044407 5.905487565424215 10.533391593694427 0.331875424955622 -4.033887567704498 -0.5206064811788647
Ni 5.413809509147343 5.684243123300346 7.914140178626119 0.7643136365276708 -1.4055462507317407 -1.2591432658527477
Ni 8.254342525298558 6.439090217237911 1.219911903750024 0.27101175670103 1.3582628922647448 -0.2042990858648288
Ni 1.6767701574585094 0.7156908408492165 9.344325341843465 0.1962988412681716 0.2922968913320514 1.6390278716977968
Ni 8.9806608284332 0.1272712926597842 10.583698321416687 -0.9688297234993121 2.6383151403560174 -0.017101692677293126
Ni 8.27665648020205 8.66297030812114 12.88544593994211 -0.16081684631147788 0.439096854539147 0.405861746635101
Ni 6.770288019160994 2.664576055357287 5.399186529791146 0.049329442362747306 -3.542521214337673 0.007784529041425303
Ni 0.5070897345386916 6.961573050558903 2.9731542699387763 0.6150261310120312 0.01904107579185108 0.9283844710000722
Ni 3.840722137150057 5.484783120913649 5.824715136159074 -0.7479976729764666 -0.7362942684966093 -0.8907679461988788
P 0.32670063890527334 5.623376748392906 13.065748640995759 3.1498024328424337 0.33137020318442933 0.7245296717615135
P 2.1616202550117904 8.122957735873051 2.031313075398442 -1.0937886795719163 1.05141921346677 0.20039229461125488
P 7.210333701851854 1.0912657296057615 0.3472922760572622 0.3469492885696089 -0.9984182357897062 0.7972301847500335
P 5.273460120853448 3.5329623486414223 8.430901461228933 -0.0246332251676479 3.1885687549773536 -0.2273395126240601
P 8.76232407485421 5.646461751696477 7.877782924127455 -0.22467944929339373 -0.04356888572988625 -1.01091816802893
P 5.023575411049538 0.9609213910333733 4.551922317799296 -0.18044567628599892 0.7336552882118655 0.6581108780166472
P 4.271691744095409 1.3020034760610837 12.41136357974463 2.1056183036715224 -2.243833867643716 1.6723054028040036
P 7.110394681513906 4.010139121152953 11.514485654616612 -0.8048545340645107 -0.19607027019713327 -0.5633467003598686
Ni 2.4106038600589823 9.014196788966757 12.016617455045399 0.1367819168494612 0.5836527589070722 -1.2603545125520292
Ni 8.6933477571363 1.9791140276870711 12.348792537591233 0.030809014961056615 -0.27735338264834164 0.16272820440157781
Ni 7.126549538956525 9.27763522908049 8.860114378385672 -0.33350524724956115 -3.846842383824111 0.7366580795939313
Ni 3.0624370297980428 5.168699725580066 8.738534909276831 0.1835276576454323 -0.1972123542213765 -0.9075438801056369
Ni 4.989212663677343 3.8203961865552034 4.513621649742842 -0.4219067159131057 0.3529710692836566 -1.8828139599136542
Ni 4.131268037883434 2.396176894211721 6.181215402266436 0.5693988200912194 -0.11692323025232121 -0.14839687538057025
Ni 7.556116395198119 2.0005919060121626 9.705325557890566 1.5501224668146398 2.3430321698124486 2.428244185004418
Ni 8.826042399867964 2.582324699522356 3.905178996474732 0.26767189369451966 -0.3733226363568152 1.2821332989900178
Ni 8.764609350835165 8.307777108398009 6.9818980721797805 -0.8674159017364997 1.2062744428781742 0.27650980370112377
Ni 3.122105028276444 2.4378413770352663 3.4116271996882706 1.5228623455471064 -0.33921001094382225 0.4638300956197689
Ni 8.385067743201105 9.089081381172019 1.9203248385899645 0.44465223713973745 -0.42218645193705356 -0.8365158697235335
Ni 5.68919455459242 8.227680972187393 4.134374526859173 0.03979733450259598 -0.9967012530985996 1.4569158634529682
Ni 8.43513944050744 6.5743116691842935 5.514117332153763 -0.5949702408024204 0.2664377641771024 -0.6103045571666457
Ni 2.7398043679336683 6.0269137538270146 12.961898640218855 -0.6502821260008479 0.27575955579866057 -0.44324790059304314
Ni 3.5802099650607206 2.249101734331595 8.56633564821582 -1.5048239999881567 0.3392159244810932 -0.2253070555750636
Ni 0.9347986428282876 3.5771164817206444 13.784512527757581 -0.07051507530142695 -0.7548216378768355 -0.7570662109366381
Ni 7.549241987775728 3.7087520941196708 7.789691108905418 -0.30518634570020986 -0.1616185162771668 -0.9714946719259849
Ni 5.378174067428031 2.8759640835958087 10.442240667169425 0.3388148323879326 0.2236085848267181 1.0403099909274856
Ni 3.563739256466262 4.572029030535813 11.152031594297075 0.1957293419179468 -0.8098694707805988 0.2592643863571148
Ni 5.952958135597752 8.3286511536387 1.861615541254794 0.20446106536398984 -0.5703293023252887 -2.0724215052045794
Ni 9.335445279606894 4.152680888030206 11.32043692564011 -0.4779760481028477 0.8328530761599655 0.6080103618158303
Ni 4.9165947679735185 5.021921837372259 13.553100465466406 -1.2772296910408132 -0.6487618327015795 -1.8640096827229573
Ni 5.588131475743514 5.952307853814553 11.320872614434851 0.2269685024378865 -0.682855946171811 0.3603208247805085
Ni 1.3777055653652237 6.725957381026333 6.769928506232284 0.030676860258566523 -1.047410606528009 1.9590469115354647
P 1.567290574387054 5.86430614906819 4.892460024077071 -0.03153972247949407 -0.3454467358821534 -1.6729957440028091
P 6.657064670966264 3.224682334706229 2.8021784676041537 -0.11227339018513567 0.7486324783469881 0.502577905811928
P 2.9390785755251656 3.6935540798723308 13.15112042041607 1.9084586570649522 0.3673767031860254 -0.24480758750183645
P 3.559335919820028 6.733472780492163 10.493323088161647 1.0526482007778646 0.016663576698610013 0.5035047885015715
P 4.7280594995445675 6.024182570337579 3.5974229238620015 0.6285092531001305 0.31983546307195243 0.4641828509734974
P 6.127391579071043 6.879758312492691 13.381989032931287 -0.1375239372218083 0.6427688483429382 0.2735651192505031
P 0.4830060842109232 1.2894251684260603 5.456196733724215 0.21793981657671496 -0.6268609188634301 -0.7264037488557747
P 1.017217213978899 0.5460889910250961 13.47743646409528 -0.44742954277455843 1.32357459685394 -0.1218389223863837
Ni 3.535674952651339 6.627653354886143 1.6808910860160402 2.060161199779987 -0.03072802521147611 0.1595904301035445
Ni 6.034345545635005 5.810295602103621 1.6914014975804903 0.3130402945269899 -0.28445296980760043 2.2444668732420245
Ni 0.9937699108246899 7.701259289208168 13.601775914886813 0.8386771390409103 -1.026912486574657 1.2843020245065624
Ni 7.945514416717526 6.404281562357237 12.073994603698988 -0.8862533461579768 0.5569302553105634 -1.2862856305954944
Ni 8.706223336443642 2.607081855982723 1.6174774644664118 -1.6962955950710141 -0.8026145889903984 -0.49662708754513185
Ni 2.8746263610703706 1.799431881249388 1.3196809218503642 -3.2068909503253096 0.5643771985069118 -2.675687667467205
Ni 8.128931038538724 4.794081680018801 3.488542529005065 -0.3891277217098718 1.1561577287274412 -1.264060500648707
Ni 6.723430571811616 1.046154753331261 2.9980907183765115 -0.5234737754243307 0.8659046072982958 0.623669408509326
Ni 3.2334611387794174 7.649738392499276 4.386875227379496 0.6546900252605563 -0.9722377207395966 -0.5177540993317341
Ni 0.9939185466608498 0.8433569474488002 3.0513887423014894 0.819523191820279 -0.49194716557095924 -0.21607422412288593
Ni 2.9643652471518522 4.7639457642374 3.3276962589047328 0.10424434923307209 0.877987763715075 2.0563197145467105
Ni 2.0604178300664837 7.604395172730775 8.863255239398525 0.4129302234461082 -0.6015216687676931 0.8119402372666985
Ni 1.7065066144302303 5.274398384569206 1.5775445891341282 -1.9508348080383175 0.9967449618523416 -1.442308912173071
Ni 7.287029793310314 5.254685556798513 9.660702292953465 0.4669398448933443 0.26277599905479904 0.020291660369500537
Ni 3.082233465226577 2.1010139928176303 11.02724252010116 -1.8811175460478375 1.1062929826865142 -0.951264460922039
Ni 0.9632624054528902 2.504969036540938 7.372239002284825 -0.3360215859135116 -0.9550506674373488 -1.1091931870524445
Ni 6.505790548714624 0.10794306011515371 6.352013770571642 0.04803874857578178 1.4640167361638077 -0.9885377434512008
Ni 5.469464340049429 7.438006643889635 9.386474749082483 -0.15109421970707526 0.8297471835411323 -0.03301964945913023
Ni 5.0017352328738065 8.249948478392085 11.770766350245275 -1.468677889084903 -1.2471184734777294 -0.04209281540499202
Ni 6.894937747260511 4.744864638770385 5.4603975540436815 -0.7576382813900242 2.898193506148047 1.0380386783948057
Ni 2.5945871560055394 0.8766643803842603 4.940455464547047 0.6941847409210691 -1.719575134424245 0.6356358368425827
Ni 4.980192326370395 1.3355487263343995 1.2873656331212708 3.229403786715845 0.5292883252235788 -1.6754172089601083
Ni 8.962313592407225 7.403681055476479 9.146007977447248 -0.8965835244393915 -0.7708388392406983 -1.1620704946674503
Ni 3.7811841950282954 8.78368118656242 0.19626804780516527 0.15666271493378825 -0.3133236300953636 1.3495414532313468
P 8.114996428898742 1.3734508645551495 7.724224454868834 1.2600943169121073 1.1381468939723172 -1.985328728050129
P 2.6819478687084644 3.9633559917216554 6.919734849601846 0.27968871564973763 -0.7194113766983417 1.3361028112279376
P 7.564040543213388 7.205484457697141 3.3486074631044653 0.19046192287142036 -0.47754358855111956 -0.7525770648170329
P 0.8517623039836372 2.453243765557326 10.3379967814267 -0.029854621467587297 -1.6072446657489285 0.6835025786168745
P 7.376378510321876 7.910129797971733 10.573500974082148 -0.980802579590472 -0.19252240494487488 0.6613643519569384
P 6.383286750499665 7.404879431905519 6.672061097860812 -0.1487401176526019 -1.8561102253702226 0.3886469254187113
P 3.401633297654476 9.11027127756455 8.237654436793717 1.4687750767843994 1.1047318088469813 -0.11377337176942985
P 1.3884445045277698 3.349025501393665 2.5056936362422166 -0.9756272060371197 -0.9728249607016342 -0.09177347045957097
