# total energy = -381173.6705739992 ev
CRYSTAL
PRIMVEC
9.17488360435767 0.00000000000000 0.00000000000000

0.00000000000000 9.17488360435767 0.00000000000000

0.00000000000000 0.00000000000000 13.42836956642535

PRIMCOORD
 96 1
Ni 6.898264558556489 0.9995668506491803 7.800862066187007 0.490273120302646 -0.24512049075656492 -0.16656840408327442
Ni 0.5442944548184626 2.969267525889837 5.364257995385786 0.0701746612428727 -0.5770128849930514 0.23500602803038237
Ni 2.4259951530859722 2.0795882541350195 3.2450727793243823 -0.23150238575249807 0.37727365058476314 1.1978430242813694
Ni 0.626476638205828 8.232127462023152 8.351035786310263 -0.1611415766407483 3.115317511691686 -0.6857844326725157
Ni 2.3148781398113933 7.609088652640212 1.043185163984881 0.6007729635271266 -0.9019224201538015 -0.6070449125787674
Ni 1.3974173210170726 1.0500287095386347 9.823711923675068 -0.4107159894036087 -0.44010395564742266 -0.3642780096560436
Ni 6.098288122140253 3.007545139578347 4.727632101124772 0.6191023579639338 -0.4914206036435278 0.2856873564353338
Ni 5.350406673864801 7.866398258559257 7.106481198194499 -0.3702838495304913 -1.5918535280048394 0.7247183907335518
Ni 6.17438460534555 0.45174281817348616 3.159520661251545 2.101698914012458 0.6187300622261795 -0.8962806484869918
Ni 1.8595470247266954 4.846760622614309 4.6199364018828994 -1.328797021595144 0.9131763958010659 -1.3263097363969159
Ni 7.971551597601445 6.460576744316231 12.126260855127253 -0.6560791922985991 -0.2559867440471075 1.616430446013255
Ni 7.771511614080214 2.656743471462295 13.206761187528372 0.824700108035528 -2.1517765473951393 0.05363681148884957
Ni 4.95602430943513 0.3154921292185857 8.94227353222107 -0.2468205041668072 0.0628120502302144 -0.5294911852630043
Ni 9.136670044941773 0.5181698917272204 12.505222992968651 -0.14997887515570943 0.7729232325735528 -0.5982252574046084
Ni 6.375874220449424 6.896310308384952 4.83256157301116 -0.5277189238539299 -0.7063067209955836 0.20611402758638053
Ni 6.4975698743239185 4.749433459141704 3.25178695902171 1.0605348026147927 0.8882495506523993 0.33093800074301716
Ni 3.2395412421017546 3.7488481964313 11.83191040980666 0.3960082508797889 -0.20037583955102264 -1.66911055001579
Ni 8.139396915151204 8.375732737539105 4.287517530216104 -0.7649209310943664 0.9479101997378254 1.5823836408411909
Ni 2.7999358772236973 2.7883479994459917 0.49800441542665097 0.9633746139220118 -0.27229036630313747 1.6080640763264307
Ni 6.832379720613731 0.15648222441619788 12.366172129589557 0.7066952146832539 -0.234549400108938 0.9095100026930724
Ni 3.331657071783595 8.916059972760515 10.492994898032649 0.8168824117633222 0.5475256741672119 1.4648001512970514
Ni 9.055288828878234 6.274537632915965 8.755068293136285 -0.40732341878229206 -1.6721282537961912 -0.7269866179424382
Ni 6.741227253692507 5.899706945085098 7.729033738755415 -0.25805931030542006 -0.5304656333611316 0.2586198107945804
Ni 1.772422331633194 8.363943012325842 12.247223435815334 0.06823167858388894 -1.3741217136738721 -0.3250720288805434
P 1.104729364574803 6.334449621742899 12.818009449062417 0.5953160541776134 -0.39645999370522694 0.19131861444476084
Ni 4.422669985623901 1.1585308810343957 4.242894567144331 -2.435918927940856 1.591435466630814 1.0492975391380768
P 8.237228697212705 6.376938506927819 3.4265703234245977 -0.21873634433608136 -1.8649231956761625 -0.4291340868994803
Ni 0.09985943130051289 4.398842813344644 13.111969961837046 1.576325864682885 0.058192292070015916 -0.2305968432190932
P 7.571434931025245 2.2444884341023217 2.6253130732809122 -0.67555992673103 0.8953077430507613 0.3177580117176334
P 2.659211515106161 8.934969407518908 8.488206716073638 0.8581208495878189 -0.24333563094200028 -1.0034236594240977
P 0.7712948333118144 6.331752206013172 6.126143068247231 -1.095405646350049 -0.6091228781537188 0.3477229335108399
Ni 1.5592072155000978 0.6039853289546264 1.4078702657139375 -0.14462172460885414 0.7326070494530093 -0.9932786005702958
Ni 3.051079961474794 6.429758310859926 2.986254822568714 -0.08274786992219296 0.18587687460389926 -0.2850906033915993
Ni 7.437197211495861 3.0678791730432655 6.706342511898056 0.5059506789389029 -0.8784767875363516 -0.19553008142294714
Ni 0.835874085341851 3.0692370557915636 1.967564762377118 -0.25643051645274545 -0.0559358919356714 -2.365632680820784
Ni 0.2520716649663195 1.1187761111129404 3.5061339950797725 -1.5569243202278218 1.1036249489360477 -0.253438266593641
Ni 2.119728369160722 6.412748076972463 7.737063596737242 1.120192880597058 -0.17945348757605867 0.6513632748801685
Ni 0.8173674279662296 2.9572759532410164 10.99710978582664 -0.9603062594093335 -0.22423644821870414 2.554752230731697
Ni 6.106701490249639 3.6887894094694147 8.42752403703821 0.6335905242777798 -1.1237883112578002 -0.10548490650839253
Ni 3.367842812049051 9.153487606277114 6.366967243611263 0.2592304477953858 0.16046794761249136 0.8243067292518513
Ni 5.743733926699512 1.336275897809923 0.6130308465326471 0.5929591239096628 0.24344258883350978 0.1886708924092686
Ni 7.247249599752521 7.983625744201176 8.96071046048259 -1.1468112545155347 1.210787500257179 -0.6546321754394274
Ni 5.089986782461479 5.015963822912368 12.804876520914352 2.104921020494181 -1.1961013589999143 0.22896419271167665
Ni 8.397981829867637 0.7033639963631744 1.3473086951398445 -1.4580029258695602 0.189277415645016 -0.038120975241437566
Ni 2.746923400739467 1.9148715718364062 7.785674881637968 -0.7912081469256697 -0.8205290073769739 -0.8611442097951749
Ni 8.991073819720546 7.699222707500212 0.4067005629287593 0.10249008554612672 0.2846154635273937 0.35276152437601177
Ni 8.739241619211866 8.181078410593894 10.695535037289766 0.48865872462767457 0.35673130765703726 0.03692592649207189
Ni 3.924290317464781 6.61849483798992 11.806463870601224 -0.9634327208534569 1.5586572437585287 0.22891328486908316
Ni 4.760819489483852 1.283933187816407 11.615230857688719 1.341050127930884 1.3399512384397503 -0.6178034366468522
Ni 5.193295969933344 4.663061106489827 10.2125434836269 -0.0018586504752935733 0.15670179570183979 2.167830515534208
Ni 1.8950721733848714 7.2014761062980694 10.04452751324526 0.1043623628681751 -0.7184400139240078 0.36888234119727437
Ni 4.889552278952566 2.3942775810530916 6.719166246474382 -0.11822549400351252 0.08179810441441396 0.138628997360529
Ni 3.858616501841015 2.521891034742804 9.691482586129485 0.983425619035616 0.03510121457850729 0.627862620655067
Ni 0.4737799706946826 8.099091652223683 2.6794430505674582 0.6739437312838458 -1.1197804756499876 -0.2701154701390058
Ni 4.183104604267075 4.739175939461993 8.145756026859619 -1.1216823206583908 1.014979482582497 -0.1522509590193378
Ni 4.743478959792748 2.974855029901415 2.8776462224251134 -0.1636417173547827 0.9669255644980639 -1.7041842537904714
P 5.398180291907964 5.1807172047447185 6.214904560545438 -0.0980202227002312 -0.3444288361406004 -0.6370753975025867
Ni 5.846804567202081 7.965936568939564 10.91992332646933 0.308007874309405 0.12594420280400892 1.007265401767691
P 6.001694949342402 3.062392592749467 12.003162361575631 -1.626567534447257 -0.11291436620324426 0.6355646172850151
Ni 8.409799079731204 3.939089404444543 9.032659896375517 0.2943337192564221 -0.3055157040151706 -0.7770889339154682
P 3.02298646839852 5.314716377304806 10.302782132158052 -0.1590193880914229 -0.5308389575401503 -1.5787434729854424
P 2.759181045007887 4.156387343705967 2.6154436511704784 -0.03499554223857844 0.6120084272316297 -0.9558204557238377
P 8.394688046714672 0.9777765024923705 9.51331460722763 0.28452830313022615 -0.6096664093620145 -0.5440066052703598
Ni 7.817532829387396 5.478955965664827 1.103107245183593 -0.7043776222936707 0.4612440800601476 0.5509177305678964
Ni 3.4766385798147144 6.258160465985478 5.713596269594044 0.13204774459858548 1.551269950155522 2.0140492359132733
Ni 7.083597203932303 7.578105071282087 1.9846190357050666 -0.25832696214450995 0.5915558158042329 -0.21602203072871184
Ni 0.8267955381834666 5.715319312703032 2.023333373845056 0.21427676590283096 -0.3429810479504803 0.16902483604356697
Ni 0.5986446293074353 4.380474696708882 7.188421164659196 -0.43068446210573563 0.731256963183018 -0.16158303505354105
Ni 1.7411176293548634 3.5026034999341973 9.155771234763947 0.7149569404714139 1.8751446162938545 -1.390607112923405
Ni 4.2248044494766335 4.922866280703041 4.164889708184669 2.105726290004296 -1.6543056237924736 -0.28575909021353374
Ni 0.13006131259002304 1.7732021967251217 7.3646147086459575 0.34066525533311004 -0.7436946747257386 1.8951737670305877
Ni 1.249453975869758 0.711388349414941 5.464137611429853 -0.7426328091201275 -0.015918213892153234 1.4335267951050665
Ni 6.410481880764155 3.6203172543981426 1.1515001678585797 -1.0904272192988511 0.17240609381097405 0.8186294763614159
Ni 2.8361766667897603 4.0124150728526375 6.46670006152038 0.2888073901215542 -0.4493329304448584 0.37418524146742654
Ni 5.222490449021753 5.785259449123815 1.629881342595637 -0.6627509478918199 0.30301762018366524 -0.36273611909022047
Ni 1.7448334571458142 7.839304827777338 4.956088533619171 0.23030759411344853 -1.6241766656175771 -0.8294435362577843
Ni 8.900875540676505 3.9656690417541336 3.580701942704891 -2.131323164636794 1.44202737637691 -0.14285229141325717
Ni 7.234579085729551 6.030540782860301 10.12885753684463 -1.10933228373347 -1.2497679952854346 -0.28440771839196183
Ni 6.496808358998859 1.931395536901844 9.979668427270472 -0.005499589661990528 0.025648553806039694 0.8759635341961947
Ni 3.8708833209928697 9.109365591840861 13.155545153220604 0.72934946174766 -2.116689730994335 0.9668510025063866
Ni 0.4981126790511775 5.400538236950616 10.804384936867693 0.4010468417449609 -0.4903314843444071 0.37315242932753795
Ni 8.095540972334552 7.5646271675168855 6.846977877646279 0.37123027260416064 0.2591972805646052 -2.0495037200661415
Ni 5.8638698503901505 0.29132456876391083 5.72505111156195 2.2486911957360176 0.6859214724710123 -0.5962285386895538
Ni 2.93095321266759 4.995980926792144 0.2757529565989687 -1.2768674226053882 2.4711420128092088 1.5664286601738313
Ni 4.729661585340472 8.13115786982707 2.124703908447222 -0.5210492251432381 -0.47302410341421114 -1.3922773015369763
Ni 7.792898267365908 4.9599052851279 5.594097082813755 0.3659420276220278 1.353356713212379 -0.6674740643991021
Ni 4.399457530534752 8.104816779486777 4.490110883797142 -0.7552810940117572 -1.3632325775651941 -0.31824086489132286
Ni 2.5032109720702715 1.4427779447169748 12.101753823985504 -0.9137867756915552 -0.11153059848184017 -1.3268370696552956
P 5.644892907460223 7.424306500270465 13.430518244727644 -0.007521762298341884 -0.011712403340921764 -0.15051495016483757
Ni 4.527759100482048 7.0802483714787305 9.442734981431466 -0.7040390080073294 -1.279852473375641 -1.9583658263080403
P 2.7345556578698336 2.1967973900100706 5.382895853594519 1.0706104416832403 -0.16951771651958544 1.079622158263547
Ni 3.7927958880822974 1.1286849852221423 1.7640851150563126 0.9671232823311665 -1.492119922157927 0.318928892097283
P 2.623190922742525 8.603480869032365 3.1291187675031638 0.7301043376358136 0.6222455315786057 -1.0038262941791551
P 7.991286771868939 0.9393520906689096 5.668974224010614 0.509182298502323 0.7322188128756552 0.5805934032554582
P 0.8646281700254057 2.2508007539052213 13.262636227644148 -0.8120726490795046 0.8666450850087463 0.135753732695263
Ni 7.769539014141808 3.750316177780811 11.152314866468764 -0.21649331393817553 1.274921868843243 0.13908562528197338
