# total energy = -381166.0661720944 ev
CRYSTAL
PRIMVEC
9.30363083200652 0.00000000000000 0.00000000000000
0.00000000000000 9.30363083200652 0.00000000000000
0.00000000000000 0.00000000000000 13.61680414806630
PRIMCOORD
 96 1
Ni 2.899141565017175 3.719042624341431 4.2855211577083825 1.5574395693013434 0.9336814577329533 0.22672373341693214
Ni 3.4083385747630626 0.8076816708131697 4.633635106177475 0.6837139232967322 -0.5290103889718438 0.40996342750830045
Ni 7.440857730620051 5.425644811140999 2.4068929792477194 -0.33456145642821733 -0.1887598525786491 1.2080634164577968
Ni 7.730191340568478 4.77408364500967 0.2911571215581216 1.482982221522717 -0.12816435038377927 -1.0077066030701678
Ni 2.169699706616697 8.897778381351387 11.830974025679609 -1.1695328644827665 0.578107660719127 0.04309760252042255
Ni 8.813831721890804 4.328337396376624 6.686000213977921 -1.141976809241369 -2.159565447311939 1.2232000149889193
Ni 8.20409967921451 2.638184028586955 12.101294736007771 -1.805390330417852 0.5355222219484326 1.1059980771539146
Ni 4.602394444778529 9.181111149523012 11.773061715899681 -0.7783660008556789 -0.4574285629687993 -1.3207594960026479
Ni 7.908672191182665 7.406862264182172 0.7911798211084998 1.422376692025518 -0.2937194827111909 -1.1546346072146954
Ni 7.110550931237466 6.360147992956161 12.282493177138242 0.8854696739144169 1.0051954066125397 -0.12039679062321845
Ni 0.08379407991773055 1.8147475896112504 7.703339201752658 -1.152776470960034 -0.9987154553151508 0.713547718828713
Ni 2.3024625161592565 5.61117781379676 13.525421949382723 1.184590273036521 1.6204246547743124 1.8105261089825204
Ni 8.965741403335157 0.42141353300041706 13.524359474761155 0.766771354039544 0.6221540003060639 -0.1598375131173441
Ni 6.275726848331832 0.057578309439172484 6.627734366232848 0.4921489971691202 0.4096222421187978 -0.025139218269788963
Ni 0.9171360944589543 3.6446507935704213 0.00406103478383512 -1.6538453963266035 -0.057313231899172264 0.0467097453517131
Ni 8.197187081632862 2.524763467190084 1.3010150599177805 -0.03984232880791848 0.08302426351203121 -2.0053087707164816
Ni 7.346472397557032 0.8974812443230321 8.676845064027829 -0.2955012572019621 -0.02847188218744774 -0.274336707309205
Ni 5.190142008201208 5.030752207704844 2.3071496852866242 -0.831245879573846 -0.31952024582437877 0.3256960356177874
Ni 5.841442672674009 3.428406506100365 0.5409530922834922 -0.19880952350516728 -0.1864584581389821 -0.8101620623203533
Ni 8.555767614596375 6.45977127008172 9.745587541571565 1.87361609546447 1.097403393506368 0.26293643589206334
Ni 8.512291748514217 2.1747608816966655 3.426532754885097 -0.400159296933685 -0.30751370828180585 -0.13450083412476835
Ni 5.964138953840602 1.666996631072681 10.538153603648658 1.374587083346065 0.2537645395848081 1.1146428973131062
Ni 5.431273507691331 4.035794033849908 4.966279907945346 -2.223837369917131 -0.47961255526500624 -2.1609538430190334
Ni 0.09239621682754487 6.342852543556048 7.241838184957078 -0.16837151873028422 2.0995965229574742 1.2568470136194032
P 2.107904991761639 5.981648386745934 3.438583747681206 0.0028305274702596413 -0.3694860362195443 -0.031721242362680854
Ni 6.234093101120693 4.503199134663408 11.438142176435022 0.22372505579992438 -1.692740530729904 1.5648098936234858
P 4.489606530266654 1.8774354530098323 9.137338497622746 -0.9654615783580275 0.40303996091558975 0.8951997567179872
Ni 3.149325497141139 6.930190747229613 11.893978212520688 1.2841338743598143 -0.1006715442801492 -0.7996722185326227
P 2.749148431489134 4.559272116661517 8.800649407606231 0.5458048348213632 0.7797973339855666 0.12650573173443375
P 9.28563744000729 -0.007268926635991704 2.1412836274866454 -0.173217791078992 0.16531036330645724 -0.08207989732089091
P 7.364260939382216 5.46587371012222 8.215903195435018 0.5056925401815098 -1.2686524908947634 0.5916782003147101
Ni 6.284230366756631 2.9692258147918142 2.7164843145989472 0.8403648111559785 -0.42472207387471367 1.3908757932037594
Ni 6.11782562874134 5.382261981365459 6.507184432659912 1.6582201283555311 1.3054251796384226 1.0188582488116131
Ni 1.880459132974887 6.367525772070896 9.79745342178445 -0.19110752687521926 -0.023190322073534258 1.2324945529169677
Ni 2.814050558985203 4.567040648264042 1.8007949347078882 -0.15399493829363803 -0.0821778563513359 1.8444464158790492
Ni 4.521434250760354 6.193380413345063 8.30743510497409 -0.7226478813577684 -3.3035875691181102 -0.952569809997024
Ni 1.949026890951668 1.664456739902035 9.540558780864197 1.0946410002698825 0.3585915007942276 -1.5849714561730253
Ni 0.7259902114249849 2.6958758423202003 10.979160582822631 1.0565418794053159 0.7888679288282672 0.27511960822181647
Ni 8.105267210695196 1.8606051851428043 5.636703254880219 0.14107000270185382 0.013369479328370524 0.49393514253526544
Ni 4.09106690361111 6.086435178888741 5.722897671508671 -0.6967823264449161 -0.10995836889871385 -0.6243970307039698
Ni 5.728115147583756 1.7957588794307062 5.181343564684433 -0.23548373899774927 -0.21658304543850443 -1.6960860501633694
Ni 4.7886624342565645 1.1603209052361159 0.4502817685806278 1.2648847963222152 -0.5984887954786403 0.05771792353675866
Ni 1.9940564633543298 5.123835032475222 6.215457928905294 -0.6283454738287565 0.4010067325356449 -0.40392287774117536
Ni 8.03552719525504 3.079027263861281 9.44099318624874 -0.9153721179008042 -0.5109645872137265 0.49959105526946224
Ni 0.5180875592062149 4.391574173984247 9.114911165549636 1.364758013070785 0.3193181571159017 -0.9583385941600012
Ni 0.1624004553784933 4.246586393752205 2.423382734232529 0.10958967270538544 0.4920741780671267 0.4241296917063534
Ni 2.2338482400291673 7.0978049572309265 7.65493148105673 1.020029900522211 -0.46933611303966266 -0.7045596563974897
Ni 1.6978846848695481 3.2324348298421683 7.392263006947822 1.45301267174382 0.3695541704533184 0.30958267499569264
Ni 1.0394388320485566 0.9376198980868347 4.05941409137385 -0.4282794522086688 -0.24789831061201822 0.6846624032529305
Ni 5.865362307105259 8.306625689106522 13.367807281616612 -0.008765662007771999 -0.6491804082962368 1.7017309071539726
Ni 9.251158184775004 7.594460672844833 12.054479796881127 0.04303692448581621 0.5040233800092029 -1.1808038094108955
Ni 2.867220808216858 8.917864919950013 9.548865062318969 0.40704676808213774 -0.7625979393881448 0.6162672025079838
Ni 6.053137484750491 8.904328137337227 4.070022091054329 -0.45888380735808715 0.45816569824514 0.7458639144629154
Ni 2.5046211068074884 0.6589473185136578 0.6510317895466775 -1.467962351075117 -0.5880642577112066 1.4016003787101152
Ni 4.000617006317994 7.1593949922114275 2.673754599695859 0.3115282287578377 -0.9349374416272415 -0.388154302053009
Ni 6.9677588078415855 0.3024294004678458 1.4832648113130258 0.733300475975608 1.1796043897861554 0.3718537651207725
P 0.29959551456828987 6.080964644059657 13.424507328321317 -1.8199173203894337 -1.294364808059203 0.5005382496740799
Ni 7.299033184812989 7.748566011125349 8.387433303581844 0.11121743811679556 1.508023480762061 -2.229441089257154
P 4.420471250819509 7.442299793372614 10.04207936495111 -1.0003779306192384 0.07665024166488735 3.064889436948121
Ni 3.0395519589636577 2.7523581840674236 0.1206364573380904 0.33576447559738304 1.731167724357851 0.8837215808750587
P 0.8614175807890572 8.352278604763518 8.93531946143444 -1.020435363490746 -0.15623565469869868 0.11359133766561083
P 1.7079791241375004 1.7310521281785338 5.9425498788901105 -0.17959284136740036 -0.9257154088083411 -0.427451814101051
P 3.8810746559457203 0.15310333725824943 2.3578861047371773 1.0423272784678308 0.22588915333077872 0.27150797961115825
Ni 3.4509305959323577 7.961758707738365 0.2938533137238843 1.7792162431256453 -0.5221388586629911 0.6842471700923829
Ni 3.6438506813335145 2.1072351303539962 11.617557111567644 -0.13124170375752237 0.036248697919389186 -1.4037107401848985
Ni 4.060141635291596 5.1560814163487 10.664299671064612 1.138240482127388 -0.062307085569337846 -1.4939680311102594
Ni 8.680547909031189 8.333327109105621 4.037355183074943 -0.7287470522769708 0.23643890382216695 0.09451092399539206
Ni 9.225508075040679 9.17505448596224 6.198165270594379 0.24567662037035107 -0.9565143964670688 0.8416755595476021
Ni 2.197740849431082 4.551112832571199 11.675660145776137 -0.9199031730019382 -1.656649955654934 -1.4114795854970401
Ni 2.159000531355734 8.395484665556486 3.146720480555861 -1.7274329399057669 0.3613029861881197 -1.15971484995108
Ni 4.055517730852727 3.9083063828925373 7.029103226972618 0.3765339442052612 0.2611168661848213 0.40421855460472317
Ni 6.546667180462063 2.919339747183741 7.021205374903895 0.0899184195287032 0.24968882685353772 1.055468443835479
Ni 4.8549414990905655 8.32019038261129 8.227681591852738 0.13964175489575947 3.101903038057993 -1.825515126192185
Ni 4.00321271927261 2.4682532145508755 2.6327683851787747 0.2799142013969824 -0.618541086143825 -0.5611813172774335
Ni 5.2146291641028215 6.081011162212965 0.14125237252136702 -0.3724011529838102 -0.5740005805292888 0.3767218918463512
Ni 5.942954586823895 6.380727623979857 4.1135956452584335 0.5229495274897445 -0.4147418227335502 1.7724236456838443
Ni 6.299171997599333 7.558446318553366 2.2579251058185985 -0.990425704502533 -0.5897053928590553 -0.8296885623890549
Ni 6.29625996120222 6.456505695719461 9.992051882156979 -0.832249895358328 -0.7166584965435527 0.7928330841236023
Ni 2.4622337655127513 9.29195460522659 7.210056982616687 -0.6612604793892224 1.3560759119157548 -1.1512716042797333
Ni 1.8181899329560818 7.317352033585889 5.210864915137094 -0.11523838635073057 0.1544803625704888 0.2488982126314423
Ni 6.968605438231801 8.551953126025074 11.461318450776398 0.6532628058957266 0.4121110699789225 -1.8523975524053258
Ni 9.099369450529254 4.886238912636548 11.198786740038218 -0.4803471194381856 -0.1507093255638308 2.950392813859422
Ni 1.5925024603643927 2.475100686717892 2.346052816898552 0.24136693725140368 -0.5203180034041683 -0.3669347305526003
Ni 0.07027311347707173 6.629478796981918 2.5869070681949564 1.5075200587630813 0.31231241522202985 0.0028804068715885876
Ni 0.7744770129815373 3.5840841579627085 4.8223369254366135 -1.4021981601951143 -0.9365706063552903 -0.3309734819666429
Ni 7.614612336858091 4.063156011625989 4.64859999609683 0.009945541248486097 -0.6855448058578839 -0.7756285473198578
Ni 4.340646099742063 1.4707179350026476 7.131637610132225 -0.06831446810568235 -0.11332291449557257 -0.506728951865824
Ni 1.1650471496122632 7.992256009047441 0.6538070625730646 -0.7773334458261064 -0.9013878878065701 0.3759904129969654
P 3.948237565692583 8.153208819494973 5.91741332956831 -0.07486538185032268 1.3823240469790063 0.5142288597872949
Ni 8.794861618971584 5.950806851102375 5.053373055295718 0.1501681083483801 1.655281871662814 -1.2876616850074145
P 7.204638548119309 7.696186570499938 5.786161429645213 1.0838089426513848 -0.9458402045826743 -0.9379487176497395
Ni 5.780550409993137 3.9914157155935657 9.291630838879563 -0.31310174389254464 -0.5092522325083101 -1.6648327485760424
P 4.3260673104951675 4.266542681521567 12.881524183827441 -0.2676929767404422 0.46952740311486235 -1.565472466908149
P 1.568545611410497 1.429521458432609 12.536010600128296 -0.9257400913986895 2.165303892457613 -0.5312439062880527
P 7.039238602215481 1.0187010393036116 12.759394493768145 -1.9004296161128882 -0.39806873295324346 0.5910526509155691
Ni 8.972840073530039 0.5032380343070643 10.620018110567152 0.45838681311701057 -0.33641265070434323 -0.6404078043099294
