# total energy = -381180.2770628917 ev
CRYSTAL
PRIMVEC
9.07268435503688 0.00000000000000 0.00000000000000

0.00000000000000 9.07268435503688 0.00000000000000

0.00000000000000 0.00000000000000 13.27879063459653

PRIMCOORD
 96 1
Ni 6.85845955594189 6.799414525225318 3.0892445354144815 0.34118718927485114 1.3035408181315162 0.06093360226057894
Ni 7.076176765853626 7.344329028892809 7.3924623419629745 -0.24379482996660592 2.0849746592792413 -3.290907916767913
Ni 7.483984861379009 2.390434620940312 0.72354114514877 1.3265997568335088 0.2908632442093184 1.1873835195109421
Ni 1.698796663562248 5.075232490436123 6.942417271023034 0.7972044737184206 0.36159840594135145 -0.16366999948955682
Ni 3.848986598980921 8.68663270045348 8.787333147508251 0.27993091356753075 1.7278553721551662 0.8442703168579717
Ni 3.9919539613090933 3.463415653161486 3.396209742738467 1.1541124161626382 -1.710309649961919 -0.26714018956076574
Ni 2.5584788832224805 8.986258106018138 11.838997716461282 -0.6964264857673942 -0.5173936306685218 -0.3792410587237791
Ni 4.029850564459542 1.0106698350851233 4.531719716523657 -0.15853807757963018 1.4488320580035692 0.9311692328340608
Ni 0.5012576531289127 1.3990079496766163 2.1105314169386054 -0.38070607330507983 -0.5739794974833663 0.4028777243061127
Ni 0.4349962091621929 0.578713882498395 10.790092867093914 0.30638293711147235 -0.7482498981965888 0.2525070130286232
Ni 2.5102847831661754 5.028617037482565 3.823973207818415 0.618148992911729 2.472925587072193 -1.3823417875908193
Ni 4.141063531042784 4.304680323289659 7.84597317838136 -0.747600437538048 0.3731390595910993 -1.9361982890720655
Ni 1.5032440218804726 8.570475120818527 3.2014364446551173 -0.01465683068122637 -1.039084603160817 0.7313806332450759
Ni 4.048730820901027 0.7520711088229145 0.12963233065220123 0.3904945201504113 -2.7825378297542405 1.157417312166155
Ni 3.1089277244340883 3.3955066096898294 5.652873981626789 0.8083535483567047 -0.2163267064533242 -0.0105921736935495
Ni 5.222708976960075 5.38325012916194 9.41267064837625 1.324328444300829 1.086446123163916 1.673217887315944
Ni 7.222836710772709 4.858712874878195 4.307599913161293 -0.5655969298466259 -0.7969684464482145 -1.4538660208830512
Ni 6.3290230520289255 7.7043331497953265 9.692109330931633 -0.5223301487381907 -0.05205584015497486 -0.14474359489869912
Ni 3.4234686233143647 6.878709787742657 0.1785667617635877 1.2607826012283836 2.020516845915488 -0.5177903518863083
Ni 3.6004313344586087 4.848442596025834 1.3723632898412705 0.13299082523814515 0.079866691719656 0.7133068064625006
Ni 7.29785873889123 -0.036218156518216936 11.457432360847958 -0.5514838874840114 0.14020714048092628 -0.046822616780493556
Ni 1.501638156724229 6.7440892951531515 5.202417918079064 -0.49014147982078815 -0.34472142768035474 -0.8970242115212358
Ni 2.1465154981967594 6.33714310465513 11.612329396023275 -1.113599029429624 -0.26988895595049645 -0.6217295111741357
Ni 3.2867069771832016 4.289320268433611 10.31351745214331 0.054211710155713085 0.7704873694385505 0.535483141180381
P 1.6412032623654442 2.1373157961152285 4.267113058586507 1.2974444754257912 -0.4189851713909365 -0.741655789918839
Ni 5.8212702640675005 4.324485993549996 1.9037141301834284 1.2056231824474204 -1.3809161108878865 0.12682249164390416
P 7.676743116235231 5.437813253736229 1.5182438911619276 0.28562564995946294 -0.044026027871962886 -0.31826991835704543
Ni 6.207839205181776 8.72652529419361 4.588619057356322 -0.23021811972343575 0.9965572713215677 0.11572303929663297
P 5.369051377921708 4.182915824634601 5.555487786219339 -0.8750808744809252 -0.7910219990567925 -1.1203998544015414
P 4.50602133768151 3.0107068420527714 0.5907324676536261 -0.41352363405573295 1.4940852734144139 -0.08876656531244712
P 3.2243050532021655 6.891112147452176 2.3900227210640783 -0.7063892534070608 0.08209480971922636 0.3313668607503196
Ni 1.445423803571205 6.105127343973677 1.0024663137615333 -0.7784145947054271 0.03619830429742798 0.3472326241379826
Ni 8.529339569302095 7.937201742819644 4.561171464942855 -0.5972556944024875 0.0013179474804751496 -0.22509828199836715
Ni 2.316709986705084 4.280329238095547 12.789161818625567 -0.3481119414191424 -0.651028260138253 -0.21938040567798348
Ni 8.406794819780162 5.784117621045932 6.002385542906731 1.1715840905848405 0.803401603668068 0.6839905739968866
Ni 6.36933298925599 0.4280773799635976 7.924955433283499 -2.4598206742591184 0.3357436496617766 0.2120350210565058
Ni 6.496023955593761 9.032918922394186 0.5929017465172296 0.5192098579416543 -1.8647311342700144 -0.849943198873033
Ni 7.930533319713208 2.4774870287039126 11.518368139014028 0.36141971427164205 -0.020191644456526516 -0.8077125723385962
Ni 5.665945905452301 6.6431556801067675 1.0345627497120584 0.7606914663940513 -0.6323980466315754 -1.206248217625929
Ni 8.105391168053789 0.8012740913954582 6.519939551931942 0.21666274963650425 0.49138152287547626 -0.7804784192129913
Ni 7.791349266820933 4.608451945670154 10.12750836728556 -0.8773802120380632 -0.35133096257707236 0.329869964489819
Ni 8.416275775081148 3.425464613904046 2.8151306113913 -0.5149135445591455 1.1828447511003242 -0.9914446326853507
Ni 3.305478361410705 1.3725701470478378 7.18174107906807 -0.12064593051954708 -0.2701306396476574 -1.3351856987303068
Ni 3.1390762550227747 1.4389459068392392 2.437720545278312 -0.7947382715661152 -0.09122274016242353 -0.3761207679272425
Ni 8.438240744252141 8.793753886327876 8.752807953917463 -0.41683932869252727 -0.8450447331301512 1.0797928795134566
Ni 8.58410229293535 1.5646751686201636 4.159076438846208 -0.5672010411089522 -1.1056998291872056 1.6510989439297177
Ni 5.805139031029076 3.564149669148902 10.748543601164348 -0.9082527332472036 -0.6822432522884766 0.11483163783061513
Ni 6.9212788234098594 6.432152256723959 11.72440245309698 -1.2571794572581576 0.5262017158784551 0.3007889879634626
Ni 3.7120344264752885 7.8725044296604745 4.317625229532192 -0.48165144007190597 -1.239678729370233 0.6220362437812772
Ni 1.3202298301756952 0.05463570605027615 5.496251321859847 1.1509111356165211 2.096036059299726 -0.5552037595377599
Ni 2.128959853692063 8.649951837025837 1.0359472413665372 -0.8418061715881954 -0.6894595675312578 -0.3306052999939468
Ni 3.649804883499725 2.401648458980522 12.043770020130486 -1.0717622958994961 1.8894602615855782 -2.230985550926138
Ni 6.793617079830743 4.441441969420822 12.888646525957531 0.8436488812238889 -0.5046409589885439 0.4431447993562755
Ni 4.508135273169673 2.3214368553288294 8.917212255178812 0.07527907234897357 -0.6479089977829809 1.1250548366750495
Ni 5.96695035906074 6.426563483072852 5.428303265844846 0.8257434616983779 2.134892370045291 -0.02964790477341991
Ni 1.677285328616183 7.891176014358493 9.518104314933916 0.7389715582184563 -0.13667598739921621 0.023180808991837495
P 4.702889518615575 8.783982605122937 6.368906573084558 -0.10040903464738192 0.5255687102801464 -0.061933761390319156
Ni 1.379057116464302 2.7770670708460776 10.98570266668803 -0.15413840585003777 0.30826164219142393 -0.04227304973659816
P 7.819129826755497 6.179233030957844 8.723594817100578 0.8866261561163633 -2.570994917842804 2.248413773704915
Ni 4.920597655842814 8.420739535854436 2.3098192828284345 -0.8201024613625166 0.3428620058741127 0.5548011247827025
P 0.11322800981037054 7.948415580859853 6.783948319960637 0.23657440095876672 -0.4448705237981306 -0.38357208199896525
P 6.498165109135419 1.5885454015358522 9.72031358523228 0.7320884579453779 0.33895032952453236 1.426689717578575
P 2.7069261469877772 6.057296151297314 8.74067142386375 0.8165512536761486 -0.14664415435552164 -0.12210837399768647
Ni 3.7576972475564974 5.882365721480745 5.781147224141107 -0.9130390988922533 -0.7642928105920643 0.32988719088099955
Ni 7.7470473484145055 3.320493654255807 5.892051719451398 0.35251032759715417 -0.6624105338332655 -0.1943178062824008
Ni 6.816661698457064 2.9399489756485697 7.962600723073338 -0.08913063352008521 -0.1776722273059198 1.8119540996782988
Ni 1.011667830379964 2.552663292458909 6.381879604649036 -0.525377677315263 -0.6773861813064914 0.4785679160505758
Ni 4.649043136116674 5.324658732670296 12.371264897937793 0.07119564630821933 -1.1236340450681228 -1.347658120165705
Ni 5.5376037105357945 1.5909315175589713 1.6701133715200782 -0.4248683696445909 1.2804839363120528 3.2458094817673775
Ni 2.4929741011429396 7.759250109065057 7.08191070245671 -0.1587774472839459 -0.6112543226744247 0.12158541161468094
Ni 8.74450735486974 0.4170286647812618 0.16730574576398582 1.3772250351895443 0.3199671035538102 -2.1422742643316592
Ni 4.771560667585111 0.615151597981477 10.824644371469748 0.19461142626341968 -0.5563674408285579 -0.5718423965357055
Ni 6.339728819737217 5.114308542571383 7.223157883803957 0.7587101742979643 -0.9527821831181462 1.3823086203600388
Ni 5.583330040408493 2.0994010475957823 6.316468271219831 -0.8386352300593816 -0.46743041137651753 -1.4042306172441106
Ni 4.088387524844196 7.248675716224582 10.816703957996616 -0.004919548788804431 -0.6635317919219024 -1.4874338295361675
Ni 4.754077604556402 6.953196527475762 7.6675452286906 -0.1670851958186929 -0.403146404586467 -0.3440588543956913
Ni 8.489592138513942 7.57103726914261 1.3243388489850891 0.036110372569312 -0.6169146062839956 0.469780656776249
Ni 8.774592376666934 7.089649702333975 10.477656831017303 -0.4914877094360375 0.3398548436166728 -0.017098350243183458
Ni 8.923783600561114 4.138586688174679 7.90227462930557 -1.4509316208450753 0.29490141883443405 -0.7825545850157297
Ni 8.821325774518973 2.1490467771718555 9.12979251112747 -0.44992685527511544 0.4032199381368798 0.3007373087899208
Ni 0.7452003648521617 4.1405282426573695 4.60585443609822 -1.7043704016593484 -0.618069288713729 1.0813759077298601
Ni 0.09665493703686683 5.880805219746994 3.07102567767294 0.3712927504109799 0.24742034253433517 0.274700775516843
Ni 1.1517500790375967 0.6983426712224936 7.885091872133764 1.53868157196755 0.37056589954728436 0.5362925244555538
Ni 1.7034690960790022 3.4673713436028546 1.806393258104368 -0.7251711620002543 1.2441894727563927 1.1306012204145754
Ni 0.8829835952578614 5.162765750478147 9.680158790910141 2.0013315312362887 0.19448981308389085 0.15152667925880356
Ni 0.06262148294590104 5.101053350519 12.120415151505798 -0.29583498639229694 -0.253476318920428 0.2944499331193123
Ni 4.878228219234579 5.661146455352568 3.613623924987952 -1.0590463909947245 0.40015261206546565 -1.0213691881589249
Ni 6.302621540138142 2.513850348174106 3.8162051753507553 -0.1786361338810859 -0.15416334555070224 0.5811703588048507
P 0.20407824330506422 3.115949982235967 -0.19313114218911218 1.3887793156860468 0.36475752039562337 0.19931603082794058
Ni 5.888843618212712 1.8775194754992108 12.472794588355733 0.22697570152673813 0.26160434734420107 -0.4433481736163332
P 0.5614249749179556 7.637476537725501 12.310621260212576 0.2034681053231012 1.0992435320389005 2.0101887245166026
Ni 1.863946739489378 1.7481520672343673 0.3662706240856665 0.3324510949534339 0.5045550841429568 -2.6279834194127063
P 2.584553778471317 1.251050610874241 9.855425817321606 -0.0005867257414054411 -0.23136920260874347 -0.24208401792308631
P 5.283786289004323 7.971142655528724 12.307633625207204 1.011568400018419 0.017089865602751213 1.1445551114915062
P 7.351079106159732 0.39563255292832816 2.619599744152321 0.3322466922521116 -0.18929695602904176 0.5296940453024296
Ni 2.1319992029990775 3.2621109295076294 8.482199715184523 -0.8180085549479653 -1.3850494163299694 0.2540314200929496
