# total energy = -340890.16155862494 ev
CRYSTAL
PRIMVEC
9.10069612936559 0.00000000000000 0.00000000000000
0.00000000000000 9.10069612936559 0.00000000000000
0.00000000000000 0.00000000000000 13.31978869778850
PRIMCOORD
 96 1
Ni 6.478020998950066 1.7121139318763217 11.436210300578972 0.21991905179027288 0.18415037883109575 0.26641411002801857
Ni 4.659165004101451 0.41977597186811066 5.9439293649276745 -0.2601316194534165 -0.57409082625025 1.3018233212197774
Ni 2.773118570943993 1.7603749225781775 4.912111567889029 -0.28766839142110456 -0.1587918454616491 -0.4941991948299295
Ni 3.530078058520376 4.354246185797533 4.742377217656499 0.058038797211287144 0.10414176221693676 0.2163259351223758
Ni 5.115583108133032 4.5692592286642215 2.8006054029667755 0.20559415052716848 0.35635104149948305 -0.5309238039444727
Ni 7.408576262056885 6.114075066617817 2.441064207481537 0.39832070106304945 -1.679707608805346 0.39971012521140836
Ni 4.806832896827891 4.543640769523033 11.273029361510766 -0.15387049690063176 0.5465753944388005 1.032016640570442
Ni 5.687725662054261 7.962098792033931 12.589931009997834 -0.10502622170441912 -1.069902616982938 0.10772202336902738
Ni 1.4414228310963861 6.488386691654085 0.7320772747387545 1.558212442911626 1.2995720632917556 -0.7678275632182002
Ni 2.6866073551016694 1.4061485335364403 0.04771039859597947 -0.4246917348574105 1.2482142776450695 1.967789176504469
Ni 0.7702847266081871 0.10576555829525887 4.762490665808521 0.0951156474589265 -0.19840740297074216 0.7362011945621708
Ni 8.579253388197545 2.293311678282624 1.619686353587218 0.18115735764104285 1.0011142945646305 -1.3346740492012112
Ni 6.775477246562767 0.7641308359967229 4.825013357156969 1.13470521528062 0.20271708608968958 -0.6564859408187146
Ni 0.8695842404203857 7.813193204656264 2.737563061878732 0.10552630126928923 -0.6835663419752743 -0.2192101986487063
Ni 7.6478153575821315 3.8388646726093762 3.975703647207184 0.43043969308478125 0.49564338347562376 -0.7187459752002009
Ni 7.611876709216748 3.885715055436673 12.772092360570431 0.62950812667829 -0.9950315787056604 0.858265088475167
Ni 8.406485775999915 0.0940802646763294 6.82814934459881 -0.045224419055438246 0.32996869485121233 0.2771530937120775
Ni 6.854116360395454 0.7828491474573258 0.5228832168720228 0.3932463718639357 -0.10035195615720136 -0.44922057323671016
Ni 1.936127563052294 6.61995545321862 9.122616811268975 -0.5902329832277512 -0.1929083275293839 -0.1666841037255323
Ni 0.21516411441970512 4.633100610857983 1.326709468528439 -0.7881547048113264 -0.17717728994737228 0.5112227259711195
Ni 6.693316163391666 1.838049362638585 7.058542563646176 -0.43969823556857174 0.17863587677076978 1.8051872132681106
Ni 3.37173504942711 4.315941356481276 0.22279595805586888 -0.2714706986153196 -0.11144163831245968 0.5712423010578613
Ni 5.871423210105733 5.268602210086833 4.8697815007474965 0.26831569792610566 1.5399905205869606 0.06638819761724696
Ni 5.236877183953197 2.86242370044754 9.42428304083504 0.425604476479667 -0.556391609198274 -0.5223059803684746
P 0.21481737790344252 5.588883003179499 12.5030594065953 -0.9213998121521229 -1.1161827309964003 0.8229833824547376
P 4.094184697904598 6.245680230966212 12.667052127743576 -0.44857934010828554 -0.04983723523710127 -0.5951815854822782
P 2.3707039967681185 8.554171870118285 1.3236407138490753 0.3889174054712786 0.3708700610512645 0.7040338658010068
P 6.774530774182418 8.143375554958741 5.991187458934198 -1.2685643020563315 -1.5784555094313784 0.6751310667237277
P 4.87679904740603 0.8612052296455038 12.659593197330745 -0.6861513290936311 1.6331253901704323 -0.36930014546098333
P 4.0096301316947285 6.118561709728511 7.69958375650886 0.3398101064216664 -0.00921071996499059 2.1846889818524438
P 4.6571264482053145 1.1766016792138099 3.880839812608277 0.39193793746515726 0.4739340168229903 -0.981030122220246
P 0.19436629393112298 5.782108979906221 3.513959815896945 1.4889368964442549 -1.2140512586101155 -0.26834423717119593
Ni 1.6001662708121076 1.1756006026576709 2.6897716670886647 0.1225248927098148 0.23046545984755148 -0.7291172911321958
Ni 1.8932996878414825 6.746810054273338 4.662871717567954 -0.12326999840595544 -0.5437063004211216 0.6006894026743849
Ni 5.880842430429403 5.466351232708108 9.2768999998923 1.160368424374679 -0.2615328706763173 -0.2892519338581406
Ni 8.681381398315635 2.441671223902396 10.391606025709644 -0.5849303400679152 1.2340636971763004 0.10222449058956588
Ni 2.18714295915612 5.218921510814453 6.903539509972028 0.22672296208598375 1.8306089957753249 0.2720286280013186
Ni 0.689167493264259 8.785784582424947 8.738873224934686 0.23494277889261472 0.09653438218332407 1.4571022684321615
Ni 1.1823533190636255 0.9961985831016302 11.35085760333298 0.6652690863279833 -0.36528459654368706 -0.03642250449309211
Ni 3.973791590984959 7.004232340336452 1.6037828873885582 0.12926658230902255 0.08757614454877176 -0.4573038644654769
Ni 5.851583692902255 8.028843296240495 8.117425830484429 -0.37536177827403094 -0.04483309715429053 -0.5206869567078128
Ni 5.465432062415653 2.7880255109344962 5.316833168492004 -1.0435768346042158 0.1382844695369167 -1.316092943764914
Ni 0.6012920830967973 7.256631042226942 6.825579308058322 -0.003310552430471718 -1.0896995971042072 0.058390781234067185
Ni 5.249809272919317 4.409296295689203 7.010311605241005 -1.0811023423534993 0.5595224415177719 1.7592020047872479
Ni 7.938801010363791 7.207368974968948 9.252284437446443 2.19381896917817 -0.30553061641350604 -0.2905657675735577
Ni 4.530344652718316 0.09923489887084783 10.510405600765829 0.6261672352305152 0.18216523008026694 -0.40051462339057475
Ni 8.005527313178426 7.2357267435955706 4.409782272853729 0.5624018199480959 0.9464356720748281 1.3749364962656838
Ni 7.168936735909181 6.248683460634628 7.159213552340284 0.5188519603816032 -0.9307987368685197 -1.099626626409932
Ni 2.5159602050638608 5.214389364223933 2.5528444157399974 -0.8477384779122303 -0.1625148028391911 -0.2385513221794795
Ni 2.3214965336859135 5.321067722324472 11.568809260926733 0.9813630800796324 0.0031028072950398176 -0.12751103307049652
Ni 1.022463191656327 3.58836801617555 3.5869255558651134 0.02765915647816527 -0.49670550619155096 0.6713124643085857
Ni 3.653829322251063 2.83423884504425 2.5708128298530926 -0.12878295780438465 -1.0472974779889126 0.13536369634569592
Ni 1.2926264520702984 3.598478889392552 8.362176307486019 -1.991808165126886 -0.9834130206301258 0.026079213585555084
Ni 3.507999770109533 2.7538614982822684 7.151287756224455 0.9649648412272671 0.4981229553643679 -0.1450888940532598
Ni 4.150390596183811 7.0802049502514235 5.746609895155943 0.15938422763000937 -0.12126093839572663 0.9866009314398041
Ni 0.9165856948006996 7.322966015115086 11.549255505576552 -0.37897237844342474 1.2230166953335193 -0.6395004620043115
P 9.082867701503089 5.54009417211168 8.375150259653578 0.7712335035759555 0.9378353320003268 -1.959665776066386
P 8.906323300480027 1.7564707240092363 8.382822146351987 -0.5375780760361968 -0.45594092267967934 -1.3353281378454422
P 1.9075968812023378 3.168716723842158 10.513775588481632 -0.6006690909594107 0.9010379606663192 0.17331343611659183
P 3.9574376403360367 6.335595107099406 3.6921787449775483 0.5226271111533193 -0.30620450255207915 0.5042542650730865
P 6.786834915126961 3.790767494434889 10.752146477611827 -0.05183318262120751 0.882416746020706 -1.291003347786138
P 6.33890776043063 7.741343210013392 10.369482233818976 -1.9636103625364307 -0.28235674940020405 1.186187699430628
P 2.4342723580829335 8.478727100569278 6.339926128309102 -0.9905601731978682 -0.061453479319790935 -2.003890550212717
P 6.954924769598633 4.075755788575679 1.7064114357847164 0.2738528256942509 -0.9636844318529468 -0.45990453531311765
Ni 5.299480871495732 3.014878559251517 0.5740937431361021 0.4681924863535227 -0.9242647924047438 -0.2766447866170913
Ni 1.6467436327604572 1.215343341936382 7.181443822373741 -0.5582823984630837 0.8884732366274312 -0.8278592224898
Ni 7.2567766533623805 0.5036361549758592 9.24754297484873 -0.11443234550966744 0.817213826960812 0.18280054967142068
Ni 2.8947038690350344 1.7108398344412359 9.258984369815801 -0.31440015098899404 -1.2931877570319665 0.37747882461703375
Ni 6.373208283522332 2.150721973904597 2.950306391171774 -0.8203361746398774 0.14263786140960596 -1.789338676271628
Ni 4.179585628839205 6.6736222573236255 9.951600116781162 -0.7221943387601174 1.4545874724301078 1.0437740382166862
Ni 8.203076120488472 7.250697388457828 0.2379113039839685 -0.6653544469529379 -0.1945764592604262 0.29638828779260573
Ni 7.498154412439379 3.977795897209514 8.399871390172628 0.9985632460080027 -1.0429420292336942 0.3715819995166246
Ni 2.9483069682682856 8.439939934366882 12.432810224372654 0.9993993687560531 -1.729266136459764 -0.131278984753361
Ni 0.29457405720061847 4.943234127949788 10.377833032436365 -0.48830339817078483 -0.6139272415208975 0.39017981712346994
Ni 8.61428196696644 2.2468162225979578 5.737232538033711 1.551712179899263 1.3408997183959488 0.3717090120127921
Ni 3.687338084793819 2.4234880333645292 11.508324215404825 0.8224215964139965 0.19740904361321487 -0.04417026675931103
Ni 1.052322575117158 3.2667403200800784 12.552262319329524 0.107631263427434 0.6562601979611535 0.4065981105804933
Ni 3.544657373456143 8.460316392632288 8.20726699098031 -1.566771902445863 -0.6750701315788051 0.18846700392857865
Ni 5.728869908511566 7.849896311482699 3.85802345775468 -0.1999616348317395 -0.38129459881869815 -0.6071349011894125
Ni 3.3907464032977828 8.553371008873375 3.828427084407234 -1.0709907078407943 0.17165327480534956 -0.7056354059601718
Ni 3.327141639199108 4.302718045244279 9.213310706976767 1.0519187788110076 1.1707271419011835 0.006920895489549371
Ni 7.141015800688874 5.937075630796509 11.72812695455784 -0.21000076423529637 0.5062314434041152 -1.140653719554571
Ni 0.4917652071592459 0.028326826260342528 0.4044531300720114 -0.1718869880827104 0.4649616381210509 -0.23685747941682436
Ni 4.5660921864684365 0.26212643580736994 1.3284049281866996 -0.09765821137512214 -0.0271135683873404 1.6972073082520063
Ni 5.746143029452942 5.622974210264009 0.649685033890144 0.5109360479686361 0.2675402532126618 -1.0759529369420762
Ni 7.988991348610204 8.65177683434182 11.496789083269316 0.15676401639834292 0.7021903848343649 0.3298931044182706
Ni 9.020891961982132 5.010497371826351 5.649694763686547 0.8307787101294402 0.06491906927088821 0.4032873010397054
Ni 8.105980795238974 0.10140086451049363 2.5603697812333723 -0.40150938320367624 -1.659349356863968 -0.22046669676362676
P 8.542222656316374 1.7288046082759454 3.6736105950003664 0.8557631479889197 0.8736973638698372 1.5854913332322371
P 1.8425542071412095 3.1263074806457323 1.4450767605262926 -0.18665694730303337 -0.34003173551416926 -0.0546919922262413
P 4.7343458534674765 1.115536009289342 8.117452222502727 1.6441420529959103 0.8376319856058477 0.22744621340525345
P 8.563918715496692 1.7297783827441895 12.569671040640777 -1.1100483359638882 -1.4270964660986907 0.48561093894028623
P 6.619982755306515 7.851916665986907 1.7002975882354978 -2.0248339852336033 1.573666315572851 -1.3612137473629524
P 1.897112879450775 3.476129132840459 5.897296488733939 -1.8051072519597946 -1.4145057739178735 -0.9781839110207023
P 7.135355167798707 4.01349792747981 6.195086731888552 0.6778284110502327 -0.4368186000279316 -0.5426608898757428
P 2.3435111172250025 8.592886230752963 10.271808104306107 0.391921482404925 -0.7997256974783775 -0.7699170987573772
