# total energy = -340871.00920555386 ev
CRYSTAL
PRIMVEC
9.20765182263647 0.00000000000000 0.00000000000000

0.00000000000000 9.20765182263647 0.00000000000000

0.00000000000000 0.00000000000000 13.47632916614114

PRIMCOORD
 96 1
Ni 4.755807335902473 5.270505856867597 1.9717081143210025 0.46185497417126914 2.1195230866780723 -0.1597801775168474
Ni 3.531990728860531 4.918221103792844 3.7755018096411574 0.30555195656974476 1.0572322206041211 2.976047795423365
Ni 2.3327677594417633 2.779679548777605 5.816356625743798 -1.4557028169814734 -0.7686276905219923 0.9256477887951994
Ni 4.410916327122519 0.7214572600861092 4.232510709803496 0.6021294775550211 0.15657246921282714 -0.14607594055687748
Ni 0.9120970841853312 1.6347725165880058 4.034718381883352 1.6187554946020057 0.2560898452838751 -0.6848639777407753
Ni 2.5188175691811376 7.001562787018141 7.520774898834212 -1.3742811220698719 2.653659484022572 -1.5747286953990944
Ni 8.092669510472357 0.7571129704312916 0.4366572276657072 0.17603006371680652 1.0455797239668574 -1.0930852257469885
Ni 8.445009509457158 8.838240689529387 11.582487353132338 -1.189057050558623 -1.916370455712861 1.6528097559732373
Ni 2.4496496898006477 0.5250654159856902 8.739170040570079 0.37525893414757955 -0.41268082643946347 -1.0814818371801054
Ni 8.36572242088615 8.135696866748319 1.6640298297844258 0.2149776486245975 -2.511034478128772 -1.476748067687547
Ni 7.195052379310688 3.7792898375401367 9.898525719767648 -0.8639192014371507 0.48180133538620895 -0.21678667680887825
Ni 0.8796557650397934 2.1854821632529564 7.863518683243622 -0.16240501673420418 0.1673477054514602 -0.1525540920820534
Ni 4.415630644779975 4.964001547919547 6.733110940146202 0.3865460770256246 0.22447196126827793 -0.317211395185544
Ni 9.029723013756845 4.9920296396173915 2.7120576341133007 -0.6777566772720327 0.463890259433743 -1.196044794730366
Ni 6.576169279646118 6.445439041168455 5.249151471103588 -1.5060108212074064 1.5125679055996337 1.2906557346387322
Ni 7.579370552561789 6.148823750119054 12.476682000166512 -0.29514798762760136 1.0441689596622599 -0.8733075846305862
Ni 3.4046673215025147 8.930326413928253 13.373289051939464 -0.3650999913367067 -0.05842369135453164 -0.12520295376261018
Ni 1.0921103574867599 3.8495073892115443 0.17029091389809273 -0.26285801724564406 2.3165184397926364 -0.4509609529665846
Ni 4.677431804847263 8.2911864805793 6.285238792740687 0.5157368117913892 -0.21797452646939233 -0.6603865614247014
Ni 4.62378802619035 7.294356902622534 3.7128768875407228 -1.1781427176389645 0.5466468711066843 0.9814574395656515
Ni 0.5029974372168909 6.046839800169865 7.711438662827788 -2.2680624011737773 0.06447452553430186 0.707357273747285
Ni 7.329189448907996 1.5386814637106372 11.362701628421961 1.1305515981235625 2.991213704530526 1.12791518894198
Ni 4.398053237732936 6.759005618951015 8.335378604792114 2.2305206954745778 -1.2777433974524381 2.02747013730487
Ni 0.9089959471012858 6.891199874044958 12.325571545472027 -1.3029111549673174 -1.5969422553816561 0.16351573329987967
P 3.353749007741318 6.722101351038741 5.379682824305076 0.2656304377844586 0.06216978866052519 0.4305222254962585
P -0.2600010641648811 5.987956867710036 10.632418834205634 -0.07952653477141788 1.1840192310243995 -1.2104763967746637
P 0.6889708234473653 8.697952908613367 3.4986709997452246 -0.35055268965015113 -1.1596546861371062 0.5901717909725126
P -0.0004419672803865177 3.253744702902194 6.067016527284676 0.7385439837627344 -0.5157242133858989 -1.938726454810558
P 6.791388929891002 8.374543351190532 13.172747319229249 -0.5151835103910805 -0.5913773812448396 0.07530401204963805
P 0.9539587517592742 8.86306451844443 12.960630647598745 0.6624069342888398 1.3172998195888215 0.5641558265247252
P 3.3752304590984377 8.140917605247884 10.076938703208011 0.044076421493924094 -0.390775798836256 -0.3777976414090332
P 3.021536935317452 5.504426247663836 0.22048458547248906 -0.6075331650690956 -0.6076262390035342 -0.07568710642066966
Ni 4.5780259973669954 2.711892817148323 5.56912012909558 0.32059779515927367 -0.4813835311225 0.5000836786351646
Ni 8.14889143159819 4.151076396861945 7.684741997562107 -0.6031039256531484 0.6118531326006882 -1.001450594858127
Ni 6.63654385167725 7.166029861231973 9.232578629332917 -0.39835643939699134 0.06437425251101171 1.3244310313169643
Ni 1.2758306313524304 9.004595332336537 10.749555816515906 2.61417402433344 0.9302336083936688 0.39308619213698753
Ni 8.937572835796256 4.204324246496846 11.719811190974266 -0.5725473930225301 -1.3321808504657122 0.9819546909170443
Ni 4.45577600608175 3.749226854822179 0.43216297288327676 -0.6047933975404294 -1.5879909597256394 -0.9077793931552107
Ni 6.462528442676733 4.018716404037858 5.751657219721049 0.6938019036603535 -0.01671628431341637 -0.1125325573837933
Ni 3.802778556962345 2.880549372874153 7.812362812069217 -0.020664213217570865 0.2691006557212462 1.690682619759611
Ni 5.185979614493675 6.302490248918441 13.163516648425343 -0.026352521851599777 -0.18463348911510138 0.44789799777054473
Ni 5.37659641946371 1.3749233786757578 12.663423304546658 0.006827564444794693 -0.46702906217304085 1.324298619504158
Ni 5.173392754654334 8.059300980803174 11.575856923161373 0.9392723215571696 0.9068638233194768 -0.9345299217761777
Ni 6.627428276519279 2.3061392307984754 1.6607961025162645 0.2764331848269175 1.2492748576991002 -0.18647028521352402
Ni 1.4436769137308854 4.06521504499519 4.017657524095265 -1.9890583702958906 -1.273470481108697 2.0205597833382813
Ni 4.12209070938993 4.368984681395848 9.949519536272577 0.6915169642809187 -0.1477651553338423 -0.14584942636836817
Ni 0.31233735628398457 2.636850455999362 1.8358133040189906 -0.8492723980582536 -0.626880716357772 0.5937152853493968
Ni 7.712642102901674 8.48671096389196 7.197761270433391 -1.2349571555248475 -0.5158975057389696 0.7984907966300119
Ni 3.549522097649196 0.8260764399446028 11.213950174086538 -0.4448707809084468 -1.1493484191150916 -0.33921001094382225
Ni 2.7113495656995146 2.044430147247934 0.13431477727463018 1.3662749639359437 0.10881731331573517 0.7990073312551143
Ni 7.971432360871329 1.5904284661225585 8.933579477264932 0.05398750996004895 -0.16352627482284096 -0.3373274492091287
Ni 6.472841012552419 7.030198583726517 2.583923953407909 -0.13925711786283115 -0.9116069944314171 -2.121877188732546
Ni 1.59006016005557 6.439693466523431 4.130912560459478 -0.31087182612076136 1.1672494677652285 -0.715289126999852
Ni 5.439088751380029 1.8155279266144166 9.906785904085039 -0.21662932529540757 0.9553306605716129 -0.3937811613214831
Ni 1.3233144910389572 0.33722195570008046 1.4407277028994727 -0.6469363494570665 0.3044610374984112 -0.33079401896598515
Ni 2.2025255265028614 4.46316975037655 2.0060462097115326 1.0850854953709637 0.21748370287590282 -1.3539910043622683
P 3.0224853234399482 2.5243421601859692 3.7344522569449246 0.03121190682643012 0.24636927556200153 0.11746573301935254
P 5.630607906214187 5.6490324172153 10.813244222384771 0.504509318506686 1.2530505226914486 0.28251435802399083
P 6.289581121270484 5.072034925019026 3.6141220610338576 0.5566985989157316 -0.730365304606684 -0.30242343824309204
P 8.655321481359417 5.885586196390509 0.8161128400673893 -0.6912529119862546 0.014074475815195116 -0.2257621408346112
P 2.491765488560813 4.6428570728086935 8.548076279243293 -0.5711600257567002 0.6551096292964782 -0.7568312121076965
P 7.89732918019319 2.794826135782518 13.19990252554833 -0.15476729768328829 0.7332796500400016 0.8210121176609797
P 3.773581093501811 1.0176296630899568 6.822162743318248 0.1252929423732552 -0.8371992689438034 0.05570346420989116
P 7.11648348757031 6.279001529496233 7.397560866418623 0.8743411681014233 -0.6327636575011103 -0.8793422208604403
Ni 5.951614266549919 3.7252961681195838 11.97762635863157 0.03446898031114709 -0.08858093166420228 -1.2997659244701165
Ni 8.212976687254237 0.7295903788103887 2.9180567419711214 -1.1524196018412474 1.5186506214586037 1.394723963305256
Ni 5.890954257316871 9.330665901093367 1.907668896923331 1.0723371945663596 -2.394566847356631 0.4281789220750626
Ni 1.2001621498895887 6.735065724596745 1.6219978206545005 1.3576070038483006 0.7588140468656802 -0.3524817883520639
Ni 5.107852690033684 3.298991103231763 3.4272592156516057 1.0945530685417666 -1.6218122791504586 -1.2147086896884565
Ni 6.556998948859352 1.5290962983172545 4.783840952191323 0.3177274155900141 -0.013946177767446947 -0.03219458245467358
Ni 6.140647355431903 1.238539642069818 7.370379878674852 -0.3564744544512248 1.1451490363217633 -1.1747468045835383
Ni 8.30238298501576 7.089145969748069 3.746890873592303 1.6643329261214885 1.6760530427718943 -0.029784687461600314
Ni 0.1658473011998733 7.752078475024496 5.737600818674423 1.1366420272920166 -0.9173027592646137 -0.29685160058226945
Ni 6.692065991275808 4.497698444156747 0.49945709514796144 1.7043583174744905 0.47606391868179954 1.6127265147991066
Ni 4.896491045840506 9.00793770989446 8.65703226304058 -0.2315977736797818 -0.171740178092201 0.7859106459721561
Ni 0.7626495313833002 1.9673713103822097 12.49314988518675 -1.3699932933277954 -1.8232057613327182 -1.2915535638626532
Ni 0.35418613314558295 4.168506481482189 9.437324575797808 2.285306532966206 1.428114880060876 -0.32988282000562547
Ni 9.007707518602592 7.875083493747069 9.469493348453776 -1.1976818161131566 -0.1479109368830872 -1.7809157423152555
Ni 8.567765921584513 5.336239282173416 5.094671936661323 1.812258775402911 -1.8763718038327362 2.0309712084795923
Ni 2.0442091636077406 5.216217542593453 6.175176969977267 -0.522120603830546 -1.7579385646937917 -0.2878614812685171
Ni 3.1458678558811846 6.830668771935354 11.964513741881602 0.6959001809502788 0.13691741398606097 -0.13332918241417036
Ni 1.8316229017418257 6.591407943167777 9.799851920595522 0.1840375074023153 -1.021169927663925 0.4943742869552131
Ni 2.3661731197176445 2.5894586728295828 10.151381646232947 -0.25729826376967946 0.5485710847125908 -0.9989795076098149
Ni 2.357656041918529 4.528138940593368 11.708504194717712 -0.1641451393537625 0.22658206563274527 0.1363697690127071
Ni 2.3372150552006525 9.174430467476732 5.49739896790569 -0.34969342697364936 -0.3767506882017576 0.7539307506314499
Ni 2.7891818453059156 8.798040082317563 3.107115612277794 -0.5043851342239958 -1.0068218864723693 -0.6685102189731003
Ni 8.727509470489215 0.894813401226716 5.6626588209287165 -0.08932500891907841 0.9706107266591348 0.6649572115145193
Ni 7.954333751711376 3.2651898139338695 3.819164493882675 -0.10027970815836923 -0.6015010999424028 0.27741483201389644
P 4.54183992628535 1.5218867070559494 1.3961608272634973 -1.5636793795634685 2.0603452907663353 -0.8427417960285873
P 0.2745288969772529 2.3026587384654316 10.371989614237878 -0.7438304289726544 -0.9988740923802023 0.02858655338844109
P 3.8838703452615966 2.8535893687705753 11.737437398575182 0.6861955520680052 0.9666946794341802 0.3546769962311698
P 6.516531319748961 8.600121609569477 4.590792406413994 -0.07356568920229266 -0.0039803248039866936 -0.3966415135884137
P 0.6335665417902454 9.1090653482379 7.3384808902129555 0.4878382856089082 0.3946545650653719 1.273782098811845
P 6.880914927124295 0.04822967947217874 10.032668313955961 -1.2403500444056443 -1.925794063019606 -1.9256246273212771
P 6.146402137728603 3.412825300886316 7.892183023672189 -1.510486854700889 -0.8141377591386495 0.7330760186696277
P 4.131279945761299 7.823981026952377 1.5323797469044593 0.9541677506117631 -1.013275869627829 1.2801082981401888
