# total energy = -381162.81705707713 ev
CRYSTAL
PRIMVEC
9.33811376730514 0.00000000000000 0.00000000000000
0.00000000000000 9.33811376730514 0.00000000000000
0.00000000000000 0.00000000000000 13.66727340945542
PRIMCOORD
 96 1
Ni 7.546101881026878 4.472265568951102 5.805174883000212 -1.038420744324573 -0.31802386378451036 1.4151300377654337
Ni 5.470734066578141 8.98328431085825 6.300982043988462 -0.08735657233879794 0.8191557811785312 0.6776021539720395
Ni 6.061528522821548 6.646066442708194 2.5901808387905865 -1.793655044258795 -0.6614265726534414 1.793553485683924
Ni 5.455027358888487 3.547512142966237 4.568832873089189 0.25791712830060093 -1.2095651978143038 0.6192887629431271
Ni 8.18668716093333 8.35964770779884 7.0682761922902335 -1.3475606753558922 0.37254616320210676 1.7489258196722204
Ni 2.981874565745382 5.855389657037281 12.563928082173414 -0.6786591344816442 -0.7735053303292678 -1.2663935196572575
Ni 5.485292186250063 2.457623509618791 10.419942872496168 -1.186169444598183 0.4641239727111039 0.5011853963397757
Ni 0.05535260434078449 8.094062408511398 9.368205103754004 -0.1339400765252919 -0.6519895956102577 -0.5281256723740453
Ni 8.629313762889126 1.2268507508766797 1.1121497632293538 -1.8230437818335572 -0.020354395286635914 -1.644027638905233
Ni 4.761317548633375 7.087105565289888 8.387960869341667 1.5665554155596828 0.05276520751717364 0.8973980499208868
Ni 8.529358591004424 2.7414368073665236 4.4476456314815564 1.5672341867942623 1.0943131846168186 -1.281112056814355
Ni 5.867454500280465 6.680215925479341 6.425026748469479 2.3178996364108793 2.4767770996077987 -1.4436535991264234
Ni 7.4868328716890415 6.598432723371137 0.9238625699125745 0.3213608985775433 0.5493894668488281 -0.9164059584819572
Ni 3.9896438248818726 6.0037442736041955 4.167794495489305 -0.3596063152119871 -1.3056347245460675 -1.1629109882908746
Ni 0.07703757259103244 1.0028854255326325 9.129137246693858 1.8168741626877356 0.6549736179392462 -0.05203552844000071
Ni 0.9168384405878668 2.5848926648520303 1.4789770265059192 2.4513643159616487 0.8735461830039536 0.7475634136525253
Ni 6.6871074535857415 1.810212068403697 12.38133340312989 1.681861421923555 0.6373067967871024 1.433543764385931
Ni 7.879752693007482 6.4268448792585255 9.594398503090174 -0.23078067709512512 0.13255836568641685 0.6082425324312943
Ni 6.891733544907627 8.880611747809644 13.380479847830811 1.259348439885018 -0.6383306100659264 -0.05127936700026653
Ni 1.525287535094092 8.778396752345335 4.570021614996973 -2.0234695007859087 -1.542350793289021 0.5637387935919645
Ni 6.572771586194459 0.3047157320476879 10.753137984515265 0.2880059772661814 -1.0374604372938325 -1.6314539160052806
Ni 3.456007964220143 7.617473086063759 5.5955183496852126 -0.0616599389036422 0.6486816142829473 0.815366232229112
Ni 3.024904594897541 1.9741146447228566 9.431225233471707 -1.2810354379401487 1.0120869915260504 -0.7682679931897285
Ni 5.065796092586345 4.821286916518611 6.7883027270050365 -2.78256174101364 -3.4206437254038704 -1.8989923694457291
P 6.476859817656738 8.339757525052725 8.73811679775596 1.0376607262300968 0.4015458928685665 0.2436084249874127
Ni 5.33203505985136 4.2770056059364245 2.442833804720529 -0.14255584321876094 0.2088345118413371 -1.5641156957699385
P 6.0186012129230075 2.6539853700813754 8.310686108655915 1.4024871521904425 4.484723307947128 -0.48138610222566125
Ni 4.250186542628048 8.866062966251686 10.338239978168064 -0.5581142483163356 0.49612289421520367 -0.11108965428967967
P 3.359423851476919 3.4385550292189744 0.8980202733249696 0.5314107708832203 2.968469211745159 1.22537696803558
P 5.558176165749325 0.8233387068873855 4.376630208586754 -0.38728501207417815 -0.5440713970700243 0.1874529608417675
P 2.8119395678046306 3.4041347411428333 7.407825890862725 -0.10350849950831206 0.32057671211335115 -0.25061056733685866
Ni 5.9940139588523405 4.698668142040097 11.192745574226075 -0.8016077449924388 0.22453752439889071 -0.6684731950875779
Ni 5.161409041477176 0.4700227607072303 0.7462320322530097 -1.6215801085349943 0.566350777293515 -1.502231299560316
Ni 0.7402322940302966 0.19801844188003093 13.328175203888303 0.6388384029402804 -0.2675363965579199 -0.29410540529569995
Ni 1.6771159300561027 1.5276500779273157 7.064286016192855 -0.12816383616314703 0.8996464796354314 0.3872549301671911
Ni 2.2275230433995334 1.1945035241008384 11.524586659720203 0.4256435572477186 -1.7862672364351557 -0.4738411999988678
Ni 8.30979151733804 7.211377185940264 3.1898866571910895 0.8270004740339305 0.8061020333183665 -0.19309781783237068
Ni 5.093511614835391 5.174986659182739 13.537161260620593 0.7916151525561012 0.81309106304169 1.0924473350526736
Ni 3.5018394275618947 8.467054694627862 3.0338066189406727 1.7911644166264573 -0.21792824661248922 -0.003940729815302891
Ni 1.5080213623722296 7.790937891083398 11.106928306884859 0.7303642761654195 1.1128721785659283 1.290969666334725
Ni 2.093801251416263 9.166778250276634 9.242343202295338 0.5354404608679038 -0.17511577943265325 -0.43786863855900077
Ni 1.424818766941298 4.665377765753758 8.692044411073903 0.12841451872137238 -1.7818372256882606 -2.5720549836762028
Ni 8.68952592173746 4.214468256710729 1.2739783444368171 -0.970474972412219 1.322710963302064 1.8438275513481275
Ni 3.3708723791983917 3.7775845948435984 10.910748539644596 -0.12753417299894812 0.8524636513020416 1.198312250608304
Ni 2.7309220910415823 7.410932681378985 0.525767565834558 0.07713180928699619 1.5661378684062899 0.6530188082057206
Ni 7.0792335352171305 2.239783987035988 2.40477071838652 -0.475161204361872 1.0489308998272775 0.6114037037680954
Ni 2.157403145634004 3.007479674238268 12.868817503140857 -1.9702821181296517 3.2676623159764113 -1.0447127479808718
Ni 6.047250546568586 7.349796049248085 10.974957411270083 1.2916517800034142 -1.0063819707214734 -0.47124567135754974
Ni 3.3252650305918072 0.003757657059641622 7.158576688146199 -0.9142891692492705 -1.5620562421377486 0.4617523871551337
Ni 8.990997592993597 1.10750965439999 5.996830334024279 2.268488690077919 -1.5152706492427774 0.7492158616542839
Ni 0.48099691223926516 6.168207136761274 0.7419747860962239 0.850866739128567 0.7577506385981725 0.9602507235810495
Ni 9.009094857858372 3.30426361228382 7.639213149186403 -1.0884670102486866 -1.369430735956106 1.3034639421469938
Ni 8.080942358390134 4.895711684822148 3.6705240520426905 -0.9076536662106238 0.42085487760982354 -1.5371803048316752
Ni 7.842568323197609 2.3784643175348394 9.93226734114891 -0.7486743873285171 0.4000610807929239 0.5674674073964613
Ni 2.6521177472883126 6.914770672060052 8.43941854634752 -2.1448965324458547 0.2013924537409951 1.5236141361114661
Ni 1.306990444926989 5.661623792257054 10.5046255589906 -0.11443774482630613 0.3638802599969927 1.570125392299128
P 6.738158922634103 3.5645822152948274 0.6619247379399817 -0.8138433678266823 0.10384351425022761 -0.7270472959770446
Ni 8.794897199722042 0.5719716199235261 3.3794522383097205 0.33107915430657175 -0.48161390196575116 0.14273350644720578
P 0.5658747653155737 5.518451828940887 12.474120638734817 0.4332941318144409 -0.6829991566178947 -0.8477107099980885
Ni 1.7027583910048498 0.39084022333836566 2.2534465815786366 -0.3075160222746511 0.2329244629110053 -0.6903658813956111
P 8.578915961818337 8.523587636573861 1.4501661434887414 0.625269148896278 -1.1277444676920707 -0.13080384488915536
P 4.365689674264995 0.874235163243923 12.23115785433974 0.36125053568362947 -0.44644043938841177 -0.4647996586218898
P 8.885224776108506 1.45837994853263 11.775175881790751 0.2550830012859155 -1.3211505607934795 -0.466477560544945
Ni 1.116959825732886 4.859694579257939 3.36987133338131 0.2054933632832461 -0.09310530189711708 -0.17159568209453674
Ni 0.9653181930501814 3.083305159636603 10.700436470729231 0.8636289238902416 -0.9977142677441462 -0.507540649133842
Ni 2.3526164180788554 5.594930982316794 6.612199904790196 0.8317621570886321 -0.3921729362940988 -0.3437384949417951
Ni 4.855118903414936 1.1180150326109664 8.557148818165194 -0.20816576790908664 -3.924146714133229 -0.20264046721548326
Ni 8.980398833642969 3.236907796252023 12.977965114413012 0.648651018155328 -1.1087419584476388 -0.08305897340470857
Ni 1.0848180374642815 7.706129140050433 6.81369586031091 1.2128749789138273 0.9710588699401469 0.8549308818956115
Ni 6.6029617086443135 5.081605519529617 8.285497480045883 1.0216712927803757 -1.3833275485428564 1.0989349996595459
Ni 4.375373298447023 7.895412710127312 12.540283977613242 0.17341885134620458 0.2627006657321734 0.8610051131141494
Ni 3.0259504636616557 5.49577888823311 1.7846592533490169 0.3836767258976296 -0.9329762041358126 -0.0719374095702503
Ni 3.117286556356374 3.6387828688631982 5.160215630512409 -0.6071508420290124 0.7520026803708016 1.5436044631904642
Ni 3.0376417823462263 1.4961432814083524 0.39643281979219114 -0.11432255940468053 -4.080734095744392 1.4006395574587425
Ni 6.392125771535495 9.126587007769931 2.5449694262161313 0.9018668843255176 -0.43032630743536854 0.6090097496146221
Ni 8.757834225393717 5.730529735207091 7.3113491664301025 0.6910904182664614 -0.5413203166874484 2.844888881187636
Ni 4.7358711880779 1.664023894276735 2.6029600477521164 -0.4363804840492485 0.2587835900659543 0.8543138171369029
Ni 8.459770965734918 8.42777858728976 11.862127729978756 0.8859710390308678 -0.02794403470843575 -1.498976540068444
Ni 3.0378939114232897 3.1747906621547664 3.02049513748312 -0.7103574940261895 0.20386894030594568 -1.3334648593844582
Ni 7.743481595911682 5.253361449693605 12.700218789308542 -1.2264738006441847 1.390766778429721 1.6384496305968235
Ni 7.385906535951948 8.787613470829099 4.892966279316347 -0.19422807478207196 -0.5714790996590158 -0.5366545357806628
Ni 4.195110346460637 4.4251921364519635 8.86537287962965 -0.2089756654048917 0.37728367788709216 0.2690266079502012
Ni 7.000261105412485 1.7402602566895435 5.603692000839049 -3.1043047055209505 0.973449995880143 1.1258408229114547
Ni 8.77601553328418 6.850729886485942 5.523765215787149 -0.029597254041142575 -0.4938909195608913 -3.453169723056033
Ni 4.806887544784098 2.9114091577631362 13.028657066073709 -0.39203923892971193 0.2326295573784058 -0.38144963633932366
Ni 4.316720604630897 1.9365380741264404 6.384967173369686 0.8482678680531391 0.9036699989725275 -0.33544025948874484
Ni 0.6821632323370029 4.129015175814157 5.876189372083617 0.325859043558213 0.12493015971719776 -1.5513064598204123
Ni 1.5282477172210958 7.344753467706817 2.5757347764862484 -0.9276864164917829 -0.69637429237322 0.7282670273167586
P 1.1770505890996699 2.045233720682674 3.767957933156758 -1.3089203372758749 0.9647668662838482 -0.7251253963639834
Ni 8.439983502242422 4.2169241806836055 10.965458681744568 -0.2939210571990357 1.9743488319998574 -2.3818619981954527
P 1.6124401527323504 6.5009988422570695 4.742202429346381 -0.10547436498543124 0.37762640593849156 -0.07723053964838958
Ni 2.8374512951578637 1.1260271343932042 4.4705109373370195 2.9180717331292128 0.8403005335769465 0.9675066338125143
P 5.448294578719497 7.682821207593014 0.8259533787976729 -1.0899883319892196 -0.6595926047684963 -0.22297300812524823
P 6.064712819683719 5.618341634027831 4.5611933620541665 0.6301915258985598 -0.09105510423630771 -0.28947767671570146
P 4.257881148535465 6.150978316495273 10.589950707725848 -0.5593409216345852 -0.5163063111416141 0.450879706106688
Ni 7.4877106544017815 1.1936724319579255 8.019136183487923 -0.7337805009358201 -1.4315591298557346 -1.3356729227793709
