# total energy = -340887.9251100881 ev
CRYSTAL
PRIMVEC
9.07429891966739 0.00000000000000 0.00000000000000

0.00000000000000 9.07429891966739 0.00000000000000

0.00000000000000 0.00000000000000 13.28115371312431

PRIMCOORD
 96 1
Ni 6.427707115159758 1.8629717370373757 11.352690349445433 0.6632093755854772 0.6477984403470456 0.14391210013633926
Ni 4.457613278212365 0.1571586921263505 6.1106193474167965 0.697458012355702 1.3378868997115538 -1.0187448631622003
Ni 2.7088688172162683 1.2416272603632068 4.602650521710187 0.5997041559429801 0.4179171351377383 0.3534274400947849
Ni 3.5226247302726477 3.93457068280251 4.6630399816764 0.10516223306165114 0.8518180472982426 -0.1813684452105844
Ni 5.3719214986895745 4.330854395226934 2.895450923909178 -1.1754050069928275 -0.2984307721439312 0.8056644315603156
Ni 7.108352135917956 6.0845806463840315 2.746342949871787 0.8786372243736158 0.47415950257023504 -0.378115172649452
Ni 5.193802083261051 4.659598100058792 11.58479186230341 -0.6490076301637984 -0.9166602405846084 0.3028628397733558
Ni 5.101026450098831 8.190562111129179 12.56945675278844 1.7568705284405939 -1.2015760089612402 0.34278872943401606
Ni 1.7667569445472524 6.803138088440327 13.292841721922425 0.35649348061461833 -0.4642193606383876 0.6645774595775974
Ni 2.81312343863653 1.8890603467147409 0.3241811472854996 0.05788093147718419 -0.9979112142463007 0.03454251386155986
Ni 0.6388941709753948 8.860626499232138 4.717093766068097 -0.3872960678177717 0.3088144293711004 -1.4714338545634853
Ni 8.647099169034545 2.4803688936386217 1.1966913316250107 0.48294727606519405 -0.2804446199791557 0.6171827723437178
Ni 7.308376909176448 0.4339139230230564 4.805852207054954 -1.2842865978875946 1.8375440323322612 -1.070492428048137
Ni 0.7830956715336376 7.613373173477639 2.117839758702149 0.9535447723157835 -1.4521297549182346 0.8191303272572344
Ni 7.697764154347029 3.9987985712534284 3.8519863948676454 0.2550503482757672 -1.0544446305566548 -0.051960195117375034
Ni 7.390272457815828 3.9024113670819593 12.82800077298549 0.6783498307713414 -0.029345543041652683 -1.2244685972886977
Ni 8.155417351031636 8.887604390213289 6.77495603797946 0.20703139719432734 0.5576969582732588 2.217430695059839
Ni 6.675090654994309 0.5978538388057183 0.2354081874202137 1.226172724463998 0.3236268117935846 0.43717958291177617
Ni 1.932226787144385 6.765951611063685 9.019523827050378 0.32796040617193195 -2.657771963529049 0.10740526345955696
Ni 0.2157278477095111 5.120381929904682 1.2352180829666422 -0.31682444415977046 -0.4050312803140057 0.7607079214542835
Ni 6.585708809664901 2.0738675205196877 7.0777526921986365 -0.16191367892008243 -1.5627728085887989 3.086332437313246
Ni 3.4508923965336655 4.261563047923852 0.7825439541533301 1.1378753854784853 0.8731139805625415 -0.9665118739994129
Ni 6.107112130846257 5.755591935478682 5.02558817264081 -0.5969535897810364 -0.7386002909219667 -0.1178961356885518
Ni 5.426467110088059 3.28741889972054 9.331644323510771 -0.303233078628581 -1.1400412827815527 0.4037308163350272
P 8.96035304544231 5.753595589694675 12.449461852291186 0.9977654326970558 -0.12940696454162876 -0.26839231680031195
P 3.9002153867195513 6.004581626239457 12.779059448660655 -0.22623316693375878 0.6726733492118544 -0.7804696774622429
P 2.701709195290898 8.479614832055368 1.3146898863382588 -1.9034792015724895 1.1609605494327233 -0.08912394865186586
P 6.298734103213882 7.998849395771371 6.1429855571549625 -0.971322665124495 -1.3188694780687866 0.4892719327316412
P 4.652556444020658 1.3951553254523696 12.43826507473261 -0.453840845617541 -0.6527483281531532 0.2609949958949763
P 3.9554687934414567 6.138826805914914 8.184351660881113 0.6024495798986012 0.6492745106719399 0.9021363359368205
P 4.809369405354414 1.055005226754617 3.8599146099198594 -0.7457345879739028 -0.43366976998630474 1.2598834864528818
P 0.007315699868484146 5.697616239051313 3.654230196363707 1.2803854630609757 0.7448755824077172 0.12262747972595008
Ni 1.5167781551934922 0.9273752110634368 2.499340530596001 -0.37015478015179476 0.519373380102712 -0.5721804966014147
Ni 1.7726280160120367 6.211856764413501 4.987458875596177 0.42441559837788845 0.5597954926735005 -1.514945661803191
Ni 6.0548804656974164 5.8203915047677475 9.64631469799528 -1.4558149170793058 -1.5752567999884226 -1.0471966907449899
Ni 8.595411961826796 2.311913606664496 10.145048153765243 0.150233928589309 0.268662282632247 -0.31592404383268813
Ni 2.571211701109962 5.025609950958454 6.934754443690209 -0.8183751942587648 -0.39712385254147087 0.3910892163116168
Ni 0.4954939310204604 8.67074679227601 8.816481849368332 0.23055416290661584 1.1904580446712079 0.5747716543673586
Ni 1.375200941911317 1.2890949185274843 11.252112633987352 1.3647212462955787 -0.2840873589380656 -0.17741048900410092
Ni 4.069287726026915 6.86287419887723 1.5400827699320694 -0.686550878524895 0.20698486022710808 0.8476173789533338
Ni 5.6019731273993365 7.868723947850182 8.417834282049661 0.5427308238817298 -0.3112479785132575 -1.457475078390548
Ni 5.809311785666509 2.738369363324482 5.173434819114671 -1.6366804545115428 -0.13139005640992857 -3.215519315424269
Ni 0.7973278021138044 7.250709738915697 6.945751586670382 0.1505730570962826 0.004148732061050919 -0.7872473625057086
Ni 5.255380276398652 4.624843534819032 7.382356039352339 0.3280133708970544 0.37911353200697934 -0.5726422667291815
Ni 7.879867187044549 7.117290320450897 9.331816735192117 1.8807915301669864 -0.050000757398159054 -0.7617013957158043
Ni 4.430907616201762 0.30424944949199256 10.370084417407638 0.5514705177475727 0.9627822317536514 -0.418882327264485
Ni 8.064819549633787 7.252878496381051 5.154986769210642 1.2965893265143478 -1.6120109767893205 -2.3810626422226093
Ni 7.302070271358789 6.160269374494955 7.072586693767567 -0.39870868053008757 0.3768856711177251 0.8856722768435262
Ni 2.273964888170325 5.458127339362608 2.6384477196854186 -0.3791140462276116 -0.2610549025986343 0.5623259724048381
Ni 2.2464969850421914 5.397002861175918 11.434741068598026 0.3035997179393804 -0.7139691226368478 -0.1089936909925994
Ni 1.056275628617167 3.0558427887757182 3.8683881903430675 -0.06993580575918923 0.47704402320688166 -0.7207627485199135
Ni 3.6469426268221796 2.601991723379744 2.750022578123673 -0.0476728805959308 -0.3900183518449412 -0.9345875144869905
Ni 1.0150964596725118 3.349732111078616 8.243546035666629 -0.19468341715193568 0.012177515902798381 -0.9845342787187625
Ni 3.9025837787633053 2.8366258730937037 6.764357256726186 -0.30778418833437315 -1.0927980335238727 0.39356698842814797
Ni 3.987192542809133 6.879471091781543 5.9805565121588335 0.8811818451723404 -0.5617387324428003 0.09140143183213291
Ni 0.8080136966376532 7.268849262653107 10.948943026078528 -0.5950175491005881 -0.1844311432963082 1.5130749271430393
P 0.11635338430124569 5.616455708632406 8.108211032679083 1.020182366939675 -0.1510695371167269 0.010616342063265588
P 8.777378880039043 1.4282946654668875 8.071209671002412 -0.8656729509034641 1.341464589760483 -0.011422897124960972
P 1.6439000101396524 3.306202698688243 10.433714309553256 -0.22020161602769817 -0.5156702202195118 -0.8660994969179213
P 4.156863785851699 5.921315858448325 3.976058377913784 -0.6138429093372073 0.6112946889940569 -0.7178067512153832
P 7.172825030442366 3.926911974431137 10.558676481333082 -1.7403123669715965 0.6475037919247623 -0.20235224655110315
P 6.341328862805379 8.029447932060789 10.433315947826356 -1.4011586631870063 -0.3007231677225337 2.1373092070168997
P 2.3570854671771655 8.300615209622078 5.765972933555519 0.49939822253236577 0.32210600427368397 0.3140790202041494
P 6.999324433214114 3.987864040936481 1.5942699465193346 0.4952374062864568 -0.15782151112857984 1.1237790552864193
Ni 5.345805666115155 2.6808836790440966 0.8089792020531912 -0.49783087804524584 0.31099035397649666 -0.866306984943037
Ni 1.4127322426506503 1.128443528709023 6.62142525060059 0.4586542078457843 -0.23769411638550678 1.8855102757988946
Ni 6.887755926785173 0.6959134362862444 9.2337616748611 -0.15470070611141098 0.7057374787556749 -0.8807095335216122
Ni 2.8699285504905494 1.716076984530527 8.851504106429129 -0.7540685617608949 -0.18076140775420482 0.9290398451958838
Ni 6.390475266288026 1.6290907541419273 2.60978654623639 1.5525380182346682 1.2642685028944551 0.6191836048238304
Ni 4.0229362066418775 6.9934896589454025 10.759195803888066 -0.06955116872626087 -0.7148013887301561 -0.9094323553776015
Ni 8.105526855029495 7.436642125798903 0.36916516980849207 -0.21275775815514325 -0.1152378721300983 0.24594761464355064
Ni 7.603300701567422 4.123488514062707 8.274477598730014 0.34546807603839214 -0.7615661556895207 1.210055250076845
Ni 2.931778972598696 8.765137650663473 12.350224410798095 -0.6912721952599643 0.3320317480278282 -0.456700169443207
Ni 0.17884626677988202 4.8016018053948235 10.143892995500225 -0.8607642007479369 1.217413233103813 0.9088525716147314
Ni 8.488616536681436 2.197895039500637 5.8159369313797065 1.301324784316804 1.2787813517986493 -0.9295409532020185
Ni 3.523486788679378 2.963148824304662 11.162823346507931 1.4696063144364433 -1.4343716596038651 1.406417083372468
Ni 1.1852304919650065 3.5569255805614968 12.62640614599685 -1.0230177795059414 -0.15433483813156001 0.3825935201357798
Ni 3.416165054190961 8.272503031263652 8.08075855585928 -1.3466782727509388 1.5344122551682349 -0.5056094935494002
Ni 5.855300333090818 7.995736911208123 3.9417666019239532 -1.6479735109268587 -0.4348884728847543 -1.0405714721189885
Ni 3.091749789990791 8.030427956354755 3.5777175219019304 0.1794313760888716 -0.4701313552474484 0.23131906609709843
Ni 3.230731753753757 4.460762059971686 9.421956284489546 0.6399347213282527 0.41660715807706317 -1.2694495328747621
Ni 6.95920695725459 6.20231060184634 11.812802681163975 0.42265516404335596 0.9262697386499145 -0.33325430758101965
Ni 0.7366461497192035 9.082828859291144 0.018101411681533335 0.33971728959754394 -0.32544766705240724 1.0605723407209477
Ni 4.719379581990786 0.1666041299744095 1.8254150282607913 -0.7896780834343884 0.4274093908988897 -0.5228914205582994
Ni 5.6660104555708735 5.546692497780377 0.79325525671443 1.7362356257990617 -0.4074491457268789 -1.8508250657118837
Ni 8.254635736496788 8.907449882166123 11.125782057915583 -0.7330271677095633 0.1856400760027448 0.44275681988923743
Ni 0.15984831435534913 4.712229034364434 5.843574523899481 -0.32618480232874786 -0.32925624216522004 0.6009020329058231
Ni 8.061135384232392 8.887386607036852 2.5035773208076058 -0.854104015118942 -0.5421587534283437 -0.41616878498806387
P 8.460567878416137 1.6626838091073557 3.4315713990640844 0.921216235386407 0.5907073517610085 0.5357916735597353
P 1.8078635190997616 3.3879712071413697 1.6742226877389164 -1.3885921393759055 -0.5716318231867962 0.37041831822582655
P 4.755803818249897 1.2268633758605723 8.02452603227331 1.054728223235345 -0.23634223034330268 1.1415888297743306
P 8.659939302145316 1.4923410679374418 12.433962042138173 -1.8411502616262807 1.5955906264497681 0.3563867798334249
P 6.236638675032244 7.706929196355426 1.5395510160096022 0.39687419842451005 0.18798415075488917 -0.6219706806506643
P 1.9194048026316484 3.143146619629955 5.878862657921512 -0.7276029113701986 -0.20055375988978363 0.7773085061254419
P 7.108134352741518 4.0255405304601055 6.198394134390079 0.06182628927817738 1.14948134514853 -0.9760259841374352
P 2.3116323033949313 8.679594233818769 10.010443631848663 0.6313130410975127 0.6798341286263517 0.8854449913240687
