# total energy = -340868.2312280287 ev
CRYSTAL
PRIMVEC
9.22412134864068 0.00000000000000 0.00000000000000
0.00000000000000 9.22412134864068 0.00000000000000
0.00000000000000 0.00000000000000 13.50043398220709
PRIMCOORD
 96 1
Ni 4.780474634397198 3.497971263069948 10.791072545151788 -1.1719841542367364 -0.6213608149808073 1.8182754139106365
Ni 4.85769897756059 7.013994131439796 2.290065205172105 0.0073736667562518165 -0.12230583472047325 0.5084472201085115
Ni 8.949537615397084 7.053473370419648 6.614064828513269 0.38103466028909216 0.10163210842120561 -1.2833725707137575
Ni 8.421447449314025 9.12550617661639 7.526951204188663 0.33387445766352175 -0.9534468132853386 2.22444646425604
Ni 0.821336972199919 3.853690275223921 3.9782398949083477 -1.4183367176281896 0.06573950828965454 1.6851832872079362
Ni 0.0538651784922295 5.307531698899476 12.830015661163385 0.125736457668577 -1.0377517432820063 -1.0523682076436005
Ni 0.22257989075505108 1.5049153830754234 5.173744121776188 -0.40603915275322977 -0.17696183150245653 -2.378044167111259
Ni 0.3804101399346425 6.8761580874968224 1.230216439982088 -0.1596462230421444 0.267118592294211 -0.1902778318850723
Ni 6.383553115889346 5.25934488945304 3.3201883171993947 -0.47001128472981635 0.39000061123312835 -0.6912611395163708
Ni -0.07858305622454462 1.797938043045739 2.3836365360271077 1.4948866862697867 0.896438771331411 0.6135575168863046
Ni 1.8768319521566437 7.630820344014952 7.601000604815403 -3.2473755407029166 -1.3911591287721332 -1.546761263651891
Ni 2.8141594819266422 8.902946578928104 11.719537539218084 1.259448198687676 -0.4251262512916678 2.222431233598224
Ni 6.839907290956912 0.8049549328475318 3.921417463141132 -0.7428873483330949 -0.5858600509710362 -0.1628773283849324
Ni 5.738030662083742 3.059751710393594 4.187861740121601 -1.0291442041186534 -0.4953723892024242 0.44423366154508004
Ni 4.769479481858884 1.7514115754255584 9.194983180336049 0.4198508618253414 -0.7439929226924478 0.35543855698754273
Ni 4.093443634935207 4.3085870391328855 5.45788764262454 0.6865315952511855 0.3436065973496211 -1.57835112264303
Ni 2.4805322401831242 4.1890147552787225 13.015971178467618 -0.20868538785798252 3.55748683450857 -0.5259402346869523
Ni 4.685650667875498 5.0561467222831435 12.62187982188463 0.5175070163179346 1.2950813745102534 0.5913624688465041
Ni 3.1678768597678517 1.1682718536808745 7.513180513564125 -0.11844969419917664 -0.4749118073552272 -0.5443364778059528
Ni 2.8268149762912116 5.271815901392468 7.135087472889234 -2.4863775988120405 1.6404787452117102 -2.80138375881615
Ni 0.7403482651515554 1.1081305830853994 11.732619187984726 -0.3508655929048796 -0.5032931867113977 0.5439574971999793
Ni 5.723853187711772 8.586503875086331 10.08821295361283 -0.5438371695720312 0.49183326570091424 -0.6076627486684244
Ni 8.89210823645116 2.9552608647945844 6.879834822229853 0.11274338784301874 1.7482069392283246 -1.7234747265889672
Ni 4.124316768782301 3.631259815233233 7.706155587144916 -0.5714006810125966 -2.3680397476003794 0.3107039330843294
P 1.4282444871874496 0.33712871817266576 3.8496353515193547 0.17768971080741658 -0.13569691131539857 -0.38568295769438093
P 9.152182335291561 0.10994875814676142 9.852778327474057 0.8529665590803891 0.09365448953236773 0.8539988569996453
P 7.660402100886069 3.039209592354311 8.483470440645922 -0.6049852018362614 0.7186565008101881 1.5540603684164656
P 9.045625286530989 3.4077409089342217 0.5921424640914913 -0.16040546980567214 -0.7212934242124031 -1.650215255773184
P 3.0675737652195085 6.031671338178274 0.8665240974135866 0.06650723969361448 -0.21219082990807975 -0.6573953400068613
P 5.918943352296786 1.5006169425696732 11.327633221785128 -1.7166240222157207 0.9811504498481942 1.3354836895867
P 0.4476632080192451 0.25432562647305523 0.5888227028511062 0.7166998913044496 -0.012071586452553405 0.2543399524723039
P 3.643878413112774 0.8143072693899785 0.023013260124026196 -0.06487536051714633 -0.5363783993011407 0.5889458889852114
Ni 1.8155745628890745 7.733946019667928 9.998096978580689 -0.30229462597471163 0.7829618477564774 0.13789957539367217
Ni 8.071023082761554 5.319642970109882 7.796082467691288 -0.38245905144044456 -0.7266678011504388 0.23360580524874605
Ni 0.7387718628287384 6.402647046891283 3.4106953949728305 1.0412296745282776 -1.7086471746578313 2.520633434671117
Ni 2.1193802206087935 7.618579935106946 5.280290101591252 -1.2668586322191344 -1.0895669281810847 -0.3699064115864145
Ni 7.164135153139573 1.1785290765186303 9.707406176464136 1.845117473804145 1.28196180640916 -2.243200604935091
Ni 8.076778934425908 7.402910755997621 9.695781938856099 2.319876814741908 0.3597032458011676 -0.19250697832590719
Ni 7.876292658905562 1.4213632927297466 0.17469655489796967 1.0574314810991208 0.06399732878756721 0.14110188438105375
Ni 4.481050434274541 1.3943919621743524 2.546074233774558 1.024294846446152 -0.6308888090759006 1.0070016065833431
Ni 3.243929739531608 2.2804610501193427 12.032976869178588 -0.3075047094207414 -0.745859029366909 -0.720078063748063
Ni 8.136468223079792 4.7848284196304895 10.22023318910328 0.8723624471084976 0.5072637413233716 -1.034648164656018
Ni 5.288815956869073 9.064968268806865 5.838816178173825 0.7495123098487801 1.0435362111742674 -0.5967234760481013
Ni 7.850418998779749 5.282266830776622 5.1042984800688025 1.0983230771071602 -0.8173421250085602 0.16175787006850853
Ni 3.85317372443353 6.282945625339523 8.798610698566211 -0.1851780487646617 0.9951789029168022 2.024516453993184
Ni 4.1036455130454215 7.468429689285912 6.731761848515889 -1.3547692772891893 -1.1080382475123949 0.04071676099307182
Ni 7.167400492064543 5.196879140300807 0.21825470029765562 -1.0227200457598642 -1.4024768677777977 -0.4286962280311133
Ni 0.578678936704811 2.186679409299681 8.90579037551163 -0.3021452448810409 -0.19086610028837453 1.2515891076545733
Ni 2.4049036699971884 1.030251327312762 10.042972328495871 0.1311208619089419 0.92078634693784 -2.1263241687603056
Ni 5.836747207775885 4.100361725877939 9.03320777449485 2.4170729988789468 0.24389381743831545 -0.7432627293946426
Ni 8.548832563872846 4.658042872953373 2.16133890338252 -1.3164199880870295 -0.36251140467392406 1.3739988149427629
Ni 3.4355608586452573 9.169163942525651 4.310283355032043 1.3586850674038278 0.7420828501539285 -0.7608017667196704
Ni 6.771630345412786 2.3235376963894145 2.034704632294017 0.09149373443562306 -0.12582104696258334 0.36237642175795653
Ni 1.7630247440880895 2.4212303646220334 0.39732717831993414 -1.7971473736827692 -3.140266211217224 0.7380361908883806
Ni 2.577966633020548 7.384305703422303 2.5367855436687843 -0.17195717919901354 0.37539571683575995 0.11287734231772173
Ni 2.867714729944637 5.35498980276661 10.974353989703623 0.6017085879675185 0.38367929700079084 -0.9990409569753697
P 0.8922492491871633 1.0416062205800978 7.082178835771353 2.216516667886002 -0.22254234834573286 0.6304452937805788
P 4.743734959430667 7.059173877356458 11.187026251816558 -0.6211093610916335 -1.3019472483921513 0.03851204003226916
P 2.8914483939388336 3.3570912591121735 9.562289533613033 -0.20968374721550984 -0.8540235395899938 0.30593505094077633
P 7.823272409920472 2.7976021842703727 4.187699395587478 1.1000174340904476 0.7875515240096888 0.19045729488573007
P 5.757899419271266 8.943588057186334 2.1246573403799087 0.216770221748646 0.5398190495515734 -0.17725030927715282
P 6.549024627118214 4.4919717938428 11.47881103471419 -0.19256148571292642 0.5492711961034089 1.6117075866162889
P 6.080171767747447 0.4493945755791792 7.873655482638194 -0.7361456587338869 0.35209072356123233 1.0476394347093636
P 0.7673841645557481 6.038054430088101 10.486300199524338 -1.2236309318787508 -1.843530331822683 0.9632841110907346
Ni 6.089893991552299 2.976033585865291 13.249311929081056 -0.5429899910803875 -0.45742933429974764 -1.4041568265833815
Ni 1.3090688405473363 4.727454385412107 8.646515085572082 -1.244472294104134 -0.13827495645521992 0.655585283381316
Ni 1.556505893265683 4.433527761558608 1.8033470677508288 1.141347660297802 0.19357321480689244 -0.43814811747263255
Ni 6.143716739086746 6.351785242280325 9.395546016062827 -0.5771843775739092 -1.1620751226531405 1.4639923106837756
Ni 7.428590709577038 0.0781126260404389 11.753248012763825 1.8622127387235348 -0.8493932399068339 -0.5029350320410307
Ni 1.002173102206531 3.6498002989597516 10.923754150136364 1.2343346914495 -0.030867121892501678 0.3233074807809529
Ni 3.973262559078084 2.9965019109345183 1.0668028302056498 0.1984256578031873 0.6653338781276477 -0.5461956425018787
Ni 8.198906299868252 2.7723742126325472 11.710317107609614 -1.1387408188025743 0.41686632527572076 0.3818347875928843
Ni 7.9698713690575715 -0.18384411594851147 2.1123182333744537 -0.4888291887672678 0.19619856824488147 -3.198918473642794
Ni 8.748645478541432 8.431298810816473 3.987595921099297 2.2532279072641064 -0.5515049705299341 1.871650744207983
Ni 6.425550539972352 7.585022581974072 7.5261404039301745 0.8514604068485078 -0.4224607886443627 -0.8329849737521396
Ni 2.0281536613773135 2.8555942346129726 6.396343282424266 0.09192413710482233 1.5764047975499367 -1.070773963844298
Ni 6.846963743718498 7.209960587544223 1.0961327685664524 0.26532421939794953 0.7041657633931808 -0.8583136823249152
Ni 3.739034447999725 4.919205418102098 2.6935255017158015 0.7896377171147562 -0.9378582148184623 -0.27640078892708525
Ni 5.689733163182223 6.569391486853615 5.128868771861007 -0.40935279050749507 0.2733136653613293 0.5472225411044963
Ni 2.4391620563455922 0.5685628429222869 1.8665027811730834 -1.4695430652986756 0.007054849964252366 -0.04551289683013452
Ni 6.512404865728025 3.690534018430552 6.687763712532246 -0.7044177315029869 0.24414218600369567 -0.8453514657372926
Ni 7.182537275047237 1.1928818091944828 6.199547577818837 0.006439070757124394 2.291300545766112 -0.7364978998669832
Ni 1.805511046597715 6.769038367339576 12.700033956470726 2.095898248170281 -0.08797415131813881 -0.526965333517357
Ni 7.087316671311488 6.8523598546538285 11.960250207540097 -1.218065264865515 -0.3874351644987973 -0.2500518666199113
Ni 2.8742177354308045 2.9191207577097575 3.745101152550437 0.760713063660606 -1.163805732191002 0.1447137701020282
Ni 9.123818162426364 7.90188037127241 12.773462573736873 -0.9006057582249071 1.1519434335357774 -1.220258158751776
Ni 5.716732166101386 0.13103786657658267 13.304515527567672 0.7056996835392039 1.5938592455809584 1.017544415096196
Ni 4.381725096579438 7.6272875055735305 13.240226169642936 -1.0088697701403335 -1.6672277311707804 0.523914205395859
P 0.6576872249193021 4.981422115980392 6.118126259483521 0.43622776052146806 -0.0664830713238984 0.49306328145327344
P 5.306120408347158 5.530986036349687 7.275438012286858 0.32609455660778675 0.23164919574300752 -0.6048617888845196
P 4.281809415123888 1.7666221513783098 5.612440561521528 -0.7998550239673902 1.642490119214784 -0.9722145808111449
P 7.350305592469094 8.243975356329832 5.484686482112428 -1.0838361963448946 -0.6534219571814102 0.91049704919669
P 8.027761954066344 6.691869368903725 2.857974057897272 -1.4826276663967757 0.36047791918366306 0.04642923799681681
P 5.824211626987656 4.161748252843105 1.6217527149768933 -1.3598022117274065 -0.031813802076487145 -0.501074324683208
P 3.320877359057291 8.517276845052734 8.531018940901376 2.2084593447991643 1.516341513709453 2.6050694909290097
P 3.4632885671437235 6.211311099657857 4.3204225091177095 0.771898133743148 0.8108590883873776 1.2196788892095383
