# total energy = -340871.8427569096 ev
CRYSTAL
PRIMVEC
9.22536844396896 0.00000000000000 0.00000000000000
0.00000000000000 9.22536844396896 0.00000000000000
0.00000000000000 0.00000000000000 13.50225923227949
PRIMCOORD
 96 1
Ni 5.088934688699049 5.671645866379837 9.179173417289418 0.6538811562060157 1.2952798636743046 -0.47608834416183177
Ni 4.34789773634665 7.425296169801737 3.0629201400877855 0.4741533319226479 -1.10676478011661 -0.6987821304837643
Ni 7.439613941756657 6.394102926517539 12.790488209208819 -0.4366411939098028 0.5666037738445855 0.9102576794923742
Ni 5.672116360174747 6.391095456377523 0.884197143701399 -0.9120314835633454 0.1368942740576094 -0.4570794071594967
Ni 4.969659899005 4.720362765282185 2.5544381226542137 1.1111701082731573 1.6219012393198389 0.414213461033906
Ni 4.260653426180618 1.8686168460135344 6.566945741104268 -0.6428508665337832 0.7726303839234823 -1.1147280008277447
Ni 7.229727582383983 0.5158410939080817 12.005425953168746 -0.39897967480328705 -0.27544331010982237 -0.7867850781573095
Ni 2.8336365208488643 1.5233574288660534 4.493213896320563 -0.6700081436748654 0.3562975625537283 0.3288340670261369
Ni 2.230361996719934 5.68197827913081 5.584642338332377 -0.6125735557064805 -0.23505282210791778 1.562837343278147
Ni 1.482212285232713 8.108121046744634 1.2005101220196575 -0.8919136297675477 -2.439333352939044 -0.06774985385146397
Ni 5.38856543310875 3.3716969148558023 8.682357800895918 -0.12061070640623743 -1.9008584761201905 0.16460536681963261
Ni 4.5058360455401 6.5743666275479145 11.792144658177897 0.33007796673556705 -0.15145725947344885 0.1118357884270848
Ni 9.206438071436049 5.752875236265837 4.6155856422293455 0.041210155689722576 0.269828020805574 0.5169362314161291
Ni 7.64049634144634 5.5721041399664415 2.0229895502710455 -0.2626209615341735 1.542066172169067 -0.2383471765884734
Ni 5.784693532317719 9.120291580124807 2.000859736246907 0.21462232216770777 -0.321496138603827 1.1324989516579205
Ni 0.5103824433502684 3.3840127818402213 10.657778583427818 -0.3298897619841609 0.276060374868531 1.7374047064064981
Ni 0.853710990864911 3.69635608408103 3.9373531537395148 -0.017932158998388473 -0.8131746238944318 -0.5166955761602328
Ni 1.8809972905776469 1.2255071805821907 11.055353220421923 0.8193825524773566 0.18515465172589404 1.1561160768562284
Ni 4.130031433197555 2.7586435000875587 1.61851618269196 -1.472003611024026 0.2218643484421018 -0.32923001691297493
Ni 7.860253845143605 1.9444678260479118 9.7178325377138 0.3189003528521927 0.9248777433983942 1.02685849340827
Ni 3.2423480227295545 6.198368282466287 1.311020811612434 -0.5594681912410687 -0.513477069222935 -1.046071061780979
Ni 8.611623210246977 3.6406348581739953 1.7122081029219693 0.4861601265755369 -2.491577140735109 1.3998669409587763
Ni 1.3083971168031692 3.132787546095126 6.245578183369707 1.6092557826416867 -0.5384000577168598 0.5023321083497091
Ni 8.120759801627521 2.2724758040486783 7.3890303235826735 -0.6247554424846531 0.025187555009221135 0.7263057898253298
P 4.267443297416973 2.1366599285845442 10.057198789445815 -1.4875567282672768 -0.4404168589021512 1.2679022429923001
P 1.8002384144865569 1.0765820564402593 6.899370825556076 1.1904775850552336 0.032472004485776335 -0.3580495122478285
P 0.34494575461754046 3.8012762003460483 8.703272633884964 0.47920374986236186 0.2874835291038081 -3.170473330928224
P 5.339440345698987 7.794901334493698 9.73766708004826 -7.250510914826223e-05 -0.25147188689588945 1.0093523662037067
P 8.808640180523573 7.353439774339834 6.445924589147934 1.4056832905302372 0.2480314937557728 0.4327223184713709
P 2.137490211752033 2.511551229442852 2.5835358575272895 -0.952519673485379 -0.9573839435562157 -0.21748241732432222
P 1.2381459354650777 7.008318737720268 3.376051288800855 0.5479542770641982 -0.27972265421146664 -0.1315605205495218
P 6.0632350842732 1.0535186351211223 7.39406645226192 1.4131004089299146 0.22553768352863093 -0.07701379565189317
Ni 3.651566919879266 4.177468278166756 10.588472079826959 1.0861278205925489 0.6189336935965535 0.17847723970571844
Ni 2.8599841733638462 8.289270383153664 10.195475070696276 1.137066773534261 0.4918111542137272 -1.8006543583947634
Ni 2.790969191408461 5.286256096137057 3.435366718286265 -0.04158322275842516 0.1542034547600183 -0.6397426599221047
Ni 4.823004215520871 9.204639124573156 11.768339517229135 -0.6573811989394743 -0.6713885689621598 -0.3563476990653734
Ni 7.349657373243495 4.231150697629179 3.968367920192637 -0.26004034529119086 -0.700531251964387 0.1704811088741193
Ni 7.367665292609477 1.1903677518603537 0.8096118842290155 2.1968757537266232 0.7261247841627753 0.7888201063094673
Ni 3.7590055617523337 4.324050158702662 7.215810191423163 -1.105309278617006 0.03234267799676365 0.3425233915877714
Ni 3.9483285746768653 8.325212418937406 0.5691997029351843 1.051566794788228 0.36580010272752483 -0.6081548578134945
Ni 6.7029959409290045 0.6104629312856786 4.301009800804844 -0.12323914516802001 -0.09071006219206314 0.3935366494108448
Ni 3.4598637618745993 0.8462854917370016 8.429973858863749 0.8874445382526006 -0.9098185350724266 0.9914574882011571
Ni 0.5269899517737525 6.641342803058687 12.31045538324083 0.2632511389190047 -0.6463655645552611 -0.7182651789090404
Ni 8.080112827894675 7.839930358277182 1.0973206848904273 -0.5159615262076855 0.5751982003818158 1.129620601668861
Ni 0.5649698714652546 7.7583688751241855 9.4847028623357 0.6123023043229648 -0.506471070218747 0.9003188231121075
Ni 7.5868784995636105 6.616840224249236 8.379664234135037 -1.878798410996358 1.1103681811971524 0.322088006551555
Ni 5.30697627385017 1.4077266597404283 13.658885986769757 -1.026544047491645 -0.19761935985180806 -0.8148149877113322
Ni 2.1679247025247665 4.481831636631142 12.340983972772545 -0.5551207129056503 1.374868619142226 0.35896996717956886
Ni 8.163214947591788 9.279060172485746 8.185474839312167 -0.8246715687904377 -1.1872205115705166 0.18217988536828625
Ni 1.7196455950289644 4.194415280152057 1.3104958881432105 0.08116098505104732 0.12742310134238055 -0.2661320600112255
Ni 8.668802044381382 4.4428544546018 6.680026618368849 -0.7398701587733257 0.05981157284099377 0.09819274372235347
Ni 4.890330955035696 8.35765804004917 7.490742779210626 0.32555899581929093 0.13328058856442207 2.4511761112102435
Ni 8.065868858887976 7.698883698857867 4.043629399178098 0.5023197670545348 1.2855996602720634 0.14933609936538797
Ni 1.2402585448579109 0.7193490334807355 8.967782400309883 -1.6198502703280813 0.2948857351051502 -0.614490056002903
Ni 2.7291407715361182 5.894973587697304 8.798436922931987 -0.4834640678006125 -0.3085172098456558 -0.10634571184679104
Ni 6.284293364932864 5.077670513726782 11.220283436422482 -0.4203841086209922 -0.9145575924193088 -0.3337685282132768
P 6.2992569126847195 2.9689080995698665 1.890276166242762 1.022260846735259 -0.46192259418441095 0.9381562056748554
P 8.14346343357408 0.24945950020890229 2.740404946508385 -0.7061907642430095 0.04401034414267904 -0.4894017734412862
P 7.843297617789776 2.5736471850024962 12.309847431454857 1.1328987581995005 -0.1613356949294254 -0.5973533963226164
P 3.672545407911153 6.609948873959079 6.917760675179103 -0.34937023930627575 -0.40722443131058256 0.349442744415424
P 8.524978549035245 2.6364442685702425 5.280369388479561 -0.1835857645768774 0.3674669489069865 -1.1741433666715841
P 0.4051560448501323 6.076538065690078 1.0743163059298673 0.16064381106872333 0.05390137800414588 -0.30259750192711116
P 2.090514635209215 0.7309923710994886 -0.23500980548403655 0.372892490797932 -1.1674813812703764 0.7014162256725017
P 8.78988500630685 0.16613228151971307 10.457135120783 1.0248116381815704 0.7777396801255896 0.26535970062157527
Ni 0.873627638979265 -0.0854702717981634 3.7500495739856863 -0.8905311475977242 0.9237649699501898 -1.0010901261949148
Ni 2.533341549905173 8.011097845939288 4.724521561414451 0.9925882593714905 0.09599856428451209 1.160404162708621
Ni 5.848440828843813 0.7330044239753701 9.707665259059471 0.33051993936899204 -0.6486199078070766 -1.1320880893727472
Ni 6.319626526393782 2.637726594795587 5.520681935793293 1.1738299491962236 -0.14587179496587135 1.9857344481289803
Ni 9.024938171022967 4.517727545572247 13.146420455205945 0.9612038315229382 0.43208442777705586 -1.5199515996582147
Ni 0.44103719320159285 1.1565106493638606 1.5500999271540192 1.1247496467298048 0.6050888172936612 -0.2385122414114279
Ni 2.4906649950962416 7.756293167205463 12.363451435284796 -0.17830446157328 1.641510014689702 1.8010199692642983
Ni 0.7044269998872538 2.4063543521220043 12.842822802329353 0.17979030209018712 -0.44267634436028924 1.08469854434519
Ni 7.463277012030092 4.345951183587315 9.138005210234757 1.3236635570233204 0.18108176720810104 0.38193943149154863
Ni 5.833468055723429 2.654406061093587 11.611065434569676 -1.1190009171714856 0.2956843197470456 -0.9434033130064075
Ni 2.2153154206513292 8.124763611568524 7.5134805450207365 -0.7483853953331886 -0.12248426927986647 -0.18239662936478265
Ni 6.8666539786096 8.181425825065379 6.21635959616892 0.12020447210675426 4.042752731404612 0.42085513472013975
Ni 5.057826746023797 2.5802340981312426 3.667969625121436 -0.20663467597654092 -1.0376869514823421 1.1832232174856654
Ni 3.3516870905193192 2.560187372320648 13.02708754569017 -0.5390616025602587 -0.10712552743560905 -1.9582020470366663
Ni 0.06285797100002873 8.842801720181479 12.934246204438413 0.6512375479355816 1.6649422775707134 -1.8348464308954402
Ni 7.094908046720835 6.059803247180912 6.05627638879279 0.28920025468459876 -0.5654655464750842 -3.1102254418807593
Ni 2.7683947146212895 0.41076599145179915 2.0885025823333336 1.4878801730449667 2.045547049411238 1.4185938279443182
Ni 6.885243096192824 3.9646574769708147 0.09864317551880167 -2.51316977930422 0.7383179837948575 -0.14871517795193742
Ni -0.11373772350375044 0.5553598050699966 5.967215603563663 0.02085653173403505 -0.8643313492739049 -0.5726006148579688
Ni 0.47706317983893753 6.076012219684001 8.028888969144871 1.6769159049928217 -0.9579575566714986 -0.9880533476156145
Ni 4.768122498149854 7.635062599383552 5.388832968796051 0.7239714852651983 -0.9359319443300268 -1.7437219068737775
Ni 5.164564259888763 4.780835055980962 5.494933932232609 0.9275023255054349 1.022839087836232 -2.5982833212451126
Ni 2.4523151381267807 2.904884041987942 8.976328781713901 -0.9680679056326231 0.7846405210104809 -0.730786965525135
Ni 7.688062341574929 7.622322365446861 10.723548080735172 -1.424849579046043 -0.8849351415671856 -0.36759884649916047
P 2.482196106787855 6.28281730596844 10.865565248923597 -0.5104912471217337 -1.3737519890392793 0.36996451851785966
P 6.192952991140554 4.837119029368184 7.339153368637907 -0.05469662021193161 -0.9710362442323275 2.1522290615515254
P 4.487163899640127 0.17764185129481522 3.8943085067263303 0.08799754835690651 0.38541890539971685 0.17657513758699914
P 8.427715488648179 5.467248601281117 11.0075418254905 -0.40008087828726585 -0.23750976828884257 -0.27832525964330773
P 3.407546696954269 3.7655740241440236 4.945188686448543 -1.220792433988691 -1.0322796644238414 0.3128307496193451
P 6.160525820765847 8.34593259665052 13.415764314739354 -0.12915242532866145 -0.12162552082399697 -0.1790408255186723
P 4.224582235237488 4.656015819801792 -0.04448749465090972 -0.0655307347129581 0.18559636724900294 0.13707399416858326
P 6.4988477607805315 6.364295760804686 3.6988497011940553 -2.171984389801582 -1.1307254046972655 0.3386173716651459
