# total energy = -340889.24163602386 ev
CRYSTAL
PRIMVEC
9.05879287841915 0.00000000000000 0.00000000000000

0.00000000000000 9.05879287841915 0.00000000000000

0.00000000000000 0.00000000000000 13.25845905438201

PRIMCOORD
 96 1
Ni 6.184202498668207 2.0601688370322013 11.26967757435016 0.5486587593303905 0.863443547352313 0.6126162360189579
Ni 4.533300873639584 0.08409549368496026 6.219914072699516 -0.6054569992663573 0.9861851840586242 -0.3998597634153952
Ni 2.4650968871563728 1.5640549758890159 4.901851528441974 0.867674554714525 -0.25750163802973713 -0.38814530319194446
Ni 3.100752396713714 4.180533353998969 4.8967468985483515 2.126239065245667 -0.10116956696249027 1.031631232206565
Ni 5.165360042349066 4.949679238201272 2.512875679433105 -0.5180860287498561 -0.5461447346592853 0.4554292731505834
Ni 7.3995664117970525 6.052596352981317 2.4250389042112035 -0.8641040637544473 -1.1922454755889338 1.5081926593500734
Ni 4.962497430392004 4.417710674096309 11.604042155873833 0.3398026502224987 -0.03422832505525073 -1.2838001451694794
Ni 5.586693566718761 8.048148819061936 12.534216239767462 0.4746984057928405 -1.4505600964382694 0.6295934873032447
Ni 1.7256547854229107 6.3271049593104625 0.5272915092441333 1.3449623185010966 0.4620213245458043 -0.4496391488313675
Ni 3.0354384986959224 1.7514995220449299 0.17595709066682105 0.009790760838176687 0.3094104110838865 0.3098721812116534
Ni 0.5560495537167103 9.04164477237778 4.772342493350247 0.18589564365697664 0.019639628607798436 -0.5041923014868993
Ni 8.613707387861764 2.230492264290248 1.3488760288771695 0.2636108362512686 0.5986983403862851 -0.363511049583032
Ni 6.83978735297439 0.5364427020010781 4.778574037101487 -0.23891076240142728 1.3100945600896339 -1.1418652233641688
Ni 0.8517358064794187 7.198732969487145 2.710705225961779 0.7253418832501637 -0.22630798603575214 0.1478083498669519
Ni 7.598579036700362 3.4920650808572007 3.8528423853282363 1.2379992847852808 0.3903561948003342 -0.11329231836795327
Ni 7.646137700305549 3.9792197956564754 13.02952568008624 0.35176882144543936 -0.009319734739029112 -1.3012083133435977
Ni 7.626779059519971 -0.1614494335689718 6.90170420359181 0.060847470304675855 0.7005500210174644 0.5064160486110956
Ni 6.892391764318261 0.7101595531422682 0.6717810704318417 -0.14820918484979637 -0.7561498697699558 -2.1939464958949695
Ni 1.6385273136982064 6.802990535533575 9.096934209986905 0.043218958589635245 -1.0421814969185859 0.24317545121505216
Ni 0.1380143359029487 4.822883311633308 1.7084186198530837 0.9339858763472495 -1.3627564092597242 -0.2556825825431274
Ni 6.098968314694643 1.9052181816099651 6.869565417546384 1.5080468778008287 0.17831731708908646 0.837150675094055
Ni 3.7092587034472935 4.552061634082698 0.6250875215646148 0.21760480183479944 0.2731933377333811 -1.4975310658711694
Ni 6.076928271161038 5.650884174396164 4.7281256185077165 -0.20203882907574236 -0.43407728983736854 -0.3089059606436422
Ni 5.535375503990496 3.0580311286066535 9.03125161909126 0.7899061402847944 0.5102783597799793 0.5420111721068859
P 0.24142589404606943 5.556835784767771 12.437111413358041 0.11548135559947208 0.6357425376237761 0.24725476349074835
P 4.095136111750187 6.31274677229823 12.369107959678464 -0.6816462421344259 -0.355305116733472 1.4622640151387591
P 2.3832869269623824 8.453040634013838 1.4695146937970494 0.15436466292823092 -0.7133142626616682 0.1051213525213867
P 6.310101604722474 7.741843849065323 5.679645842385967 -1.491828101949121 -1.3422575179754237 0.49186411893884974
P 4.899864935122238 0.9909866676361024 12.707000035222684 -0.030596641839934404 0.3975388285917024 0.1618943956463728
P 4.1477133467148555 6.0672806565439865 8.07475992957748 -0.40576970114192695 0.07033946895551113 0.05531008542621442
P 4.769074080811437 1.0170850504640159 3.987773108070955 -1.1870330781500589 -0.45058120102966276 -0.35057428691670595
P -0.039080539173169795 5.547858520837725 3.958512300583123 0.4679094078954652 -0.6109344774411607 -0.5526457690025967
Ni 1.8798082670551932 1.3283723566478396 2.240294784268757 -0.7030139091769249 0.07603137713396584 1.5954325036053492
Ni 1.851182480961404 6.27929264949938 4.968183634800571 -0.46368508540147235 0.8937231721724608 -0.8984586299749171
Ni 6.491648876591346 5.644769489075496 8.935472094107638 -0.9528109794735526 0.19779805152151742 0.8543310435280834
Ni 8.471683630147073 2.630718800812307 10.280662100085578 0.6130810914705184 -0.718833906928317 0.5528190613556673
Ni 2.39677546984012 5.154018433428362 6.977808030032485 0.7642416456391548 0.2718026280334416 1.936842607524284
Ni 0.6363086485375188 0.29407106995874555 9.30803488835969 -0.27722045661490324 0.1742179502087322 0.7932832842871435
Ni 1.5929434669817673 1.3360451543761434 11.595384667339076 -1.5376821841687582 -1.0491535573610449 -1.0864615497828838
Ni 4.067225970308742 6.984184514472807 1.4203915766290776 -0.137985193128943 0.12683688982160737 -0.12121774386261705
Ni 5.721850759288171 7.70670479075589 7.966252800333803 -0.9511860422756199 0.21500155988399744 -0.5793525888698215
Ni 5.435656309901751 2.9064956381709237 4.792495590287859 -0.8041521086808473 0.6061859070125819 0.013600878612886254
Ni 0.3318054724820619 7.543302281401532 6.792268548058698 1.6566129317694114 -0.9048897303122415 -0.4675720791607044
Ni 5.141635063304879 4.517565750081068 6.864779657168741 -0.2503138620320463 0.07499419411870312 0.08364827024927529
Ni 8.277399695225078 7.59202047051938 8.919707982411305 -0.7171164100165778 -1.0367726671981887 0.4355916695993659
Ni 4.5844649368856984 0.14881332311890005 10.733743976519483 -1.2882453254250266 -0.02740847391993989 -1.3119370126150116
Ni 7.9576695939022 7.444579554550229 4.368689015410695 0.25521464176777336 -1.1654059867985864 0.45634227188315596
Ni 7.442459796972399 6.043872735257166 6.686970043319585 0.010107777857963237 -0.08260105993168354 0.5983424997087631
Ni 2.5108347333549625 5.022955815325532 2.7484387226057883 -1.8497338895302338 0.5213623855082827 -1.34649289621301
Ni 2.334369444397046 5.454398952758729 11.227806926912152 -0.7930919942119438 -0.5088909925141495 0.6780279286555485
Ni 1.0934506760243463 3.5304471870848544 4.012248155181145 -1.0939478308575998 -1.2297910379428756 -1.1472635115616048
Ni 3.6488365536860354 2.840475154293855 3.023339574674763 0.8852485590425464 -0.6476236053320782 -0.6363637161475427
Ni 1.1800255613719237 3.0566632508534375 8.339531239238203 -0.9726339277367507 0.5354278624624134 0.2841518936274139
Ni 3.7249666506266066 2.495670313759708 7.018988397438737 -0.4840541359761276 0.5550273818608957 -0.39118588979048113
Ni 4.158946250118748 6.821832825114297 5.809697499182448 0.11768324834679733 -0.40729153710309207 0.8604114453942084
Ni 0.6605363905969617 7.664436462302213 11.451490268855913 -0.0038373714682191974 -1.0199476252210498 -0.0749204034579742
P 0.2689981425060905 5.654199692658925 7.918455890470936 -0.4034569938483503 -0.12789335611057973 0.1834628658457679
P 8.244606864320167 1.4448503179117456 8.176040859591089 -0.036396793461479254 1.4827472226937755 -0.016011544936907908
P 1.72546455076849 3.4077095998111986 10.509689224059949 -0.08201047753553618 0.2845187900485293 -1.3855345834965043
P 3.821578678693146 6.160477519624019 3.74308876615845 1.5555894034664823 1.2980738814796742 1.1876064341550256
P 6.973132786930268 4.2655410681458426 10.564698744963282 -0.5720627400766277 -0.8317629284195804 0.0910723306274883
P 6.401269298155353 7.571194305256841 10.033259214373471 -0.7075256810043492 0.4531127092022648 1.3624039110163118
P 2.2752970548028686 8.190100106432089 6.045300401044628 0.7230443454652387 0.7162586900019728 -0.08844492030697026
P 6.827666687849867 3.8177196328463245 1.8098589846246829 0.5777682751018371 0.27981264282211166 -1.0188991293518774
Ni 5.519178381985529 2.8999370719899416 0.17205728025119563 -0.49437582961710996 0.4180238359189316 1.4349588995659028
Ni 1.3429479546936962 0.8263249860453401 7.088409552233403 0.3145575025024647 0.27737189459110295 -0.11630616549361261
Ni 6.52075477871772 0.6607202840962351 9.487806636787303 0.3458524559610044 0.44504741569562706 -2.9984590732390295
Ni 2.7200294416663158 1.5677056694952807 9.28838636619595 -0.20962229784995512 -0.7511699000568611 -0.6828929700573336
Ni 6.3069944387002685 1.821786697456864 2.587666886758277 0.1341766180161302 0.5175790072064506 0.7292964970225375
Ni 4.0782233450928755 6.749380598159193 10.268570423098874 0.8655400248700255 0.6935301380562056 -1.2569418873260547
Ni 8.461528723118231 7.176901278194096 0.6390018277165326 -0.10971308565712717 -0.5040076962799191 -1.4612224612481222
Ni 7.78743675457483 3.810119305462562 8.269207828653999 0.595179271489433 -0.6928873622658841 -1.4967697622251126
Ni 2.769164335265276 8.360459768862405 12.412794895126536 1.766834581631841 -0.5060136709663543 0.8391013710625226
Ni 0.046270503230967444 5.17496236300078 10.035566488967802 -0.28627793883148117 -0.767999055799058 0.5439682958332567
Ni 8.627911575391847 2.0166866303074578 5.836373833008078 -0.32985042410579324 1.0841879232573586 0.2023224217544322
Ni 3.528010371749655 2.4843649400112753 11.123873582288333 2.6668119622441298 1.2091041990174853 1.569437107982852
Ni 1.0912765656881092 3.5204553383312307 12.57921488845173 -0.24164718749598382 0.10194141213150831 0.9724542076257768
Ni 3.0689741506323807 8.3607134150683 8.295088800448287 1.9903097262044884 0.6002546291298113 -1.856770227551725
Ni 5.416660020838879 7.772381040496388 3.4416438386426336 0.5348388227281627 0.15019099116651552 0.4068179399007832
Ni 3.0014317895199465 8.384538040836231 3.927792121532092 0.2507301236338585 0.03211205004319631 -0.7881171667051717
Ni 3.585723942383684 4.204874330971758 9.146493960980738 -1.0881384232646745 0.7181520503699439 0.3235059699450042
Ni 7.462026789998533 6.344470665621158 11.586408309288338 -0.617976986110239 -0.5205167496785358 -0.1873981963444321
Ni 0.6426208155470606 0.05611741129550827 0.27423774841642207 0.1236114409057742 0.5893711494480882 0.07183353700253435
Ni 4.586774929117951 0.3929695373955606 1.7090817235056364 -0.941808714825778 -0.3314090268421648 0.061032075511656174
Ni 5.845901871556637 5.633917054980446 0.23239065384039045 1.3494411802080566 0.8657382569237605 0.6494485743559589
Ni 7.743637490092719 8.945440389999286 11.201197628155223 0.7193607259660643 -0.10248828577391382 1.4645841786315035
Ni 0.348237217227481 4.607166272313242 6.01027186001062 -2.288435565513491 -0.10079752833505222 -0.0022497152661251577
Ni 8.232096671093737 8.817403408781052 2.4391588449657573 -0.228453057403213 0.4506912442449657 0.2582763114122326
P 8.90567228843228 1.552106427832779 3.368722366206626 0.020632588648687045 0.8357393965688251 1.788569145095455
P 2.190470516517349 3.4003810362194655 1.4093606843105944 -2.0498438770143794 -1.0866872926404447 0.06443210233214064
P 4.625537504654446 1.2016941943897541 8.454097795164834 0.7788789359363553 -1.5420736283682346 -0.309879380300505
P 8.557696870324454 1.578195751867625 12.330618959692613 -0.37675248797397054 0.7567396808351547 0.8637947600441445
P 6.536634842965319 7.673132903647161 1.48082369106271 -2.013326755924952 1.2419081329213837 -1.2251879919532254
P 1.7605039623541787 3.049515863123058 6.281354430801578 0.2874264506136276 -0.7326307036020931 -0.7271090024529154
P 7.047306184568225 3.8784588403649507 6.013824718651755 0.1777951260370293 0.08514696628198884 -0.021757189171433496
P 2.3931247762338552 8.47370374100116 10.281153086669844 -0.1163133645824642 0.7404098333268797 1.2471662959965295
