# total energy = -381170.19732167025 ev
CRYSTAL
PRIMVEC
9.21944519415888 0.00000000000000 0.00000000000000

0.00000000000000 9.21944519415888 0.00000000000000

0.00000000000000 0.00000000000000 13.49358995745075

PRIMCOORD
 96 1
Ni 2.77267430352449 5.379914887440665 0.29649366078441386 0.8990453557163226 -0.5060077574290834 0.044204205321040003
Ni 7.126483410483319 5.431027490065972 1.8994389050612286 -0.4590182760534223 0.24555500719082227 -1.3076877504203543
Ni 1.4226894230738578 2.010567328269138 6.973230421500646 -0.7808198617128101 1.3411532291676516 0.8398696166871148
Ni 6.021735764851074 8.735986445930296 12.680951892445169 -0.3113508226397089 0.336310320798524 -0.1949058175753869
Ni 8.672464470445384 9.140166911134735 4.285766837630628 -0.149678056085839 0.26225483644400643 0.8552586975486755
Ni 7.738571578033226 4.084739607027451 12.874652430172022 0.27754672960607035 0.007412490413987234 0.8388933688167746
Ni 8.155760680016943 4.337887125585469 3.6208964259807668 2.0517094694682085 -1.139877503510179 -0.18411361205588936
Ni 2.576963926805515 6.020887575918619 11.310057310920548 0.6987978142130482 -2.4629620481015775 0.9870395616391193
Ni 8.348225812124786 6.4088418180674065 9.41409966826035 -0.7786069132218912 -1.2081973709325 0.0832302088752502
Ni 6.478937257778842 5.100067856400164 8.779900505963639 0.8619463939814961 0.22437708756162644 -0.3223304615796642
Ni 8.508754787036732 7.882616185431815 13.11779316321606 1.4124486342785287 0.6344919530461267 -0.6210695089926336
Ni 1.4946103128790547 9.107225834442778 7.9607721858350455 -1.0498022466886372 -0.29848090865557625 1.9602838692663596
Ni 5.592026656668734 2.3586105933679704 12.527178926769121 2.9747977250663475 -2.178332700617113 0.6649003901346549
Ni 3.1443285670582806 6.10006416887427 2.808960194832693 0.15861212535067523 -1.1174631403707207 -0.67349250267904
Ni 1.4557226942149961 8.372445293924331 3.666977055569837 1.648024161659136 -0.9548593773621491 -1.3911156771287074
Ni 4.118750139329896 1.958542000596952 10.041835077725061 0.8388069797505554 -1.8308344815225694 1.8552864439173467
Ni 3.671560963583059 0.7826331474207521 7.400626370953063 0.03165773611459709 2.060057841432904 0.5559630063012877
Ni 5.3100314949623435 4.658152203146414 12.896336564619121 0.04480121547509058 1.5061851420017414 0.6473703516706915
Ni 3.839078277742837 6.4111558987418205 5.103559260190606 0.5768593901343226 -0.8190837902900152 0.3636198072467544
Ni 2.388555350461584 0.47836933845946095 10.719051248064595 -1.5304419576665773 0.07946251430270186 -2.088207564394242
Ni 5.797426669996511 6.371392432810553 6.437724495106468 -1.3145885913052455 -0.703060446144144 -0.01840652753164572
Ni 2.2727222445120274 3.4954142489800475 1.8174789616848384 -0.19049920386725902 0.7364824732480154 0.20042160518729352
Ni 0.37032942929907614 5.392905085330106 11.467540181231591 -0.8431313181575222 0.9779486550814448 -0.04254841488517188
Ni 5.321334534431792 7.502673640916757 3.7971095205871883 -0.13488829937117414 -1.0060986351530996 0.8851534282255787
P 3.3320180266986084 3.210385889895639 6.317482650597131 -0.35850228351453095 -0.4356544045165013 0.9380271362961587
Ni 7.377381384481348 8.209740530011741 10.88031316884752 0.47185039482108415 -0.7992649557918751 0.15627473546675022
P 1.961372370186773 1.6401023731297677 12.61571049048305 -0.7478104966663249 0.6144612596474966 -0.4246269430577461
Ni 4.94598327348589 0.7449173202057693 1.001761836175899 0.07605451706241739 -0.9002805136750044 0.19607721217566876
P 7.313352339525946 5.492263043211224 11.2639628521641 -0.7582232073592168 0.6247456722926402 -1.6020690350852602
P 5.214748531734974 8.492906561222716 6.809553006149208 -0.08280983350837996 -0.10705096544393176 0.8348353966973171
P 9.178787165896173 6.0141297227937365 0.60370769211946 -0.005046304174655825 -0.6973032319453927 -0.008759234249868785
Ni 2.762403841885855 5.387391857269151 7.092919099314904 -0.6308651549268167 -1.6471759547262275 -0.42428498633729506
Ni 5.569254627721313 7.55128777396929 1.2743024571188974 0.4488932718042785 -0.4415589429263944 1.0153844313303997
Ni 0.38917305276694464 1.589478401085115 9.26386235971035 0.3241726569947256 1.0161061399877727 0.3092358331792352
Ni 2.490199730682363 0.3246775038986924 0.7262212078565886 1.2753612703735069 1.1571874555435362 -0.7273612276730376
Ni 3.699486662239634 3.245456658363652 12.437230334371296 -4.324795291998507 0.25852236598476763 -0.6228034609646048
Ni 5.656940768336264 3.830605607863209 10.651461653481865 0.14465052096426056 0.30242755200815014 -0.2538766396826402
Ni 3.959557983931058 0.7030481330552345 12.288719827854436 0.2694145874172392 -0.1016555054599733 1.2866152460207712
Ni 0.5928029326704679 4.12335064234397 8.528042787749648 -0.5768061682988841 0.7670822004117435 0.12202095649020277
Ni 4.387063644777999 3.891961013792396 3.3269390344932908 -0.8262612818750608 1.4504857915569085 0.6813464515058201
Ni 1.2577258951563612 3.8352061108772837 12.916738274278128 -0.7064864411065575 -0.19298340374169345 2.2109797972281724
Ni 7.700292442733756 7.012263707394409 7.2748122939352955 0.954147438896789 0.45586687490863426 0.474613302278202
Ni 1.4993030103423086 1.3551662084945395 2.3830218396218097 -0.044496025529845946 -0.8481004892373393 2.4514532761310295
Ni 0.5366694203428276 4.46624023773365 6.010341452876936 -0.724044761705295 -0.3659150310388343 -0.5119482912832345
Ni 0.1274496065462175 8.550740139193234 1.660318771945924 0.4366049413552287 0.25544244150786327 0.8922352747730247
Ni 3.875319915715434 7.409059397219543 13.126793185344996 1.784294428979501 0.025893837047626374 -0.7731880561991652
Ni 6.226674805932951 0.8117297155819111 8.243085418391109 -0.2972413798215203 0.02497261078493764 -1.4325798578107651
Ni 6.814488175013805 6.460028176252056 13.101074621801786 -0.2986012362835245 -0.2743544479210178 -0.1730488696012955
Ni 7.507864188405583 2.6385313799678154 6.59456016038427 -0.1720368833970134 -0.2643024630016545 0.7320090108576942
Ni 7.368834959042376 0.2141372812765502 1.1795957091989018 -1.041102404921794 -0.5398982395289411 -0.6079283436249853
Ni 7.136910602685559 1.4098467363031053 10.31667226239713 -0.20577875573414883 -0.7692995197780363 0.4896262307472664
Ni 2.6495578360897247 3.1173248128935036 8.855708313746259 -0.19753194234432433 -0.22935988548819855 -3.472378948994633
Ni 6.099160663272308 5.310289639420048 4.14501449401225 -0.3425830411811132 1.34556909884716 -1.4227114496571176
Ni 0.7496570368381051 6.73240745690899 6.951546287053547 0.2304307499548741 0.7861669849573364 -0.25092732724632916
Ni 8.358579248767683 9.00745300154035 8.8133246815693 -0.307100017783155 -0.9748664166116954 -1.3988693529321972
Ni 2.1345227651914396 7.49232020427386 1.0691983879729883 -1.6461074042523973 -2.510923149361888 0.9111112857419211
P 7.462439983294673 4.549685433686327 5.551816047658946 0.9812484088786393 0.7257128934363373 1.9363001047572526
Ni 6.038008085131316 0.270222852490617 3.177011499292535 0.46824570818896133 1.7445037793451246 0.13314380587624167
P 4.78757477090508 8.934158414442372 10.592440611005914 0.6246677678668533 -0.8309833699410785 -0.6257964821546578
Ni 5.3868018127944 3.912308328726388 5.838946440184654 -1.1942560782610592 -0.8579745538179417 1.0033395843507238
P 3.4573102831340177 4.195465140492446 10.394597776677408 1.0386819684057593 1.0464222744728109 0.9479734488755932
P 4.937390750822329 5.129883541264927 1.4420871351812972 -0.6516059870185938 0.9857151864007411 1.0221065805455818
P 8.61067575060505 0.7402753296895642 6.456817965531614 0.48719139605352874 -0.7819442051252403 0.3604522081520502
Ni 1.8636001568315477 7.95194641121506 12.220861025480104 -1.3509349911447637 0.7808262894707133 0.5497077694201953
Ni 8.315736488233808 3.567049335992787 10.575965462937475 0.2260886709360945 -0.25187966385726945 -0.5308942362581179
Ni 3.1621958513093342 7.820043812773455 7.139768630610134 0.23817131313224144 -2.33058700207056 0.24350378108874837
Ni 4.52346533233958 2.9394448426459108 1.4142499431959346 -0.012602776365675068 -0.14741317131106227 -1.9595994416048252
Ni 3.0165470604950153 7.47517203672641 9.794861821428617 1.5631962692794625 2.0567539738706513 -1.0682622531660377
Ni 3.772928760456298 1.272753590372676 3.2334686141367968 1.3685483333511528 0.7655094566079849 -0.9793589051654101
Ni 5.180885510551217 2.810252761010194 8.300851694413723 -1.755261274971945 1.9663087353042008 -2.4354646140122576
Ni 8.310315454622035 1.6415406065369733 2.886008939901273 -0.2753952304807064 0.9288079316907358 -0.16940201687732762
Ni 6.821707000384587 2.4898309528856437 1.1345771596643837 0.25107593700905145 0.17487563839738915 -0.04144541162898024
Ni 3.4383458849377235 8.871401652885652 5.069528445109341 2.9917945167346605 -0.6563031353839471 -1.5305807972372865
Ni 4.415708460138177 5.9324546602653125 8.53404741222473 -0.3390896833158741 0.01648565635984903 0.31157707971790205
Ni 2.33505491160252 1.8176873211399849 4.844252230482882 0.273554834837858 2.4770876888696822 -1.1075600223243958
Ni 8.880777828367242 3.696545659310797 1.5004194851218766 1.2795657953731576 0.763566216838685 -0.3307269131734755
Ni 0.10092987323963515 0.49123046412004934 11.724283283307622 -0.38113878996712425 0.5904520412170928 -0.5286416927785152
Ni 7.433518584586955 7.562166718972511 3.0102446479490808 0.7859312147974463 -0.20046917059577732 -0.6329973707784712
Ni 6.834946123286813 8.347230112073644 5.424045604429582 0.5236547810868852 0.4159034471418192 -0.22726135108795698
Ni 6.138988665318 7.831014952225857 8.887161372028455 -0.9452480795246302 -1.065539969138868 0.21327326433898108
Ni 5.344908655087079 1.0755957608015778 5.583620366792517 0.34962632118113984 1.3931345073309491 -0.4383157533987484
Ni 6.189566540138063 2.745006749325618 3.6873529507830742 0.9892609947704705 -1.1321433680907147 0.1879988060429085
Ni 2.5784390379923923 4.307776418483333 4.523698584296004 -1.391422666846165 0.22474012732800006 0.5284714857492382
Ni 8.495561761359097 6.563322837113154 4.944186403671375 0.2901101680933778 -0.5290669532413921 0.05742301800415917
Ni 3.719880074398216 8.297380573402101 2.5276325209383637 -0.7844656859955135 1.5047730921455633 -0.5955513101168711
Ni 0.2307940524098728 1.469994394948036 0.5615775946777464 -1.0778254713744404 0.5064379029879665 -1.6634173562857546
Ni 0.49807037030470197 6.447259245040648 2.70910807470397 -0.3410336944161223 -1.1142217506152876 0.0015704298109134244
Ni 5.104188948278504 6.405107942875622 10.932425159301935 0.7583934143884938 0.2784409592855656 0.3194917065792885
P 0.8246028265208928 3.0631974517800167 3.456828106164807 -0.07184433563581176 0.9152492191696947 0.5449558565575067
Ni 1.5491802073486047 2.9866299617361554 10.873499077108638 0.18261594446444035 -0.2648650203733438 -0.6196381758627458
P 7.688556089353161 1.9895377744112157 12.266563657827536 1.2205425227614142 -0.44735729477572633 1.4190782237799042
Ni 1.4719765756054026 9.26425142028589 5.671206937402353 -3.6830844526064377 -1.1772731705498176 2.3283424290107577
P 7.106375801117195 3.0021094097534515 8.873411491877771 1.6695167843152734 -0.0007739020515470543 -0.7336403758135301
P 1.7900935225004575 6.545132872289971 4.954697492822369 -1.8727871718052713 -0.36782433224640526 -0.15773023696635416
P 1.5285931868467455 6.2195942722359385 8.885312873322398 -0.2717836018700481 -1.1458368064174071 -0.3321271359551119
Ni 0.6717398200582511 7.733971075019152 10.137261864293151 0.7842250307396171 1.8693346944802967 1.067601479653587
