# total energy = -340884.27972902113 ev
CRYSTAL
PRIMVEC
9.16704903458940 0.00000000000000 0.00000000000000

0.00000000000000 9.16704903458940 0.00000000000000

0.00000000000000 0.00000000000000 13.41690288163631

PRIMCOORD
 96 1
Ni 9.073380059543242 7.523323749903172 11.745827843647717 -0.000112100097832065 1.4958084267531075 0.12609435522862802
Ni 4.95202151726859 5.183837851517677 11.784495372890683 0.6933445044079608 1.1839572674382124 1.228608073378368
Ni 2.3311072156306842 2.991281413957251 8.290451741924414 0.4148801480836275 -0.34441983727953585 0.8864456646744411
Ni 1.4441218917903993 3.035255747846561 12.493524441975993 -0.43837463166114177 -0.6159252457875328 -0.029801142521832545
Ni 3.1448844864294787 7.112924134749844 8.328461993756525 0.1622990872839592 -1.092550436289441 0.44563388432671647
Ni 8.487037273587843 5.168638884332253 6.139950058199843 -0.7203948236575335 -1.1133601739459404 0.025184983906059853
Ni 5.04797301879442 5.409475594763762 7.837296093689341 0.2200630335673049 0.43861888646146396 -0.6080134471396238
Ni 2.9662645373293737 7.447264744633294 13.241060616947362 -0.0020357994831061714 -1.1929689840185196 -1.7717183920867037
Ni 1.9253736284009872 6.450238165006627 10.731844973548869 0.1226148813204598 0.2788718761753971 0.3302931680701667
Ni 5.891369024801962 0.7343557919682333 1.46913785171338 -0.30109469212933954 -0.6182744627459997 0.4555218328643897
Ni 2.5569191328071215 1.7061344853330833 6.116765674660245 0.22086830307741961 0.1666409091924227 -0.4650377427746249
Ni 3.3594117663289222 4.096433336136433 0.8952521685977125 -1.0351150769901076 0.7290676688411831 -1.709112030109392
Ni 0.3001860188463873 0.8126295562682668 7.335798929437615 -0.082176056579123 1.5053562183425429 0.7964190017026477
Ni 8.261005347236226 5.330987321517927 1.6388877642341024 -0.1541854570378893 -0.0076305199620642795 0.293115787688921
Ni 5.880487737679466 8.383550457812063 4.0030806929924285 0.41997221789455413 -0.16726105927492482 -0.24356343068209022
Ni 1.211535525428179 8.750699935944386 0.7856628483253478 -1.3145407687864457 0.5235797048745756 0.3787533204540832
Ni 6.2468213484538255 1.9713922142096876 3.834067811208562 1.0377725692176127 -0.8902951203275183 0.40644204461860317
Ni 4.628323851234522 2.9992017442637686 6.881274640791936 -0.8930989083249006 -0.02969855550569724 0.7900776328656522
Ni 3.9521714865604327 0.5502887823726045 3.467034754598106 0.7608184788902187 1.417158123939056 1.0420529417605215
Ni 7.183776256207104 6.257913477702536 12.795807881625771 -0.8828268369749311 -0.6719842935646299 1.6681458721096754
Ni 5.842847834625577 3.3799184548655883 0.7190495703099091 -0.05895796659144685 1.63825062721214 -0.9441656450937288
Ni 0.897234084584135 5.372459051039552 13.376316757619286 -0.6621979036018274 -0.3464060144716292 -0.5371582148899587
Ni 4.203247790686826 8.115414275560173 1.786071152315527 0.1385788608488839 -0.5709923898305844 -0.43626555573793896
Ni 6.0700714773427595 1.9290679491342355 12.242131874660275 0.7351897225785209 1.3617588212331453 1.4824078370764857
P 4.868289692014273 6.407492215678745 9.791025237951578 -0.1867911588880525 -1.3744909240878327 0.14980275458916137
P 2.463726913020021 4.772622369006386 12.213231836090454 2.445577534076543 1.397291466922116 -1.840627299243275
P 0.6243823723441984 1.8308888547096975 0.6037739295640113 0.1313121519841416 -0.11722867730788199 0.5716259096495252
P 6.838646029690817 4.209316377102237 7.269116898554931 -0.8143922983516168 -0.2603421928023258 1.329659369595439
P 4.372049830344477 1.832117239271125 0.6418575177878488 -0.13927485847464402 0.32805039478257697 -2.5368200717333083
P 1.9894696347703962 8.560061985650016 11.480468360527594 0.17199908818054246 -1.514937691383391 -0.5650333440336721
P 2.8178775157187297 4.810913132536852 2.855868516748012 -0.5895282438512428 1.4348514274537612 0.4283342167060042
P 7.26682055278898 0.12007459087953423 11.853806513416778 1.0018288041331522 -0.648023154763342 -0.6889512604362715
Ni 8.312084144074088 3.671109765266657 13.17190989977817 0.7062018199866031 -1.0298026636382587 1.2362272804865226
Ni 1.809089612268843 6.621221962318156 1.7340674002370058 0.4898388609787049 -0.5162608026156592 1.8858427194376488
Ni 4.446357929261873 3.223143583451167 2.706847135348929 0.6010012774878488 -0.23088274989062818 1.2360907549086582
Ni 1.218346642809825 3.959578462124861 6.36063117807008 0.7500532699539146 -0.728083707661359 -0.7712913533970845
Ni 0.6946019674228129 3.610845585364985 1.896868689641594 0.6113404546303278 -0.010668021236807435 -0.6607889390694426
Ni 7.523937942183886 2.4512505593774625 1.9813549630258023 2.5474351282449934 -0.4719475825205807 -0.5260813882505069
Ni 1.199361684401495 8.93303253987567 5.150373539267744 2.6016509521657647 -0.8328584754766043 -0.6866480662243916
Ni 2.5971899789142174 1.6834552061915047 1.5863605736596296 -1.0112979199658518 0.07918380672001847 1.6494557518993398
Ni 1.5906296683630385 8.710914943432481 9.025858994409033 -0.9150106207963274 0.3939799075958505 1.4234290445494324
Ni 2.5983541941328836 1.4266586635104042 10.62883026079483 -0.7013295794959663 0.3519688532713874 -2.3184015157479623
Ni 7.081471989747921 7.339579420431142 6.203010188036109 -1.9641790905557075 0.12500395037792664 -0.08790935951847441
Ni 6.096032560014122 1.9908538591642435 8.476718843271854 0.14863804485709883 0.25674419103842233 -0.7706766026312211
Ni 0.7357730177383577 3.8239886408705805 10.300021964962289 0.9832212163342937 -0.1458656243182843 0.0681306342296504
Ni 3.631388942097514 4.5115906497030505 5.149702511283443 -0.9326113645972262 0.5757407031488471 -0.3954181827042738
Ni 6.287174698001615 4.216118327434917 9.682361789624766 -0.3485914521587223 0.3115395416117473 0.08020427756473283
Ni 8.237601871226342 0.08161057012361272 5.4089173214817405 -2.8896692707271203 0.8807249601405799 -1.15655496416586
Ni 0.3674914090587496 0.9491012476330646 11.700947805320581 -1.090563230656083 -0.14069590719188674 -0.4999978037895776
Ni 6.6868030306200374 7.546653889521328 1.7406016727398823 0.8002370898971572 -0.16626938478561687 -0.8285763031614828
Ni 7.334565044646807 6.171807386766058 3.6874344460650903 -0.16664810828127427 -0.4167953628284693 0.8825545571501511
Ni 7.917791033953806 0.9524288864076778 0.2938855060921403 0.22732948532173106 -1.0495428223796632 -0.5565361051959383
Ni 5.2698522719644965 0.5831966547503082 5.9398104616523435 -0.015470584831773356 0.4546538284371396 0.34972993663853963
Ni 4.207959653855287 7.538421879549971 6.305165948302044 1.2399921468455934 0.4973629372698919 0.05648327979870918
Ni 2.1502596736318713 2.9852769968846022 3.7444699913209814 0.6419427528972169 -0.1035547793652152 1.6220501061928776
Ni 7.750144042465856 2.281660153508746 10.117820449831216 0.8524824203551189 -0.1440671376569648 1.570619558326727
P 6.591969909068045 4.20684127388145 2.7134345767358083 -0.2642924356993254 0.4060939172505651 0.7546144069620359
P 4.209279708906373 2.440112594883922 9.675344413641389 1.1511775019040305 0.3957318572899507 -0.3971729606118515
P 8.957041041117302 6.863259556164196 5.100422289452683 1.3552601008826788 1.9143328564575417 -1.7227615025720266
P 5.022653629550669 6.621130291828498 0.2354657364424021 0.664952326418513 0.7243208981848172 -0.622915818172753
P 8.935461807851627 7.0923532768704165 0.5715490023342654 -0.6607603998243523 0.7100487045365191 0.7801963691961983
P 2.3508530391031823 8.827565641523261 6.971355564160019 0.53479717085695 -0.6160823401906873 0.07237501132830117
P 2.313726490791382 8.640567009668343 2.8504205395475917 -1.2990007641693178 -0.48443157392020436 -0.22708368785951213
P 5.526914659065607 6.374298331373305 4.936118520722587 -0.8882297531580575 -0.41071290407981526 0.12712433915503912
Ni 7.532059947567652 6.116420076914231 8.230572578079308 -0.5219316277481915 -0.24199197242991224 0.9252186716775809
Ni 5.630960664828306 8.053967546341903 8.634219744964373 0.8142604007594428 0.266038986076787 -1.518090892300392
Ni 9.386233106650677 8.13838690026866 3.082546720051725 -1.6713890616373217 -1.8347530998506854 -0.19198375883258548
Ni 0.8169142349549177 5.2031344895908465 3.9674318729739273 0.6847220528462724 0.8449169493030353 -0.15801717207915367
Ni 3.634120722689345 7.08160949548241 3.9862023224364567 -0.7318514022339073 -0.5446900044906297 -0.4958187327112235
Ni 2.102426012127927 6.4591668706993906 5.929345358552898 -0.920684274142337 0.0303601003490961 0.18840478323207555
Ni 4.905480409668835 5.718267639179315 2.191933078230746 0.14775589936246167 -0.2820153069003853 0.6675337139924439
Ni 7.934245886847555 8.98436801408458 9.441018141385445 0.8040214966402541 -0.14483923993629894 -0.39261619447910445
Ni 5.944611245195773 4.089099696963731 5.278129200475786 1.2804091172100593 1.2022342113705293 -1.8501493798010975
Ni 3.890807260782855 2.990538882991015 12.120065284040457 0.2977275754293195 -0.3745444245790582 -0.4519590552137958
Ni 3.9960266488131864 8.259401113667197 10.415072096303625 -1.6069567021948645 0.6352136617034996 0.6773015920124851
Ni 3.8919623089525555 0.6730951538439699 8.252307651177402 -0.08047835716172592 0.09646341973607257 -0.18066293450312756
Ni 8.460269490607484 3.4486254868648327 3.913214278570147 -0.39795740418635983 -0.07928690795678603 1.1046623890616267
Ni 0.10624518080961283 7.549679015680067 7.12704505697688 0.8431593431819802 0.1790657652193368 1.1191544120302144
Ni 7.470979900308016 2.4270587171565143 6.21501810547651 0.27745211300973505 -0.9547675889792911 0.035021253270191295
Ni 2.550263855257895 0.9017708571173472 12.76225189888618 1.5479275160458503 0.505007341189027 2.2410187667924246
Ni 0.818644973799675 1.2594058551279863 3.10051230261505 -1.7509937579448422 -0.1208269361821016 0.04386044882837607
Ni 5.826209640752511 0.6812969125537397 10.427979301247579 -1.641140290055109 -0.42463825591165577 -1.5915537373762332
Ni 4.786308773112439 8.900104499990242 12.829457368264816 0.9069005900946834 0.24826726391566273 -0.3900440628765541
Ni 8.68068201594302 3.571188931538603 8.241023930605305 0.19441499398189743 -0.1544852476664952 -0.19869073853911587
Ni 6.301741138808392 7.484189617867845 11.023247126076155 0.4007719908170195 -0.2213421573900446 0.12850425022170125
Ni 3.450028045356612 4.616535026264405 10.09275773795851 -0.49654558357491907 -0.5784223637460684 -1.1096873530800435
Ni 1.107122837706845 5.591450683785379 8.533512378435045 0.4084639601446385 -1.7036237533013112 -1.2598845148941462
Ni 8.32955653940305 5.451928198524737 10.886193327102022 0.39982299664018883 -0.3499392244358683 -0.9421771539087903
P 6.9656921613089 0.30109905692338856 7.280936891491533 0.7893525817741697 -0.3398039357740793 0.32050857787957704
P 2.983333582503836 4.992035686004641 7.40087122652189 -0.4854098786730737 -0.5478082384046373 -0.5963835762101793
P 7.513239996040707 0.24414693181308722 2.7975046660969656 0.7608017667196704 0.059632881171284395 1.109866044749753
P 0.33968041590607323 2.0263670068580493 5.340745645142103 0.8372056967017065 0.22449484408641338 -0.4330017973850026
P 9.100074506131874 7.002699537984144 9.446707211973667 -0.42170077054988664 1.4314285178151411 0.9413569720003401
P 0.6810530690512474 1.7660319832761207 9.465154981312597 -0.8585203990190826 0.06261278973521474 -0.40104658463464476
P 4.417949244516621 2.296208260217592 4.737105554492993 -1.8401961252431274 0.8376042176917059 1.744046380092732
P 6.913467483350301 4.142415253749269 11.834231197055045 -2.131334220380387 -0.6269424228336428 -1.1093556807722378
