# total energy = -381172.92042022885 ev
CRYSTAL
PRIMVEC
9.23342395375144 0.00000000000000 0.00000000000000
0.00000000000000 9.23342395375144 0.00000000000000
0.00000000000000 0.00000000000000 13.51404928510907
PRIMCOORD
 96 1
Ni 9.321048853683363 4.89834048670901 9.340221134577467 -1.4055925305886436 -0.39601699263053736 0.5481414533743398
Ni 0.11595795107329694 0.7869914757363706 10.68063909443738 0.21671288614814935 0.6663826311071361 0.08295458661636036
Ni 4.369052942067961 7.891530202159071 0.7775216764274744 0.4229395280529942 -1.650313986134577 0.5471281816184771
Ni 5.414959774084256 2.741154183141528 9.222257683884541 -1.9932734368185023 1.1289875960705524 0.7062144183920934
Ni 0.4602704727863222 7.424143529755582 11.543970670335698 -0.3858022568810646 -0.18146151914502298 -0.3971806739213354
Ni 1.5595529569720168 5.596581217537834 7.83667535551884 0.9807568139542012 0.5176481698814892 0.19367940136745357
Ni 6.396500409744939 8.028000203899989 8.68551968968972 2.204323982474552 -0.417216766636604 -0.4497954719035738
Ni 8.754301309241036 3.1171945952457674 0.3430299991662179 -0.4786956998776917 -0.7803557775921981 -0.5693342854018711
Ni 5.798996331080758 3.155753372462958 3.4828677192610553 0.3559818310855224 0.6208231973097824 0.21596700912106034
Ni 0.5835182118416526 0.9454656494088716 2.7950432136665975 1.025494523181208 -1.008692878242837 -0.7478086968941122
Ni 2.2578490883428195 7.3253181962892056 13.074653481540237 -0.5229749814110413 0.35372671650275855 0.1697663421952818
Ni 1.7735283169411677 8.37196370219855 4.3697269819953695 0.15082528231640477 -0.8488630784349768 -0.4531787865535098
Ni 3.313561816289348 7.097465000554384 3.023863148858947 0.8024523523809213 -1.7339229185054847 0.29224958303388376
Ni 0.036068522855247025 8.014113134710657 0.4633849065878927 -0.21361933482449016 1.4898236699245826 0.20322102230930159
Ni 7.687619273982722 6.5074122947863415 4.625466963877546 -0.818637446781216 0.43959307744927517 -0.6146713187757736
Ni 4.997599791087554 5.245766518881239 10.26333912869449 -1.9554077721209808 0.08670942567310229 0.20887179283717577
Ni 6.7615068805717495 4.620774537971949 12.860577477253157 0.7639565102985681 -0.32373274124382956 -0.6767156376020281
Ni 3.665752295071748 5.6618615228360945 12.757573096236852 1.1281887543183409 -1.240406865785509 -0.4788805621949882
Ni 2.390699588007795 5.600994794048805 10.493185820598178 -0.8084839032869817 1.7113985121507236 -0.42586492922990526
Ni 5.620929755737483 5.624466157000457 3.2468854173332233 -0.47158120032009754 -1.1945509837936588 0.25638475081647455
Ni 8.760303034622066 9.206877570088881 4.658225304349566 -1.7065198439021836 -0.9536324469335834 -0.1282219430945921
Ni 6.571704623752647 6.879796271119985 1.0642988886108642 1.3658345339644156 -0.047825861234027316 -0.16913719325171517
Ni 5.630255513637234 7.809103429118395 3.1850316355563466 1.7550270474739516 1.7731569243054432 -1.1128199851717544
Ni 6.85255767131378 4.244078552787628 5.486095916669669 -0.4176453695335904 0.25638166549268104 -0.6123254442514164
P 8.579152495775306 0.9786321072067998 -0.6708405461085144 0.9626305366671356 -0.962849080435845 0.9269605940693519
Ni 1.4305066278562468 0.2798678412562768 8.182973063319436 0.7543161589953267 -0.08602011291556153 0.2841074135427236
P 2.7987799802230624 1.4844944560145115 2.6442263182379224 -0.8764291609787035 -0.2741539018744375 -0.036454386172292054
Ni 2.7942556026281333 4.184098232671998 6.168703537894463 -1.660732867475056 -1.0892105732829307 -0.4463980161862506
P 6.844238356593308 1.0174955874048734 3.4054186849171684 1.4729999134990246 -0.9919642526342466 -1.5427994507906655
P 5.9396121400464175 1.4691392724627423 7.352034184316077 0.2150072163109523 -1.0399500364849057 0.6747384592709993
P 0.9228216012174352 6.578869760515229 2.5014637382705867 1.3833799990473465 -0.6382485918750814 -0.4101002101964808
Ni 6.828199899690468 1.9697847369007908 12.209740220168426 -0.26862217342293093 0.9915161093532343 -0.27544459566140306
Ni 9.266386985597691 5.6614829524659065 0.6323187025859763 -0.1883831859655207 -0.13841431024656162 0.15373782797750943
Ni 1.8888722453408673 2.3059552256276765 0.7433580088739291 0.45210766497651816 -0.5118019955133573 0.44885290548464635
Ni 1.2627630201683393 2.7111455562363873 11.387032015018374 -1.955770297666722 0.8108660303659131 0.4973801636610724
Ni -0.25752757270335713 4.679628380400678 4.31590073875121 1.3211027382746796 -0.4874503061418702 0.7715896013637937
Ni 2.8741154838904612 5.118252938093547 1.521289649312046 -1.1565469937460597 2.740075546824971 -1.181411103977591
Ni 0.860544005294421 3.86608988829047 2.0989751074257055 0.009065709746694066 1.7744399047829247 -0.6142558285049098
Ni 4.580701479274007 8.010419765245409 7.255922554064291 0.0444209493175364 0.33737784283108996 -0.2656967722460198
Ni 2.417458049783518 8.544545623885933 1.7949360097041123 -2.004291642305877 2.6563300888761994 -0.9917850467439048
Ni 5.713042390200771 6.784682773966182 12.294459652304655 0.5168896944489099 -0.6542058865352863 1.647003947924738
Ni 3.1897416049669043 4.021700777285037 8.4680790258198 0.617637086272317 0.5850000169635861 2.640766430109988
Ni 6.0154277817442985 1.5596729914796374 5.239302198974689 -2.1688885244850775 0.3180125509306007 1.505122505065182
Ni 6.889916103454764 4.035560146203381 10.486293993176023 -0.17685307383873414 0.29443784893445424 0.4366373372550609
Ni 8.921998749810628 4.788859782335392 11.603783865483024 0.2702476248414959 0.21434027215091475 1.1901981061416018
Ni 8.743248901116282 4.7320557599598745 6.831351267186691 0.5719097594385312 0.5061841351059476 -0.5149981338531519
Ni 7.460366250786003 3.037076178120872 7.851567944545087 1.4372741779626408 -0.5679404903781381 -0.7545051350776812
Ni 4.565355529145901 6.965787145694625 4.940411658287651 -0.4758266058600128 -0.06142648273659743 1.838143870699789
Ni 4.774908079180417 0.4502420513458072 8.898622491122707 -0.9987388523539186 -0.37272434065118387 -0.46959862267242997
Ni 7.409019181795391 8.751688250344372 11.223769387834178 -0.20395790047532616 0.06136246226788141 -0.09421267602868291
Ni 2.3152994503747544 5.053545105062399 3.903303355679944 0.05695790544228255 0.2616938217342138 -0.24825595106175308
Ni 5.314223121919613 4.896733870991627 1.0503776557539777 -0.9864163262328237 -0.49508956785468283 0.14251804800229
Ni 7.119680617887852 1.2618027441073747 9.269394311684769 1.142783364303064 -2.0558247771881626 1.5298446904022103
Ni 1.6512685542177912 4.376430447574795 13.035151971767041 0.4304780025218844 0.08314870490503745 -0.1180894826462805
Ni 6.48287908811343 6.531086793058582 6.510690160186749 0.08000270307688802 -2.0394280809976943 1.4857934657192668
Ni 1.2652375777100557 2.863515513525199 4.016024068416951 0.24868943905474591 -1.3959310962394798 1.9693495790130535
P 3.724384535332562 8.800477660980302 12.404221052757633 -0.09135335220301687 0.22147611186474758 -0.3837188919894746
Ni 2.3859351413976255 7.510356006498137 6.730874997569348 -0.09420470560888292 1.4386463757198191 -0.44104703628698233
P 8.222511506787283 6.445179019296909 8.180837372426156 -1.173110811642012 0.12096628997344329 1.0713437203048388
Ni 5.134568397706281 3.51147101908467 6.917503726675435 -0.4369060175354153 -0.8077825063445829 -1.3369844425019424
P 0.6044586933672433 2.79439410398308 6.3525216128374975 0.4827107345743558 0.8378710981998473 0.1019835782233534
P 7.996966666968242 6.735136222589879 12.689137730072902 -1.1878167503936188 -0.4510591691073457 -0.4788890468354204
P 1.3981434779170099 5.929501541135301 5.682103034190388 -0.8836801861141621 -0.056084758808709854 -0.5071601258659717
Ni 4.2319181338232985 5.689866496806339 7.075442361775475 -8.947439001274914e-05 1.2252859509836704 0.7729723406439333
Ni 6.425114789676949 2.401290324949394 1.328646268031802 0.2547132766513226 -0.006190702191744177 -0.3580019468393447
Ni 4.696756381295766 0.6703871850066553 3.495300524223447 -1.2166339317356274 0.0702142562315565 -0.9405414180775802
Ni 3.553547730717509 2.585183190624099 4.593708603188245 0.5815930481645661 -0.07178108649804413 -0.21463106391845616
Ni 4.273256171563088 1.0947793434651907 0.6980625257521258 -0.5110172948285328 -0.07516928624398668 1.253241812766648
Ni 4.935985154983551 0.8877502881178052 11.0999528698812 0.4865064541713621 -0.13307978540752563 -0.2404637087108439
Ni 6.661702804197082 8.592457859273864 6.082389493491615 0.2020586265700843 2.247416185678336 -0.6049744032029839
Ni 1.650105142836238 0.5506490702856769 12.661718155162902 -0.397695922994857 -0.8961888601041339 -0.2593991121627662
Ni 1.0482798218977167 2.7804793345227576 8.446699033327846 -0.47250088392088946 -0.11652419504168965 0.17166124522514953
Ni 8.90176831856473 8.24750638464335 9.33289718292788 -0.07818750424502018 -1.1911553278485485 -1.0761303430602047
Ni 1.3089301384839411 0.8433956908672738 5.852516024659303 0.19627981510477807 0.5363557735933214 0.6099134923758142
Ni 3.5589400501367714 2.0038191365230524 7.619302095641659 -1.2572522194776217 -1.5420736283682346 -0.6761525660097065
Ni 8.188052369676518 2.106023903050132 5.271843553990624 0.8834678129930397 0.9850862945674905 -0.22777891415432383
Ni 8.260959482920516 2.6062815636943295 2.8318282501981025 -0.5745307420011461 0.5414326738955966 0.2911370666959954
Ni 3.5644247037926653 0.4544054020755082 5.772242486016867 0.817109954393096 -0.9352922538634988 -0.0887457393768407
Ni 3.449967184064625 2.1431422661758757 12.2949462537317 -0.9285847599363363 0.3457627244606755 0.046556250492984334
Ni 8.431602385638643 7.704774975148799 2.867505275890033 -0.15036582618148298 0.41171409165082 -1.0041435683092579
Ni 4.94672362670376 7.670740575526537 10.446062119591076 -1.5373942206146942 0.9917706485662018 -0.3747552550382836
Ni 8.528544100677744 0.44500577678645165 7.294261575798299 -0.7727964771877013 0.44741643014843596 -0.2209032700804131
Ni 5.942188265248428 9.06833004802376 12.979717266120767 -0.08241105540806452 0.0025962999722664963 -0.23183328672935558
Ni 7.717904903597756 4.994894397954259 2.4689085331191576 -0.2320816552947358 -0.16146862096286385 -1.0133550596051968
Ni 7.145349535671326 -0.0223947457525321 1.355364102743407 0.44507544072008504 0.8743218848277137 1.3294397973854652
Ni 3.842960162014353 3.395840854551414 2.2256419832634897 0.4907482601668517 -2.0638574176846523 0.4194813943010647
Ni 2.2858540623130637 8.440909676691069 10.263082439516655 0.36825602046718514 -0.7910271412631151 0.20735252797917195
Ni 6.2603166441375775 4.888599224744418 8.246110290985486 0.9289465141511292 2.285652346341399 1.1177485328216232
P 3.4493762449501855 7.040744078991835 8.92738091246386 -0.4304564052553297 -0.3385872897581588 -0.2293174622860373
Ni 9.009153035766822 7.386055657145211 6.421132414051045 0.7042038157199678 0.3117583424907727 -0.07555238061501827
P 8.496864224089578 2.876405372958915 10.21422931825745 1.935033322229687 -1.2381764337930936 -0.7800770700095147
Ni 7.163216210459464 6.471235740874236 10.483671700855698 1.0860653427857296 -0.5284576017921673 -0.7987898159276694
P 3.051000181004858 3.7333686565567783 10.982407693280214 1.5550044774972898 0.341654872939889 -0.8792319205348212
P 5.092704054817693 2.9955811721788095 13.296566815832572 0.68328172085532 1.05195580269653 0.24792864962932137
P 4.640284762172122 4.675307138126337 5.000576646876543 0.23970883282269043 -0.3120797303859335 -0.30685524876220055
Ni 2.575044891441993 1.4842174533046177 9.958178169997826 1.3076036753469802 0.3868895764079724 -0.6587109734944915
