# total energy = -340861.43185409886 ev
CRYSTAL
PRIMVEC
9.34826565787106 0.00000000000000 0.00000000000000
0.00000000000000 9.34826565787106 0.00000000000000
0.00000000000000 0.00000000000000 13.68213172746728
PRIMCOORD
 96 1
Ni 5.347021015587763 4.648266199244292 1.8001310229845937 -1.0470455098791065 -0.40056141746811014 4.581805335103806
Ni 7.728099075726802 9.126702455500748 9.850696654410017 0.33136146143368095 0.69097163330041 -1.1824007215843702
Ni 7.254889865948397 0.9079605892899728 1.2317901221277807 -1.9253299788989942 1.4041185171462784 -1.5273939148688727
Ni 7.102830976057928 6.8567004884195315 5.788404054787533 -1.372975258774255 1.4433435240851724 -0.8066280810251656
Ni 1.5175974538804111 4.852684725325375 6.436184647917259 0.4396691821028493 -0.4015060407695666 -1.0471020741486547
Ni 4.071992360113715 3.1121404827447425 6.942559634749237 -0.1528867928311238 1.509695212037529 -0.7459544172941927
Ni 2.9827604854446013 5.845844473386572 0.9738789500531386 -2.2061386670857877 -0.052048126845491004 1.0482539283649108
Ni 5.089018230509252 6.094555082358411 0.2234441164355079 0.41409081941311265 0.3684629942716687 -3.1070838109279846
Ni 6.590994732403496 3.6959209792331245 0.30087019227645356 1.0512340940391574 -1.3466731305446162 -1.7245828720514815
Ni 4.241280103690901 1.5432771397607208 8.401882804730091 1.0674634114138262 -1.2490020636536878 0.11487380392246022
Ni 3.7246201549348172 7.998722019501497 0.10277296346230418 0.47460738874093106 0.7774193206716934 -1.4702187512094615
Ni 6.998597813493146 4.691230828405524 6.293356235579836 1.6226422312509217 0.8691917626899998 0.18823868996785648
Ni 8.267419220541813 1.6113605588602096 7.843487523752441 -0.1257981641444479 -1.0008037053027472 -0.6808445721687371
Ni 8.382945088073253 3.007701658334542 1.8834820296267554 -1.5158321781732023 0.057014469711830836 0.9277267828114153
Ni -0.22486037868919084 9.1304604583125 1.8721538012504322 1.8277049347546523 -0.8647769214517559 1.8372686671836873
Ni 2.966401020468066 1.7288776069859373 3.5669868942069147 0.7117667156688903 -1.2566161285555197 0.03958778959495118
Ni 2.915873644354825 3.6611828238886646 5.054261378633391 0.9381582625573843 0.020683753601596633 -1.3970500403352712
Ni 2.576223106644852 1.110256124230386 9.91114441008503 -0.5609337200430017 -0.01806611347309147 -0.45485488870435214
Ni 5.524881118812654 5.044511137507375 9.662403886662947 -0.5785264934241005 2.0855428730778858 0.5921242867131931
Ni 0.4952739213121864 8.691662214579022 6.663335351703165 -0.5868807789260667 0.8724079556344524 -0.6121935466592425
Ni 4.529038418495303 8.362930451207674 9.269165350649265 0.021238597663802133 0.5842875642775937 0.06907834285490039
Ni 4.890330191302807 5.536127082450808 6.30991201413609 -1.4309577488263097 0.38212635069137413 0.18781831460098622
Ni 8.898773041181958 3.905406265324082 7.614079213799773 -0.34502147541927675 0.7004479482219614 0.9064881851476131
Ni 2.5352870511407106 3.9452766185383235 10.619098854704733 0.15187300685462876 0.21644754830190466 -0.07723491052376376
P 3.962514820490741 6.778137663469358 8.014103655885721 0.5660224474198187 0.5421561823251824 -1.627272273823765
P 7.464188186725337 4.665794197433437 9.263322684586218 2.9836803722679583 -0.30413013652155363 -1.4709114064011117
P 2.268113617409639 7.267014566562434 11.750556845544708 -0.7333416136261887 1.5902902972827773 2.2219494088657994
P 8.675162525616974 8.76152180416168 4.194257392388917 -0.6523094408435217 0.2938840333135132 -0.1104579342429517
P 4.415241980118525 5.172470198420983 3.8906238527712853 0.8311363505791749 -0.2836716115568857 0.1729894771182698
P 1.0504646168075753 4.654940860954718 4.340916724010561 -0.7342970355609224 0.024506469781796505 -1.2923403214300067
P 0.5652550383489534 0.3618966055983503 8.683392738740027 0.11351497590172065 -0.31050621525122657 0.49881201101159256
P 1.1373380499658274 5.769908511098347 8.149242184857602 -0.5100356476415538 0.9506821060560078 2.909420485212118
Ni 4.840195442349002 7.290534803065842 4.566671731727325 0.14893577860317575 -0.6995130951125179 0.9237958231881251
Ni 2.5385028545418127 7.255824692518484 6.1669059847503505 0.5091378184176328 -0.33845359239377193 0.34067682529733584
Ni 0.23909311321877644 4.721846398575897 0.9587889795587824 0.3728176716959386 -0.6530440050167011 -1.886556200564906
Ni 0.12849191205855764 1.3289027107082039 13.1757700636362 0.40844441976061274 -0.4783907670427632 0.33602055747224713
Ni 0.6388651521308009 0.021362656779644662 10.87811592661179 -0.8130247285801288 -0.41884787448212385 -0.5954847185449939
Ni 5.515336539532058 0.9155579248250757 10.333074643187842 -0.8445081439003908 0.16209545591358537 -0.13633737311287486
Ni 0.4691483231579447 4.783853444969815 10.090627372235593 -1.316584538689352 0.32201241611861314 -1.5539022455720464
Ni 8.460143066231097 7.1896763644190775 11.455187172806651 -0.5141931214533533 -0.2107669529773596 0.058758963206763326
Ni 8.796250611240437 6.620965272240509 7.12449090768686 1.479910781686245 -0.9524582241198241 -0.06345482602053588
Ni 4.51237046075064 7.14260784661516 2.166004380812097 -1.0471133870025646 0.6185274592970702 2.32531984013435
Ni 4.4051832462243805 1.693643993559331 13.556694129242118 -0.6939091186621791 -0.06091766142097895 0.34884727692327017
Ni 0.028832855901215666 7.417951664568798 9.387146072753758 1.0943949456973474 -0.00793622412794117 -1.2240387088401308
Ni 0.4575228199323338 6.355446481538493 2.3571306078931022 0.6408027257555028 1.615086787501167 0.6920921200580984
Ni 7.1250237588318095 2.2814816373618934 9.920722643122147 1.0384616248648373 1.7706866083880797 0.4347491190934125
Ni 8.620998674146092 3.4034230937183763 4.803358601354696 0.5139635219410503 -0.7856285959553632 0.191910739502805
Ni 2.197992276387359 3.649245088588644 2.412323703417652 0.07478696320390346 1.4062378774821265 0.07898506044565107
Ni 1.9046436986938313 4.484082608739785 13.045351474016691 1.0911975218059724 -0.9429561981666599 -0.9917732196693628
Ni 0.3148262181412932 6.8802487697200405 4.656672159762521 -0.8820117972728037 -0.5750555041563644 1.8199787697549878
Ni 7.093557496482657 6.7890003482137775 8.623491856608515 -0.6055634429372345 0.031720213921416336 0.04777032540574354
Ni 0.5289903112155403 8.204570830234815 12.92311542136516 2.1314375787274713 -0.8685952667565815 1.2071632732410307
Ni 6.425464991638064 8.225015487322633 12.889553277845872 -0.9477747026012256 -0.13126021570028362 -0.21831339786604984
Ni 6.879996366546116 0.6517143433366567 5.3744376092352955 1.1650666011812967 -0.864393055749776 1.5345837477490927
Ni 5.882312057885695 9.048569650772816 3.404839355972059 -1.1087316740349937 -1.366639546364214 -0.8668859973749587
Ni 6.842808965588028 4.637908320847719 3.749574415396739 -0.027387133763701218 -0.33682505565141346 -0.13030607931713042
P 4.7631283399109705 9.011578563394444 11.76080441440601 -1.4509380486029786 0.06763081177509643 1.2516847526921733
P 8.129915580347609 8.899520902438029 0.07775980892646696 0.02985282169537439 -1.3333974964816326 -1.7201564608490116
P 6.399738564429249 0.2548627026295862 7.8495349168343385 -0.3630058278118394 0.24891029681630034 0.7072451736494529
P 5.35775282461237 1.8102823047091763 1.8585670318807774 -1.07034613227826 0.453592991272793 -0.3095708479211507
P 8.332053129597679 2.397886241869217 11.763527564204676 0.10853989128463243 -0.5620058700612579 -0.36051314329697265
P 7.652583785395116 5.442878132084559 1.6193626743001603 -0.2675456525293005 -1.0679416366018253 3.7995873074918878
P 1.02056886309617 1.6061722713962228 5.797584051705794 -2.1343969184661113 2.0295169925315695 0.17270408466736709
P 2.413638069575195 2.257615515027554 11.743168911161307 -0.7764075915777274 -0.06518286445523613 1.479031207294769
Ni 0.6672427474923839 1.8116658480329062 3.323704823127575 -0.8745969928659711 -0.3879329300708222 0.5612206551558012
Ni 4.64653677008963 1.419665022398021 5.394317631074781 -0.10712475610466068 -0.357872363240016 0.37664784407530616
Ni 3.2631991082052174 4.832081147720642 8.4494140616862 -0.51466286200092 -0.23561486525897488 -0.326534729468999
Ni 6.578907424852263 7.388392448422624 1.3621217728762711 1.6822103206225418 1.5945799257970668 0.4969883275392924
Ni 7.554240030221887 5.909309849229828 13.36374872965572 0.6714443619007598 0.9410942052572567 -1.535146305120782
Ni 7.282355070577574 6.856971588124856 3.508331201066761 0.8700844497075984 1.2804276291528205 -0.3039714994565023
Ni 3.8754637702841723 5.920406240616769 11.261735097219267 0.49899841599078576 -0.655271094575007 1.1545356197429857
Ni 6.966308903762316 1.566320614713383 3.2263837682220227 2.024420037624636 2.5912282141705436 2.9218247724137423
Ni 2.5432330769864566 6.295776501569794 4.05062222472151 0.4713372026300915 -0.7278014005342498 -1.1064454491039784
Ni 2.4344847020881515 8.592757563463742 8.089040288570523 -0.2542592198330395 1.3328256831385628 -0.12541198444962273
Ni 5.074453632547286 2.941525285438032 3.7751325738229373 -0.4377639946603364 1.1706854900299708 -0.9616774287252471
Ni 6.581777342422432 1.5400893811567216 12.614241243995616 0.4972320681189823 -0.9577151016433894 -0.6023215389611691
Ni 4.667738636699219 8.73958142456172 6.736329414775325 0.46602221817508127 -0.5762127576892593 0.3866671759845212
Ni 5.045389874483258 3.3745369527026656 11.920830831153337 -0.09873113272432672 0.9927548668563418 -0.5205897690083163
Ni 2.4912193266267755 6.961036481907022 9.777867120814193 -1.0308061652021085 -0.9687258509315962 -2.139285356906664
Ni 7.771577859501583 4.427347984201161 11.595251302976324 -3.6123590610664174 -1.6278620848889642 -2.317965713762124
Ni 2.636930744106349 0.6466344957548 1.2827316264115711 -0.568046419828383 0.8038443476324413 0.3936022125414576
Ni 1.6059759578165043 8.51802752745093 3.4585554255158697 -0.7665510104986218 0.5272797794339822 -0.7026968921571382
Ni 2.530238987662237 0.3254336952320786 5.683393116516438 1.7751017067366397 -1.3978841062007925 -0.18596892009707325
Ni 6.200732684188974 7.657117694260042 10.680053286380732 -0.7757133937241802 -1.6039773078515667 0.07598381172548205
Ni 6.232423304914948 3.251747482721643 7.9042634035535535 -0.08887840829996306 -0.3233938698471721 0.3255983336976586
Ni 2.492771138733121 9.621795955284908 12.340598810399538 1.2881226838042332 -0.7542436538861784 0.8608194794659045
Ni 1.7736744962245412 2.7385650888062862 7.749970278160575 -0.2546795951999098 -0.7157807219242898 -0.32370317355747474
Ni 0.18870128695819768 2.2936811241015382 9.922377286151201 0.8666556265317075 0.07228913648271422 -0.39023201051764406
P 0.929317637110197 2.461884468857422 1.1734120724789425 0.6920931484993629 -0.2549289922065545 -0.025282171605556458
P 5.886042015900344 5.690466949172292 11.976188456154222 0.5456865640759441 0.34053747150599417 -1.3558234295853164
P 3.6353442174914394 8.89049047777098 3.705805835385232 1.4149778284582857 0.49385415278568495 0.24511457721929403
P 1.863006523262124 8.005527556931737 1.150707004744652 -1.0736831670712927 -1.2091612775076659 0.8492384594965247
P 0.07700446905783608 5.2684207975747865 12.145450959414017 3.2144340527798896 2.1535236119932333 2.3109152346732458
P 6.463231985069608 2.845481203627219 5.593652570267726 -0.38956892301234847 -1.2708762380189598 -0.5687195346360077
P 4.056343363330447 4.032243534353585 0.2382947713279215 -0.8679977423818988 -1.0127829891518105 -0.8928302280445461
P 4.390506469074004 3.3713304975672647 9.758288113130275 -0.2755600381933448 -3.1580145363395804 -1.230073602180301
