# total energy = -381165.79300993716 ev
CRYSTAL
PRIMVEC
9.32390079841439 0.00000000000000 0.00000000000000

0.00000000000000 9.32390079841439 0.00000000000000

0.00000000000000 0.00000000000000 13.64647129281672

PRIMCOORD
 96 1
Ni 7.727014953370958 9.000314817593889 6.529372949756321 0.0708943130177166 0.8114054478091509 -0.34287331872802235
Ni -0.02074847643838586 3.656050684004004 11.088863001260169 0.37835454235376775 -0.4676924067886526 0.4249200488181327
Ni 4.174301061874314 4.6279647789399245 2.6726616643600796 -0.46636623177806136 0.8235976189999688 1.0445875352569172
Ni 1.3983240499787015 0.8924073280795847 7.445023830126947 -0.9848867769621746 1.338748990601533 0.3940454707264633
Ni 5.952956349168523 1.138858538664541 0.12226990546102405 0.13466461339614227 0.039389557541216036 1.1259608934290866
Ni 5.488933778320031 2.1997972383879993 9.41674726639629 -1.4497175459323162 -0.2515731883604442 -0.2902492647744033
Ni 4.961219641143128 8.628682779719812 6.4486811151089825 2.5960163795878066 -1.6750672818198573 -2.104720474447601
Ni 0.8100045576364236 8.964977233582077 0.40726705432123783 0.4868684654964711 -0.9638793214725723 -0.42197947813257003
Ni 8.931308627812514 5.955026255144941 1.2958562450254039 0.49714413639086635 -0.37958867187118495 0.12097631727577231
Ni 8.165648542355555 3.9831051521787493 2.72877569651266 1.2849764248657678 -0.5525706927902871 1.00708285344324
Ni 2.9960956618562533 5.917777271470221 12.73679719941306 -0.25774589283005933 1.563758826651152 0.004455464668192326
Ni 7.4165850003131135 5.567413051308794 4.268862198953729 0.09939447733993849 0.19616462968315249 0.8863477056439961
Ni 4.55566725217803 8.594967554446274 13.073251091978914 -0.12962833652381547 -0.7449234049265171 1.1227159041292278
Ni 7.5368073771596285 4.02999504927516 0.6159471427869735 -1.1204463913687606 -0.05845711569562836 -0.9738911971826196
Ni 4.128539356774059 1.223622120788913 6.690319328103729 -1.497182681392815 3.4321838648329863 1.437111941353164
Ni 2.6898801119576023 4.365599534478621 1.000599075730732 -1.0396276201484804 0.08930881096916232 1.0984320918811985
Ni 2.847314176875656 6.944385368467693 9.074808122992929 -0.6608550164206877 -0.5589686258968309 0.5069145855140689
Ni 7.999319476079382 8.247447124027222 1.4870698701324787 -0.30701877092325836 0.2214743120925347 0.32833732989537645
Ni 6.384242704326918 3.315560474784135 4.202062044100374 -1.10241807311214 0.05828588022508672 0.6078941479529402
Ni 3.3389261701755855 3.0910502675492033 4.666246850822693 0.297352708588404 0.16609866353570749 0.9696378212229043
Ni 0.6187853381888719 2.1895316236130644 3.3956238785179123 -0.14246559749779977 1.3183354599421877 1.5330367149769468
Ni 1.2767683553185494 6.8865305640367485 7.275821137625856 -0.7011637433420633 -1.218014871243554 0.7341818501392969
Ni 6.410927708401272 5.576046983444661 2.019732201461115 -0.3817298865839039 -0.11590944427582618 0.7693612262539072
Ni 8.099896393951521 0.5107241251488501 13.070030616644436 -0.3689540749754743 -2.2808600671590784 0.39957334252322796
P 9.001060729657462 5.016482401153154 12.892885825446442 -0.21422431539834078 0.030986935299817605 -0.045899847855908046
Ni 8.648617279618822 5.269057549780052 8.9515666670691 1.447300194740075 0.8151759705951767 0.5892693337629014
P 6.419225980108531 7.155543749764654 5.958118060648454 -0.260636584114293 -1.4729999134990246 -2.5100685146710773
Ni 6.6784490700020305 8.06284321219349 11.958934924986112 0.16358386753365375 -0.05633569847725137 -0.6421957494482875
P 5.695793841350646 8.420340216462844 1.4345576608568802 -0.6865984439333789 -1.6906437961018752 -1.5843299659342844
P 1.5341080172515245 2.551532071966244 5.965855033527873 0.22091818247874856 0.06998105717482786 -0.41862624538962095
P 3.6474726952729046 7.3286233202161695 4.906260840299007 0.17955761725409078 1.7827227136170072 0.660511774148656
Ni 8.706089804117187 6.878120405519953 5.849545897844884 -0.5000695375677775 0.9928037178164063 0.09912913949369379
Ni 6.702998900794404 6.196533933528561 13.414986041954872 0.623011720320669 0.4689843861271988 -0.14933121426938153
Ni 4.2923696176372585 6.546618436666148 0.9508197017780522 0.0629809717079109 1.4366972224132482 1.1356076724902313
Ni 0.9452850342663344 4.677372129250897 6.140379808602563 -1.284085280510066 1.0291573167447758 -0.8273452589678592
Ni 5.417484726530452 0.7396818330628406 11.496510470733828 0.33493812304134574 0.9114704688535528 -0.8068090866877201
Ni 2.21402551100067 3.811890361886169 12.541789679072632 -0.45399099804216003 -1.0602951758001609 -1.3365000466663564
Ni 6.467924713959108 1.8762672047136402 6.386589530156937 -2.176000967160143 0.5810785704219928 -1.7021456260938876
Ni 7.449041498979371 1.2197247302567398 4.470283630650812 1.3696140556115057 -1.0271716537733149 -1.8487753822717063
Ni 1.6177154356773575 8.988753180608494 9.521184279197422 2.0059618309194485 -1.565938350800974 -0.5200729772728979
Ni 5.189431436993544 4.237591700468554 6.61594536863486 -0.16494012445123205 -1.3407745056719942 1.040128213933983
Ni 2.751604335218338 5.528373878681498 4.563571122881674 -0.231200281131047 -1.2260680805653337 0.004761425944385348
Ni 7.87405286890295 1.6322793687186368 7.892368739624006 2.43693811323399 -1.404383083661575 2.2074098204887274
Ni 1.0430927536024543 -0.10952786263502391 2.8769623166225573 -0.3729619105832867 -0.06741483910954842 0.42783593691334704
Ni 5.101880008531564 5.422351802745271 4.787386699507403 0.29255451586881226 1.4833352339867614 -1.082164979290059
Ni 0.949741858846188 1.7749816703811074 9.9180915473457 0.13445918225355552 2.712810797571747 -1.1489198162181051
Ni 5.225673439382438 0.9812659674329776 4.731996202056489 -1.8249697952116763 0.20149401231586586 -0.17290411649331514
Ni 0.15850444872928232 3.3414063277869688 7.9107088524871285 1.4166804129716892 -0.501960069722271 0.36984727621370495
Ni 5.585520066652048 3.099618932379508 2.0410345176067044 1.1355634495158573 -1.5279230478994654 -0.9987720195846992
Ni 3.1934453460763024 2.066922328163114 2.5513577150213838 0.09934151261481601 -0.3375143684089542 -0.13507573279163188
Ni 9.554760578349118 0.23671426098507906 11.213823784490533 -1.0620126727119 -0.17540888519303982 2.7938249726322852
Ni 3.6762649009268555 8.183559755782122 10.923754433598017 1.0896936835669362 0.6123778947559065 -1.6727692298143
Ni 6.8681158599672685 9.168620550838531 9.42150991492221 0.707221519500369 0.6774471164514139 0.5345572869320019
Ni 2.949438862279709 2.5003252088019 8.546825457473139 -0.05621742773183221 -1.6015378451721385 1.2467968284722528
Ni 0.25756996228260365 0.8789603983535073 5.369873159512534 -0.004930090311765703 -0.6262158290802634 -0.4507460087423011
Ni 7.182023628021525 7.15407989733989 7.814733279657162 1.2257546630899727 -0.37735875409940167 2.4269488632317624
P 1.1404808974028138 4.368713717344042 2.695000798274037 0.03981198979061531 0.022676358551593206 -0.4186632692751435
Ni 8.582538794686974 3.1713849967961063 5.255078225318599 0.25143563434131533 0.115771118925749 0.04391367066381469
P 9.005303104519038 9.204787962021069 8.613270371706218 -0.3311514023054039 -0.34717528853748597 -0.3437294960807306
Ni 9.051204668131213 7.608004683627751 10.252867137768513 -1.0505270406698035 -0.8458093792103176 -1.8461217466989432
P 4.510073377292079 3.9313575027683143 11.177278755325814 -1.1927666381997264 -1.1095477421783857 -0.30199766355958313
P 6.674933959402438 3.3877927342404663 7.856914606852262 -0.11200316724288452 1.2383908637967445 0.08455329856204792
P 2.404941703672395 8.143177941440392 12.481090152509232 -1.8608066024046275 -0.01480261223047128 1.927277589543668
Ni 6.419086121596611 7.610624699751054 3.4508381542438076 0.10405254493724016 0.29569820370411654 0.4199511348486316
Ni 0.5602387003189613 5.881470001775765 4.264317729706406 -0.6462375236178289 -0.20126235592103406 -2.7911736510523673
Ni 6.082157642480307 5.329178062104103 8.987593287349636 -0.1850132410520233 -1.3401988356741823 -0.5230420872035507
Ni 2.7134229614641514 0.6192664514698772 4.771911821358484 -0.07677056929283553 1.0816942103012273 0.22638151958616495
Ni 3.3485111401925094 2.1138495208627033 11.0559347132137 -0.02494227176763446 -0.22068806874581345 -0.005585721617893605
Ni 1.8305800908197425 7.224568587347618 1.867369406185284 0.25325211872476383 -0.8514061565718046 -0.061784894517280683
Ni 1.0705516414427663 2.0177201036696246 1.2965555375850044 0.07357031718798296 0.35210229352545813 0.053087366743282766
Ni 4.962590254559945 5.942979775318222 11.439086430519595 0.9319935285075691 0.9475774989887553 -0.10737852398667957
Ni 7.88833708492039 1.6888101792367394 1.6392555112932112 0.34954070344586896 0.13894601438031554 0.18088764891942394
Ni 1.0153355009367127 5.655067042679514 11.073552223765235 0.9515310843198644 1.0431052942844359 -0.24406582423980547
Ni 3.929697848426862 8.73650436850941 3.187461266546281 0.5221144331829588 -1.3308161089077017 1.6409885949685932
Ni 6.463728958601505 3.583100484186483 11.897061519312661 0.5020996806239287 -0.4802802707559922 0.5168716967267808
Ni 4.925919352734495 7.901968627882202 8.638611801676058 -0.21535997166468074 0.1467950781110891 0.6895672967537156
Ni 5.050701117069605 4.554893368412072 0.1506695748915186 -0.554449912090871 -1.3477414239081305 -0.7474178892135966
Ni 2.8660458935721542 8.571424704939725 7.1207973010632255 -0.9382798757369132 -1.5456250931649187 -0.42130250667020347
Ni 7.69800829799873 5.702562993327579 11.020576616620142 -0.5521423470036169 -0.40387736921522055 0.9363808589419873
Ni 3.812309937421929 2.05093183830025 0.18158856231673376 -0.1572494406751937 0.6416000248458176 -0.2516369517188441
Ni 7.551613731621568 3.2083915590501637 9.771746397642751 0.5893081574206367 0.20312512016138567 0.3235717901859331
Ni 3.7484039213752407 4.682770667811013 9.109660864163416 1.2328084846129606 -0.2106268278550695 1.3725422850018942
Ni 8.95625938633906 7.214153790159969 12.560921391113222 0.4325343708302809 0.5067721463989336 1.1801394363540192
Ni 1.6255008928409094 1.5332035988744412 12.952152268457702 0.6594838471047739 -0.545624343379441 -2.6658249157405125
Ni 7.9652779142780314 4.91722947719386 6.798794522339034 -1.7046100284739805 -0.35975235387154814 -0.3350628215446681
Ni 5.888015380133625 0.6581741570959682 2.702533577726053 0.9037813277394113 1.8728869306079294 -1.2876801969501759
Ni 1.4108087531427687 8.027020785340357 5.161191206266639 0.021903484941310666 -0.6286969436309042 -0.44785557456838354
Ni 3.1278330561841883 -0.12495052693949256 1.273723169319009 -0.9988206134344474 0.8945963188060335 -2.0655435471378234
P 8.621671206322217 8.156828132203794 3.886815363892002 0.4271044580639612 0.3387994057689649 0.07001859528098264
Ni 4.101201679644078 6.3615949492966575 7.077551184397373 -0.05586647215031669 -0.4315442390028697 -1.2160186667491315
P 1.6580319827135237 5.0858335752639325 8.979145833229662 -1.4343222944231684 0.05497404224303436 -0.6407024527322128
Ni 2.789860300178881 4.1579935593844315 7.104025468313767 1.032368367482906 0.29357113005878477 -1.047234743071777
P 6.326378575995177 7.1325416865041955 10.019866586469952 0.7153860575890324 0.5814087000679019 1.2604007924089327
P 3.623127990298014 0.31971189629894037 8.791520977538458 0.5548432908745478 1.495951380088875 1.1828187829583952
P 7.555921373788708 1.4322257532681326 11.119254255900405 -0.3947509814339201 0.22455475079007134 0.12173247871550646
Ni 8.703255338275607 2.5505810340851873 13.060696459558889 1.0484521604186459 1.1866528119925046 -0.32629921641942516
