# total energy = -340867.23359611 ev
CRYSTAL
PRIMVEC
9.26272832280088 0.00000000000000 0.00000000000000

0.00000000000000 9.26272832280088 0.00000000000000

0.00000000000000 0.00000000000000 13.55693919134939

PRIMCOORD
 96 1
Ni 6.829335575926137 8.244374811300329 3.879141747877825 -0.48578808794809875 -0.11417214986974532 0.9341414280885073
Ni 3.601617436038617 1.8080753284793625 9.224697528141496 -0.34481604427669005 0.7558318243089047 0.7408044976621371
Ni 4.08717892351661 8.758641494209433 12.237591691263297 -0.05632978493998041 0.06783650002799929 -1.9212573514915172
Ni 6.274794549766155 9.041441856167248 13.367386130644734 0.7793165376944061 -0.5723856706336852 -0.45957312011562784
Ni 4.21042878812015 3.677599597420162 5.115345485288651 -0.10849052610393575 -0.2978299053351387 -0.9007733941510229
Ni 0.8739050823561869 7.93443465501752 11.906612173605131 0.055898610939832755 -0.7097368297230551 0.2698673586839417
Ni 2.894102449715741 3.465677633474244 7.08770363908155 1.698549166991881 -0.23226266095729028 1.3679001582441928
Ni 0.6992072451863278 4.090420878470107 8.28145999714981 1.5236213352003178 0.2863627852358036 -0.6515936457234198
Ni 6.705335430319074 1.8818992741347218 6.694877809911934 1.2224348546881205 0.18697165032997476 -0.1739338433094101
Ni 6.778362781328717 4.5620049087343055 4.623295456539443 -1.0822657665339814 0.028364924295938246 0.10108446344785171
Ni 9.2336527339959 1.2464668405207548 5.430570954418504 -1.4208134613034564 0.20758958369064248 -0.8219063473404749
Ni 6.33503007280214 5.384618558634785 10.537158529968492 0.8093169407112384 0.13396553044658865 -0.21544276118647415
Ni 1.9641523026691752 3.246743784100332 10.395407291581764 -0.1451400590061694 0.43595522358637173 -0.08343821112099824
Ni 2.473870985914944 1.1266349227110453 6.038695012049896 1.3755147373666567 -0.8033080155129971 2.143985847706127
Ni 6.49306148269249 2.6968341221596313 2.6512763186073958 1.5397364955946256 1.762617972447332 -0.9750394518544498
Ni 3.5289883823518324 6.124840239074233 1.5109612722654344 0.0713933641413222 -1.7052669453316889 0.22074643278757466
Ni 8.440809493296968 9.097147904996774 10.574303923552824 -0.5398031087119736 0.10114154193803225 -0.23688678999286297
Ni 5.072344194785458 4.282437239001551 1.0340215324180575 0.4404243151013189 -0.09094248991784337 -1.627210053127262
Ni 5.576255147300248 3.2383239639496764 8.461495944718814 -2.2520187174473536 1.318392538432368 -1.8331929544524173
Ni 2.033400460475884 -0.02298916571167337 2.1145169522309253 -1.228246319163575 0.9785520929933986 1.4829878779496717
Ni 0.05266231626461492 7.414313927735243 4.780407077495844 -0.0438938731694728 -2.2155702448123327 0.010084637929511664
Ni 4.4596147085744136 3.904388240509977 10.507224170473583 -1.3823204474345807 -1.397075237146252 0.3239291735253518
Ni 7.634664974560256 8.573775960032561 6.356876217824494 -2.629586245123452 -0.09346757033254224 -1.312675690553249
Ni 7.045147885816253 8.14950594663255 8.718372708595616 2.3204563413944617 1.1668779433584227 -0.29083599051580883
P 5.561703400923262 4.159372628966782 12.342535625653701 0.3561975466407543 -0.20015369623788754 1.0056412359007068
P 6.742006572207351 4.196127135411007 6.650329643759502 0.4340796038302137 -0.5502276464794073 0.8350732237397361
P 5.382052782857303 7.958137977091806 5.628800753186536 1.4832897254608066 -0.44195514992354856 -2.0874267203641597
P 6.520997871663201 0.8597812740330637 11.239692020937108 -0.030181151569070603 -0.3243312940597769 -0.012161317952882281
P 5.599976994831411 7.482293091745868 1.609208253994757 0.19615691637366864 -0.21022650709285728 -0.105841775627179
P 8.106684353061066 7.566889590575279 12.384440209109766 -0.42560961868598957 -0.2940241584358033 1.0791819854023348
P 2.496573933317866 6.08078670262042 5.363505095431922 0.9954642953677049 -1.687901457470048 -1.629405518116684
P 2.38168831249435 1.2118427616174008 11.121665408900075 0.296235050044193 0.008063750844740952 -0.640756960119232
Ni 1.1390099279049677 6.837672031520845 1.5509549548446244 -0.30454382702020455 -0.24293479595915576 -0.19684622913120936
Ni 3.493308352406482 8.265438255769626 0.7554903619975776 0.09767878020041242 -0.5322574351542317 0.07030270218030474
Ni 7.855071597755899 3.3078222154242267 8.40579082216213 0.04139733199986419 0.0014339042330491433 0.2674572065805523
Ni 7.144499911048297 5.570808662978371 13.039213219703456 -0.5106249444861206 1.6252902103967297 -0.9553157481732772
Ni 4.615006240859772 1.9692468033103858 3.3128009319599547 -2.4159622823132714 0.01847748997889721 0.12784296248861854
Ni 5.14209253992785 6.519163851432365 4.103224747990735 -0.636620312243039 -0.829252503292901 0.27491057753480397
Ni 6.250887447666219 7.57888482390322 11.185451335746562 0.5477565592310953 1.6219050959745809 -0.3084128230573076
Ni -0.1547885286640084 1.2170947286420668 12.439182934181684 -0.19962147788350137 0.5873052680579951 0.25156701771285706
Ni 3.2470494541388044 4.764682669698537 12.240560395727856 -0.7902856351114002 -0.9629138722355093 2.1018485522164445
Ni 7.931878141968476 3.3557290469084826 12.411730059635465 0.2297650913464172 0.10771559561112416 0.18913343386798395
Ni 5.838816447619799 2.0150046817968947 0.35592682416175 -0.3339945281811538 0.44038754832611254 0.1433444005583273
Ni 2.6698425314896546 9.030085751101566 7.970680637670467 0.3143366447409102 -0.27274133779762705 1.9879322271112472
Ni 6.460095432179639 1.1790712284017593 9.020434914341427 1.2480774949568894 -0.3183776475795033 0.3267509592448631
Ni 6.949852935640301 5.886760330017808 8.104311242035106 0.5091912973633876 -0.7367910056273698 0.03714986957741989
Ni 1.2427432236884521 1.54971930687092 8.469467448813042 -1.4144427818904222 0.7157197867793673 -0.3682351945315787
Ni 3.0370726631649845 6.523304291044403 8.432429502878598 2.6069397113685295 1.7719261372221355 0.25996115531382324
Ni 5.060608317853797 0.8922915983067375 5.40097653705729 -0.6318707133731957 -0.7328106808233831 -1.6689639971355965
Ni 0.6441634814401579 8.659595139015861 6.68414045510595 0.7012797000946374 2.7694023208135468 0.6186074206053863
Ni 6.48312257507791 3.1117209916513766 10.522272399094875 2.2069459934784312 -2.4698202086739918 0.9509638989624848
Ni 3.253357372205467 8.060750482734225 6.016108775025299 0.02553568237725925 -0.505333099959562 -2.0102247199608603
Ni 7.2343946905445655 0.4439968461556218 2.0643694667373804 -1.6184158518744 0.26721500866275916 -1.6194887732236043
Ni 5.054439340713714 8.750249462244094 7.469738389620238 0.6586402681575559 -0.6473662379056334 1.143742900002856
Ni 4.8108851591500965 5.141045851614292 6.8690439664694205 -0.70933470918863 0.9718271155647392 0.3160019482584751
Ni 4.065263308030966 6.304148136187966 10.685715094939033 0.3817584258289941 0.7920890068687262 -0.3564657127004764
P 8.596080610112624 6.726352561146177 6.774809598699683 -0.9084869607451967 -1.2665017631003477 0.2176477392575929
P 8.045272463513383 2.1055385895554246 0.800238603084283 0.41671951528521134 0.003909619467051332 -0.5156311394514604
P 8.522775377249825 0.6957068601093943 7.654898478561456 -0.9908291105885388 2.4949856521960254 1.9349474473840997
P 7.607654858433402 1.4193371413696854 3.9322171818308003 -0.012535670573165507 -0.34009112799719493 1.287106326724577
P 3.483415758434095 4.61696067656031 8.907383313748747 -1.3637516832934578 -1.1887212644857592 -1.2134704464059811
P 1.5111585683811757 9.05503954151506 4.461602490097329 1.3755908420202312 0.341634818335231 -0.7173760914358678
P 4.797972915706738 4.343497144868568 3.1465655234915686 -0.09114329307473981 0.04739005924818935 0.7079378288411033
P 5.31915885675945 7.2003541635328405 9.028718572384035 -1.8331803560469266 -2.1504532005980255 0.7687904413521018
Ni 2.8373497125726557 3.5408817256669494 2.2837479270763437 0.16388674348605323 -0.3076296650343799 -0.8420288291219628
Ni 8.429286659119393 6.71368114864222 10.063438514526359 0.6229371583289917 -0.5374495208781325 0.5120012560083569
Ni 9.289127214614464 5.051475267613373 5.353689382105575 0.1553411679088873 0.001434161343365272 1.0986020418001596
Ni 6.567978430303601 5.607479804866648 2.4940841119135797 -1.424363897658876 -1.1420323450696523 -0.2162745130591501
Ni 8.986430511970612 8.858836427729386 3.1900021622313735 1.4878421207181796 1.7845960193803199 -0.9812484088786393
Ni 4.60282575296306 8.890459382618646 2.8980530033947884 0.5168724680577292 0.2212647671848899 0.36433148860179837
Ni 1.9566865435476921 0.40373454445171325 13.037600578682301 0.6627689456139488 -0.09879900984778468 1.214955772702256
Ni 4.541932576207937 1.684028869230106 11.90646304367727 -0.0741999803521819 1.261501738782595 -0.5021325907443933
Ni 7.87752445149098 7.178142140737163 1.6551671336883826 0.347331354499376 1.8874632857602074 -1.5901262609010873
Ni 1.8382532977322057 2.7608025247563583 12.875472264003575 -0.34643763904051306 0.9922079932139364 0.336636079569059
Ni -0.3894569748365099 2.198017670286053 10.388398184972301 0.10194809699972765 1.1742773211462874 -1.0148918079646974
Ni 2.63541296988351 8.200562105785918 10.332949639993368 -1.020303465898572 0.5333959196340491 0.5935515060780229
Ni 4.640349065867685 9.120999430726078 9.866211869248225 1.0976332501289872 -0.14760163317278452 0.6316729955400928
Ni 1.6464314544979723 5.20113317099526 3.449142736938562 -0.6735899474888528 0.23296200101716005 0.14677785171990854
Ni 0.44292422220243605 5.462193909307763 12.442775946543003 0.09735353565050975 -0.31882707641209607 0.19079488073080692
Ni 1.9307786921050272 2.192571185964177 4.284047101204173 -0.34346750066859555 1.5540835083449172 -3.136782109323365
Ni 1.4679386774868335 6.787282788815054 7.016489004027334 -1.1314075183659549 -3.469383870922051 0.33995691641217585
Ni 5.0706398527527625 6.9193970845343005 13.081890314711298 -0.3177423279883495 -2.281730899799806 0.979244748185049
Ni 3.017222636121141 7.278753897036852 3.506163166933522 -1.9156867993822748 0.578751464950713 0.608413767901836
Ni 8.569561418593015 3.5844165493282025 3.599461999130963 1.5687405961364596 -0.6520132497593416 -0.5319355330384387
Ni -0.21271670604594728 9.058003614615401 0.639007846791253 0.3263483244898057 -0.6169341466680214 0.06314912185465898
Ni 8.023190118915846 4.363588002851815 1.1022230019112085 1.5812477274645347 -1.1820363962664158 1.2588257346123288
Ni 0.6738088438077838 2.1384490636976445 2.0222073794307223 -0.3348293653776233 0.08828962567602859 -0.5597924073497069
Ni 1.5140763278393234 5.736278043804889 10.072738293878679 0.6784331345137671 0.727516008083347 0.5203154323010072
P 4.527630923498792 1.4836204767333234 7.359344265816582 -0.7766130227203141 2.1098485397027855 -0.1880250312951536
P 1.5032667237515187 4.618387136739848 0.7489101197148214 0.4091851545813792 -0.31527766849794087 0.1768250488142761
P 3.7872888275896437 1.1503660329706478 1.3376806325466755 0.2027656799394379 0.6704146350846648 0.0480577747391753
P 9.036467770995738 4.571971604534202 10.327093743074506 -1.076690586439049 -1.741471163166388 0.21912098136900973
P 0.9624530611374886 7.732145928647709 9.0911206476018 -0.19934714117619215 -0.049511733576882475 0.16539340993856677
P 2.7145351962057283 6.774722529052362 12.516661026206055 -0.023069737335269947 1.7478058471351643 0.08940214201391698
P 1.1281632729034086 2.8857289432072784 6.238551345931739 -1.688433675824434 1.3340546704496572 0.029764889967258415
P 8.67271116248487 5.7773767698868 3.0060341864401985 1.3067960918440202 -0.9191045883600428 1.3858510862956586
