# total energy = -340867.09235487785 ev
CRYSTAL
PRIMVEC
9.30628163042434 0.00000000000000 0.00000000000000
0.00000000000000 9.30628163042434 0.00000000000000
0.00000000000000 0.00000000000000 13.62068385948941
PRIMCOORD
 96 1
Ni 2.8733145179520734 4.070074443668941 6.833797256050633 -0.21285803117843344 0.21399523010667018 0.4695939946867397
Ni 3.4744258745304064 6.942718909328569 1.56887160507011 -0.05433383755587417 1.480955163790359 2.7122973482704387
Ni 9.202433040473672 7.843176127556929 12.297066761248677 1.0755323044648897 1.1471107880338245 0.3020503711743895
Ni 7.788929810714363 8.553217513066855 8.839088809241442 1.1851965391619526 -0.7190403665121681 -1.2279151610764012
Ni 2.2990052530715603 6.661380703038013 6.984864267895206 1.0348561669017662 0.5490472530180609 -1.3044630728354698
Ni 8.826291741083917 2.7710757056630966 10.276383548523485 -1.0824645128083488 0.8318254062263996 -1.026982163470328
Ni 6.610959268031488 0.454849178047503 4.345666020923592 0.9809249641009492 -0.09418902187959907 0.563487596813107
Ni 6.869766965988564 1.4625287224899046 8.354342270156295 -1.5121773550294344 0.2995399460477099 1.2548415531536001
Ni 3.856904751852875 3.585859293276829 4.738063533430623 0.7925348361568931 -0.1268083505765171 -0.22453675306794235
Ni 7.740937315267954 3.6107349846338685 6.614694809561872 -0.8930325738633393 -1.7360273664429975 0.4154643027218716
Ni 4.336308554533954 1.6426238886483129 7.627964637505274 -0.0016771305921067891 0.35064936312901546 0.2912437674771887
Ni 9.069269453631966 9.160880492060212 3.8424223160542126 -2.5817102473777798 -0.2200275523436791 1.3669987294758457
Ni 6.923929526294575 9.201921194972499 12.75931164147405 -0.5286414356681992 -0.20096050840989904 2.3025995157186987
Ni 7.009175067944587 3.955467582815241 8.621743388763983 -0.09235942487002805 0.7113455689710717 2.519941807920731
Ni 5.8361461609184975 2.0953465812954852 5.744101449756533 -0.58481181221218 1.0042073316676576 1.3060111340488798
Ni 5.11432302259974 5.741808381911275 3.9322781897275223 0.4440783669141384 -0.5985517875060917 0.1818880651594803
Ni 1.051665685556897 8.81628748810643 8.202212480925645 -2.4691779471043023 -0.23824716067549936 -0.36652026872300103
Ni 7.8688056277429705 6.419473212901506 3.324631962041478 -1.8167425222058775 0.28656410261333226 -0.41346578423460406
Ni 8.018301739213033 0.7094727716895302 6.511286197645667 0.9488193418156561 -0.25844034779392266 -1.1133943696179858
Ni 4.5356770303820095 4.955166990580254 1.372924118426262 -0.6655215686584216 -0.36565303562669926 -1.2567770796134163
Ni 6.0514376849939735 6.129517389627554 9.149531481356915 -0.5017649229923294 -0.3056098063908737 0.04306134996584842
Ni 1.7475801352344296 8.565995038032517 0.42623980641644793 0.16490130079349663 -0.3540961840270353 0.08112807493058287
Ni 7.248132466737964 6.019154193292676 7.07538740197641 -0.05798454693458401 0.3995250057837958 -0.8151703141682217
Ni 5.396080011573074 8.437856843384155 8.957179942015859 0.5218732637064303 1.9004108470598111 -0.31933126974202425
P 8.699074868337666 7.65496588363446 0.6696335097627253 -1.4074020729935568 0.4403962900768608 1.1116958988696402
P 2.7132371640304744 2.0158057904131 5.741513372776962 0.5237779369283108 -0.2852883212247022 1.4897480794916407
P 3.730907002027602 0.5700972417199457 13.056978649880229 -0.519255366467609 0.8583535344239153 0.9317623863333695
P 4.958917422161581 4.121668470187244 12.614183898699457 -2.0794748125069344 -0.4273623397110382 -2.2524043829215463
P 3.56913590481121 7.292774700722147 4.446540532294895 -0.36653055313564614 -0.9140346300363031 2.0349888142794175
P 8.763641851740262 2.4116019570479237 7.972009501458705 1.5673565713047395 -0.8527600994965379 0.38216080347373543
P 1.138567745374343 3.728710719513475 0.7827727699703325 0.4088771364226571 -1.6323882548940918 -0.3250602018060015
P 5.769950578193986 0.2581999977529551 6.736027320300994 -0.22284239608465495 -2.3466962489275973 0.6860112039713412
Ni 7.134763341368922 8.725560546452941 2.1802626805683776 1.158414900192734 0.4607979936616645 -0.8710460422899192
Ni 4.572650888130426 2.8043735820849025 2.5762980186464763 -0.8320537201871219 0.10110091850808395 0.16210882565002402
Ni 2.3123318486657545 4.277036845498046 2.2888604752382986 1.196174635440011 0.6651916961228286 2.1889197321043397
Ni 8.528211533764063 4.138913010435877 1.8421570856849283 -1.3110931765574776 -0.5394765786104901 2.4228104155833563
Ni 1.1254365816987792 0.3777931644162701 5.676924054297951 -0.15368923412776112 -0.5245508105385934 0.4557401195227828
Ni 2.3936594456613274 5.446185032997054 4.598574466822596 -0.4036210302300404 0.19838503437323898 0.06343271453334882
Ni 0.8188616003158106 3.408332660906129 12.42360334479246 -0.318495146993974 -0.06280613669294344 -1.9792817505251006
Ni 0.49917685970550885 1.036301014239848 11.474759044767692 -0.6793042242648107 -1.9275149023654548 2.378911914428193
Ni 1.660473337216514 2.3385290320440055 3.8043661377278597 0.5607234038044084 -0.3453372068874827 -2.1081025035459566
Ni 5.037006433077 0.20832949463133058 11.32810507177142 -0.33594856658373107 0.37347124611953747 -0.37421378071251676
Ni 4.868078805126017 6.380805611858297 12.612236093910445 -0.943434166244343 -0.11902767818983372 0.4606552974362131
Ni 7.411141299439013 0.6590587817084776 10.771414459669488 -0.02674770040748942 -0.29485128232278895 -2.524778310077426
Ni 9.26967092676421 5.350804950423805 0.2433853276926218 -1.0920912372648355 3.079336208501071 -2.472360458597342
Ni 6.754061963877801 2.2489281504930987 0.8208978147822977 -0.508486300876563 -0.4353466434680954 -0.029506494099549186
Ni 6.6485287278176335 4.531898679955164 -0.0027044055025647693 1.0457594440778313 0.7687878702489405 2.621271040389537
Ni 4.621229679332726 4.011109841933736 9.6075131538716 -0.24996316356084688 -0.23167182145082682 -0.11646017457297363
Ni 7.474824186066853 4.65455547460005 11.610639135278353 1.9492335249894688 1.3293207553090978 -1.3185059240817811
Ni 0.31443878953736376 6.848688237622049 4.863469403730902 0.17476533807176997 1.3578929105198356 2.0534112826506634
Ni 7.993044490300574 6.887402370074456 10.503386097665814 0.41073398712573783 -0.7249189367801321 -0.3873762862364038
Ni 3.368399405532745 0.39333558571645394 2.1995908973208786 -0.8813955038450433 0.18836390269181105 -3.559730122016792
Ni 1.1216210061445757 6.330207357496823 8.950273750262749 -0.38960157602249673 0.45830093827142354 2.0093029794775394
Ni 3.7566854027230745 7.00387048729606 10.140763103276146 -0.35483923284064695 -1.0312540513728046 0.4882481194528172
Ni 0.4937624649312756 5.097097094914786 6.915125783674389 -0.5117811695777509 -1.060071489825129 -0.6677468584445145
Ni 3.291622580356697 9.109007277086722 6.32684872038094 0.8389476190934777 -0.4711456554445757 -0.8493811557219759
P 0.3888229696524702 5.2889460950365095 3.430546755657065 1.8026461920138115 -0.770156468461693 -0.6748413033974506
P 9.222934779366136 7.119389363770034 7.2257592345675725 -0.2430993465614781 1.0489360420336 -0.4433335183283139
P 7.1180399529033025 7.727247774682018 4.939936329721694 0.308551662628017 -0.9853426335526708 -0.22718884597880873
P 5.524032080584647 0.9048125581292576 2.5730836288991057 0.17937249782647818 0.27552558541098354 -1.4260232876391699
P 3.160618050901762 5.331494415606798 8.629465741434418 1.3234172453404691 1.5469044740979745 -0.7759131684398121
P 2.691814103235897 7.321633480706501 12.359081962170878 0.08038219790349382 -1.0256701295271238 -0.7545737835320876
P 5.830273897077761 7.506809876749287 10.885133501235696 1.064641882804631 -0.5762181570058978 0.7653883576490882
P 6.282977977161254 4.414825654413992 2.3239070020177506 1.0528328059848449 1.8469275304296902 -2.2009679215181253
Ni 1.0267899941998577 5.796212905545114 11.620786704996167 -1.038122496357864 0.7250881153681448 -0.32100942877539557
Ni 6.319523745945053 2.9002655101593255 11.018016968994033 -1.5588855577192509 -1.2576252865463244 -0.2924149049671545
Ni 4.958768521652148 8.346506380847417 0.7094281015367006 0.5731513451551161 1.560589684894551 -1.2392742948429625
Ni 4.824106623434281 7.144227829999714 7.038692732683179 0.25034471526998175 0.18101697540843664 -0.3450767541372444
Ni 2.02358584203094 1.9712938443746721 7.956767673061939 -1.5673403733548232 -0.6342672386298304 0.28558168409540496
Ni 3.808316654368736 1.0393255558376924 4.208246671396675 1.3620287870650802 0.12021989872572199 1.6809893037312467
Ni 7.183007106424998 6.913934579598931 12.813781309080765 -0.6811052820292914 -1.255153170856748 0.2891966551401729
Ni 1.7872248958707884 1.6340621093559535 0.11570686336713107 0.6781120037289224 0.10480407839128401 0.27991085896287277
Ni 6.331593993490911 3.3375676937984124 3.9601188624786334 1.7151543796487303 -0.5629214398969917 1.7020209275905656
Ni 3.064018845407535 4.866962051305275 11.505446509133515 1.6892206905021037 0.22758428164501446 0.7809471313192937
Ni 2.2895593770044464 5.775646022679773 0.2612422212862945 -0.6826029496207405 -1.2896172660718888 -1.732793689997048
Ni 6.427532452974532 6.595520146459723 1.4777491464384411 -0.5177751823776567 -0.8231348204309371 -0.36461405283922366
Ni 1.9920654654404826 8.508100658708859 3.708530977972658 1.684934147311608 -0.6654758030221506 1.6516902976568135
Ni 3.4670646055953456 2.4879506932593527 11.487126162704232 0.17511603654296937 -1.125137883307159 0.10181157142186338
Ni 0.7046735221448893 2.719034977616496 5.782675057353163 -1.1367911512753712 1.4949149684045608 2.634997388836694
Ni 2.595726743242844 9.049428460750109 10.824153158854052 -0.3545091031947379 0.729281327513886 0.9800636445419184
Ni 8.41500992146813 1.8256970649953677 2.428704111184411 0.3300797665077799 -0.1331432916556094 2.099676998486423
Ni 0.5592507702359841 7.388294377522989 2.404949826789034 -0.030666832956237507 -1.3857130180558972 -1.0482063629564269
Ni 8.296494422241832 4.564647485748439 4.885862179093158 0.9786086572629469 1.4377637160045498 -2.625605406098833
Ni 8.77438130098307 0.7317613166951827 0.404891195876587 0.6824923921848053 -0.6715760023826176 -0.2582403159679746
Ni 4.17207129263009 2.7143446115693775 0.383273633791564 -0.9323779084301813 -1.0604293873851802 -1.207453807898256
Ni 1.8572639729950224 4.015185993379447 9.632071501017913 -0.8390142106653551 1.4754211213460073 -0.47578598243006454
Ni 4.973109501966849 8.14601184489678 3.206104364648788 0.9927456108849613 -0.07387653557449213 -0.29382232683764237
Ni 3.1390460895977523 8.650551914826403 8.543955901380164 1.4030047152568095 -0.00012572694458688025 0.25587592950085614
P 1.5757303347858367 2.1217019714650083 10.163536505565638 2.1740870379668817 -2.504431628100274 -0.4034207412937762
P 1.0459050970982338 0.637025228825228 2.4387967738393717 0.5654663178060326 1.3296524276169035 -2.860958275945673
P 0.5185879023663816 8.314353177091872 10.363270718289987 -0.17462855538358957 0.644196067707768 -2.0145053496140854
P 7.808575371677591 1.993768515017115 12.340367029391603 0.7500825805299534 0.5512661150462506 1.3727502872476423
P 9.08319165126389 4.882112678140014 10.000864560267182 -0.8491407575763956 0.8570936938748852 0.18334356665908422
P 5.688809106835204 4.325215466581245 6.022481189050305 -0.5472652214169736 0.9353339057347118 -0.2736887893125609
P 8.26217285481768 2.269969653732255 4.7305859359725675 -0.9899803894349983 -0.9783500042849214 -1.2152473358007458
P 4.965711007904431 1.6567135993533475 9.674771513982186 -0.013342225634860894 0.6751246389658244 0.5634387458530427
