# total energy = -381164.0870233827 ev
CRYSTAL
PRIMVEC
9.34242031992743 0.00000000000000 0.00000000000000

0.00000000000000 9.34242031992743 0.00000000000000

0.00000000000000 0.00000000000000 13.67357648452958

PRIMCOORD
 96 1
Ni 6.3040784438777155 1.2861149632442899 9.182504330801404 0.7182116999632856 -0.5760916587303627 -0.8543930071142705
Ni 7.332977888409475 3.908672508478489 9.180821760885665 -0.19460679827772936 -1.611115718668561 -1.9529258862393915
Ni 7.7918121819779955 0.7425860232120065 6.046578915584737 0.7241118674978045 -0.3886854919661306 -0.13353564199802162
Ni 2.2435635764846995 9.2938304808843 6.286741714323929 0.6820589041918124 -0.33565031861702194 0.5569819344841053
Ni 0.4315628341513424 6.058662402142299 9.022180922639192 1.009426671085068 0.7436931320638417 0.24860639242263635
Ni 5.853465480269496 7.040242487300277 6.7891359772934745 0.8739642443779787 0.6411482820203797 0.2558131945837207
Ni 3.2458371228495726 8.649427690723195 1.4925665721780799 1.3415095840658058 -1.649638043113475 -0.12140774838623607
Ni 0.428152850701899 9.128273448808724 4.900295695576608 -0.12485662616678499 -0.5292045072605208 0.2004786836774741
Ni 3.9385402265274485 5.643812223861394 10.808757202070318 -0.16575413571209519 -0.32365072305298453 -1.0245995221707642
Ni 4.512613275846334 4.304865873201756 12.610169245111623 -0.031175654271855983 -0.7355705029567075 0.9288644959602841
Ni 8.05323178987477 8.896086274373065 8.810322855014464 -0.014749647505348792 -0.4422667676266963 0.19101419583046458
Ni 9.295895155794783 2.142067521156611 0.4393740318556699 -0.4659610259198427 -1.1173464122871983 1.1841835245164056
Ni 5.647820122217041 8.782753372386225 5.001876766930422 1.0841259596711716 1.1062073649512434 4.17303438524171
Ni 7.034020435307594 6.613434010895295 4.822109913412097 -0.35173102622896846 -1.2996206571415037 0.1986596281908643
Ni 2.3160327316006772 7.92965959511919 9.484717617415972 -0.4908037959951354 -0.8768047991505674 -0.11059394560018374
Ni 4.969485661128874 8.103017548236643 3.2028442383673994 -0.8422879963206203 -1.171735014340408 -3.4169163971509544
Ni 3.6514196200843205 7.139898085807706 7.1809384044243085 -1.491881838005192 -0.6138261971666589 -0.2345748540302347
Ni 9.086624938623467 4.268028709527358 4.988106973488957 -1.2106478893555213 -0.29599208079545153 -2.860958790166305
Ni 2.09440249222768 5.0816133908828975 13.376805461183634 1.8889748373087276 -0.28076883608779385 -0.5018770230901616
Ni 0.783989761982535 2.3025796462110923 3.9093031218561256 -1.8171937508106832 -0.17231687653127742 -1.9214208736525749
Ni 1.7058979395013771 3.253619359050631 1.6581534999989658 0.9492651711038234 -1.1547827027567854 -0.16123773589898036
Ni 7.570415503115234 1.088401320119443 13.045863297568015 -1.323745060993533 0.9879805853961501 -2.092655572863267
Ni 7.663120340838045 6.502352632227129 10.374963397925203 -0.1443648714030417 -0.1650661085061351 -0.9475433033167101
Ni 3.892379327284436 9.240391836142338 8.359054053493503 1.8058083917918772 -0.31335268356108614 -1.0847399391060866
P 6.069209994784551 4.414928928045295 5.913439148087856 0.5466373580249876 -0.5754979910104218 0.20719929023075928
Ni 8.798373899310798 6.350061837132949 3.2068231752197773 -0.061921162984828845 -0.5745294564495653 -1.1583855896166955
P 6.059381768513827 4.772631520681695 10.457318702318442 -2.0822032671816912 0.9919616815310852 2.0948476954185797
Ni 3.945416247948792 1.1237997510507873 5.265175135571535 1.3951908756393456 0.5264919934253642 0.7142545150877505
P 8.841349033194193 2.1754760165407463 8.532817467656725 -1.126943826167646 -2.190089841153041 -1.4928120631289452
P 5.888882596041659 0.6557865294299984 6.920497882186442 -1.2437824671259612 -0.46084221663603864 0.9228717687119591
P 8.855979263555367 8.226468291526901 10.773452195343067 0.2861663529542814 1.2018783706930076 0.23094959857282163
Ni 2.6923454256926695 3.0543268468765903 10.789313756714204 -0.8750695616270155 0.7197183664157992 1.3613672422216812
Ni 0.4463817814047862 2.685488089112145 12.042989033570818 0.9408386376030248 0.7563612144498135 -0.7899236237862911
Ni 2.1483269428309315 0.615699137695159 13.189094747591168 1.8515904831229983 -1.0657446289505066 -3.49416442030084
Ni 5.374367476832915 1.3860041222619555 3.1902917623052844 -0.15748418239381912 -0.3120545335749529 -0.8879875552402643
Ni 0.08933596092316942 4.360079577821509 0.27620211971062264 -1.397318977725942 1.0101697198986797 -0.6719601251949138
Ni 0.5480413290900397 4.429306913055414 6.9419929230644675 2.315270683428464 0.7862104366007622 2.0845334579767645
Ni 1.8356921862496403 0.712812663609182 10.973878877354814 -1.2966993697296505 -0.8628089990921076 -0.36443150451477235
Ni 6.911756179409334 7.370590472977855 1.7605959425145299 2.3713341020809353 0.9169620880957433 -0.7222416470582852
Ni 8.652071595699065 3.831662937043526 2.451672530799123 0.439362706606024 0.05746569831663652 0.31674705395461583
Ni 6.195538203560914 2.1273438665913433 5.19006581244785 -0.8762422417788779 1.5181065760296757 1.7034931412607177
Ni 2.304868539211404 2.7988116486785763 5.289089863335603 2.3001705945622324 0.4441639846494092 1.7320850939657975
Ni 0.3082718462500859 3.730596633054272 9.482748235193664 1.7723513976850118 0.6442629163899614 0.958550453060491
Ni 6.715004805586659 9.141343494961522 11.062210528083968 -0.46306802064276376 -0.6570901500616168 0.35179993179369085
Ni 7.60331950779726 1.7866911912021601 3.5459960112161064 1.7391368586062566 0.3950929381543712 -1.143310697561444
Ni 4.79746367412997 3.6595662106813465 1.7637686284855736 0.1652489139409025 -0.24405142606210228 0.33665639128403313
Ni 7.025817790188111 2.5903448796624713 1.0590100655113643 -0.4811673013466358 0.5283917815512384 0.8344003660424275
Ni 5.97121734711 6.692302723991736 12.082081457532052 -1.3485364090056 -1.7653981062956303 -1.272984285500898
Ni 7.0218285766732835 4.7580853721042065 13.267184302825463 -0.17770153788195847 0.08522615625935644 0.8681671780802273
Ni 0.529012687200105 1.7995370192651317 6.254950391912668 -0.5580761959895486 0.21696999646427795 1.3685390773797723
Ni 2.4110171199033905 2.6018734264477126 7.733241745705132 -0.21210495506249277 -0.31138964629744437 -1.0032267129219432
Ni 4.187796003051141 7.9549868968491655 10.918761399665277 0.4450204191124336 0.7043598816818579 -1.0158423448034248
Ni 7.913076798892446 3.2622143858273103 6.790393467080586 -1.5524084346353395 -0.388204438564654 -0.06923646569931946
Ni 4.987992995959963 1.7621393103661682 13.515441374607386 0.0936981982861096 0.6031671747909161 -0.32878984405176276
Ni 7.7025920670679024 8.691010803965586 3.8781274649498454 0.0946433358081983 -0.32449738732399597 -0.8769032724016447
Ni 4.508446556343727 5.665206366598997 4.892938539504178 0.7779350839658473 0.7149785377379687 0.01776812261669843
P 3.791724089793197 6.561069744500419 13.132280686355278 0.5575586329231816 -0.47068517086838935 0.16083844357803267
Ni 1.6971814612593752 5.4167260109692865 2.226181069070907 -0.725292518069467 0.5852470999773857 0.5252637774452179
P 8.737853699898487 6.3245476869947845 0.8403656637012222 -0.25725712611909884 0.4039593874060656 0.6348601350188227
Ni 6.468962821683811 3.9788621130145647 3.6258494154237004 -0.27405208618925064 1.1657397159889213 0.13176338058894727
P 2.994142974599018 1.4175534759846133 9.350784678426331 0.09017784383767696 0.8644141387956985 1.0409437678567426
P 5.497463208147614 0.10917552490464297 1.1807025652805665 -0.2739816379626313 0.022064178888891034 1.29300289471467
P 2.917039978959961 2.5334869090506578 13.125689608756424 0.1483966182702541 1.9806341507879375 -0.10314674529351912
Ni 1.0627844033567755 5.313361471559312 11.056918981164067 1.8240159159388392 -1.3907989172192368 -0.20154132061403357
Ni 0.9896052242896809 7.632869583552298 7.445029944558182 0.4578854480005598 0.27878137334411984 -0.2065598568745475
Ni 0.16875120561356113 6.533705795121187 5.455333563311273 0.6409135403017543 -0.030982564424443415 -0.051146183856511915
Ni 8.969797971403498 8.613309893420325 13.075589945068794 1.3583081436803834 1.9484351974578895 -0.28825228894903265
Ni 2.660889496174106 4.565454005682092 8.888261997280166 -0.03805386944892802 1.6041493146530568 0.14114353625226658
Ni 8.18885570695852 7.897175999355589 6.720549532099659 -0.754097101005985 -0.03583192209694474 -0.8039765023349315
Ni 6.5775124044210225 8.17763546004679 13.47816791989987 1.3226893660355092 1.6140467762724264 -1.4044967264213035
Ni 4.429596528088106 8.716609035887434 12.972272117760864 -0.9212640579052069 0.06601230233506696 0.9954133875251115
Ni 5.503825396446438 7.493433958941499 9.191296482648722 0.7638395251047297 -0.4517682793592284 -0.783519262921844
Ni 3.5522124577565437 1.5723480397485214 1.8162067000016844 -0.4665287254978546 0.7615080487580757 -1.5122907406788473
Ni 3.978329595051227 5.837751529140829 1.6418406997220534 0.1546963352360368 1.0895206483241817 -0.33878886424600363
Ni 2.209828096386234 4.984414848943149 4.669157674952929 -0.747912569461828 0.9994898715873303 -0.4792960524658519
Ni 2.2216369157837588 7.415172503171673 11.911435609059458 -1.1090926569188384 0.09896973109769407 0.3703617539562783
Ni 8.142237029115446 4.346794655999294 11.331620708156935 0.6828855138581659 -0.2915882953008011 0.7421715532129928
Ni 7.922606067710068 5.850550645101753 7.906102682056803 -1.3239083260442748 -0.0870963766988758 -1.2071468181807985
Ni 1.0299831652992535 0.5572109147218989 8.624266684076508 -0.12535182063564862 -0.021669000333001395 -0.8517676536762814
Ni 6.177320483762518 2.6584324396064245 11.635708084305634 0.89629273267185 0.1144580565412803 -0.22983605379366867
Ni 2.531823958217778 0.5148336957447074 3.584131771327415 -1.161668117022709 0.8425147676194458 -0.22142417558088962
Ni 5.086695667585629 5.09658929079922 7.872301805015471 -0.1642983771021751 -0.4051390095364636 0.2366762166439537
Ni 4.275297112605898 0.9650253161924607 11.146713654929338 0.5952810871746199 0.4673566207157887 -0.004564993662863105
Ni 1.3990367987331156 0.5680275690719413 1.3329438455465765 -2.982898242686295 -0.2663287494030639 4.5452280502004045
Ni 5.007350491048309 2.6038727044153314 7.284543044038806 -0.303828803231051 0.3709263682104967 0.0006101227801731428
Ni 8.71800105652844 1.214701501634578 10.569496881142678 -0.34465920698385155 -0.077709279057021 -0.12154324552283585
Ni 4.782618568099379 2.8711126402271843 9.736912519400473 -0.20292097457037955 1.9669324849311287 -0.7058709190097456
Ni 1.3815664725674746 7.294197501289915 0.5882165395767277 0.05167814510058197 0.29655335261556026 0.35044058955231905
P 3.4750814348562584 3.077355913185844 3.4979329951777336 -0.050736607122919074 -0.20227151391183876 -0.9839773777740279
Ni -0.07995897355822076 6.6579319593054285 12.306765734136894 -1.1252867501801975 -2.199593923988734 0.21313288210637488
P 3.026467749215658 4.695388388736497 6.685162312072805 -0.10890627348511565 0.14963331889083262 0.6129836466607056
Ni 7.9783055781911125 0.003452024341285776 1.2954910163671973 0.1005455602252462 1.3968965454765425 1.9771166245529819
P 6.008605713588554 6.162494062572747 2.8960092563762845 -2.572099206650577 -4.141818364650222 2.906802587973297
P 9.289495597814321 0.559616587977328 2.893356008980005 0.48916703172266074 -0.19958085445355306 0.7860404866818012
P 3.201423256223124 8.080894696707103 4.478315382039221 0.10601918174530772 -0.6975102057498761 1.722468653921956
Ni 1.5293822482855353 7.713186371812201 3.142939704460069 -0.23782087177135816 -0.6331536938506773 -0.21840287225606256
