# total energy = -340863.8194384713 ev
CRYSTAL
PRIMVEC
9.28381059021027 0.00000000000000 0.00000000000000
0.00000000000000 9.28381059021027 0.00000000000000
0.00000000000000 0.00000000000000 13.58779522073105
PRIMCOORD
 96 1
Ni 0.41728313639824205 3.4953453051967793 2.198940105088317 0.06561532400696442 -1.236490047229606 -0.5766153924443166
Ni 2.6093541502238597 3.676370322809129 0.964262959859823 0.7358602662829843 -0.1857701738227059 0.47411682225775764
Ni 5.404022438432237 5.575847200008182 5.833321610539779 -1.8716818545562346 -0.8277568925839809 0.09676603857815594
Ni 5.830177183981223 2.8946456416453428 5.912742751145459 1.4581595060520822 -0.8847615921037988 1.0564866006873483
Ni 4.1674189025603985 1.8068801529739351 4.597348445389306 0.7063769121118867 0.10467012391658101 -1.0295031301199689
Ni 3.5506953823804723 5.674673360964307 3.1471374311731686 -0.21693322968907153 0.49760282119483973 0.8334876244201709
Ni 3.9810278425776744 3.54911713462448 7.1861092475405615 0.34042794251132336 -1.5399285570007737 -0.8909697777970397
Ni 0.7964915098736794 1.3363580778608986 10.680591158376709 -0.6801192639669383 0.30239541321863406 0.622663592952631
Ni 3.764093046611329 6.365138186590404 12.617598767213266 -0.6762253282291709 0.7936324400964462 1.9489463327663534
Ni 2.4937799954335556 5.212469579906384 7.290245748005083 -1.856998541512447 1.3563705603380383 -0.08902933205553054
Ni 0.5691458490039804 5.857620127314835 9.077910270359292 1.624768533565305 -1.7109187443008274 0.5483980494698363
Ni 3.4904248857222147 4.3333020255255486 12.026298961620315 -0.24806620364845022 -2.5781279293431596 -0.6167639396387442
Ni 7.877842241657651 4.9288677419648455 7.871165325268769 1.8107315401251072 2.7630882056700607 -0.5885095727787414
Ni 6.545810419410238 6.653966809747376 7.426381685912872 0.6084605619793715 1.1163110290441485 -1.6999532464282594
Ni 8.033940228535647 3.375073542379815 9.349856284432308 -0.08472530536353796 -1.5952317004484526 1.3336803178293741
Ni 1.7832899909270108 8.391060560475452 11.000325586120148 -1.7600054745251497 -1.6294194020737551 1.9427420037278542
Ni 7.145331039049844 3.48872594843194 2.527465372832635 -1.7440003573461447 0.3830946281419144 0.43289921036886736
Ni 8.99556658626193 6.957148203673552 11.388637664004564 -0.6634592868127542 -0.783572998977915 -2.1473205685063146
Ni 3.368509888476952 0.5700148136508093 1.2423827078018694 0.41360436669499734 1.7948421225883606 1.1627621214178363
Ni 3.0562117928073365 4.347784769639363 9.40491484997166 -3.4397416225755855 0.48859136172484885 2.0271047835456506
Ni 4.493605578482749 0.31458005624857394 9.3807825134015 -1.3670460377740135 -1.1130544697800637 -1.4712559342247242
Ni 0.8665954184328043 3.711091773440966 10.330270289122133 -0.29608618317115465 -0.7682235131050382 -0.5012648434274593
Ni 5.160712337320156 8.932464527453213 13.463425373558241 1.0136993303184927 0.5228469404736092 -0.7714124523559811
Ni 5.071782718175139 7.851021313616106 4.855693677329798 0.03338346055645219 0.5138095128616893 -0.7233665046913478
P 7.0069372784699535 6.86858065313138 5.059225436323635 -0.950938187930872 1.3692535869482934 -0.14935049754309118
P 4.590946329786173 2.8647889076260946 2.3642216371441243 0.3340420935896376 0.1091124759586508 -0.01800363566627222
P 4.211489150193909 1.2694496568171423 11.382264328213452 1.5462218462086532 0.23107815373088592 -1.161820326329857
P 3.082429273177472 4.708024461849836 5.246967290709283 1.40391719976875 -0.25654904430848074 -0.6325407428570268
P 0.40397293752902697 8.27850364404219 12.718597339786463 0.6350064307886999 1.8017581329819035 2.2200763602128024
P 8.628967483975838 4.186757079476473 3.8061319965447735 0.1169222018110567 1.665917496999789 0.13020066408751768
P 6.429688519810501 8.033113969416332 11.8082009042197 -0.46624821814295836 0.36315495179519397 -1.1925264971644622
P 4.507466307304496 7.145470296204785 7.6926209417764255 -0.9975294054268498 -0.14779472302019708 -0.12167257201184851
Ni 7.883802447889105 8.690407740735598 10.093014160725835 1.4349866674800449 -0.2542255383816267 1.0151157510500453
Ni 6.052264494680368 0.5287566321660642 3.5739708232572314 -0.3668092607183296 -0.06826715980751469 -0.33885211338377125
Ni 1.2313674668460741 3.344316278758619 12.613400628182326 -0.8358448117984378 0.10379466329016318 0.7214903707145575
Ni 4.382599058374494 2.6090477844829905 9.431628085813385 1.2571758577137315 -0.2905768233171512 0.3706643727983616
Ni 1.3629283430235501 6.05899525716916 4.839958547202553 -0.050567428534906464 -0.2708181526329852 -0.3394928322915637
Ni 6.153569432994432 6.119126496672477 3.146036371268105 -0.453632843371793 0.029256325761956064 -0.27581149208251854
Ni 6.260788158488306 3.5029858810978496 10.908933900475782 -0.9985974416800479 1.160642246861356 0.6772447706326208
Ni 6.3684432230676595 1.0471488184804219 10.473594681367953 -0.45883007130201625 0.6446231279428576 0.5766346757180263
Ni 5.158651331427036 9.090614236414 7.0442526257078155 0.09254017342226643 0.44255987338708297 0.08326928964330176
Ni 1.2097176211579876 6.030512527078658 13.00357411003778 1.6785799229588059 -0.2316705358992462 -0.3606291000495467
Ni 7.097305888216023 0.5786125503968371 5.867671708758442 0.2763509095257563 -0.017203251252163917 0.4354476878223339
Ni 8.211725196343046 5.247618085813371 5.515924846237275 -0.1275951081438706 -0.28813041865918765 1.415702622439452
Ni 7.149842970869917 5.627855105473302 0.9012481688682037 -0.769644561822281 0.3326141028938594 -0.37434619252532303
Ni 4.547628070789342 5.23059157766931 1.0231659512565652 0.5467191191055165 -0.46799785384421344 0.1156461633121105
Ni 8.407372215224152 1.2415796582083791 1.8604950860070693 -0.4441812110405899 1.422144264299738 -0.8109261941798873
Ni 8.767092014056178 1.2863740430475803 8.705428017467483 0.27476093933081713 -0.5175512392923087 -0.35340892815202357
Ni 3.9219271060209167 8.237125701404198 11.171612815078023 3.1059401842418444 0.040303841825369294 -0.29909000299448496
Ni 4.579360134495123 7.827496138241488 2.1078334324210624 0.14628342858199325 0.017357003221208818 0.1616336857858184
Ni 1.5570806684416265 1.2825119779505632 3.570777192503929 0.09111423960901727 -0.7309887971232959 -1.2208176307996714
Ni 8.348930629200778 2.8633127817837254 6.757264982139157 -0.5289011170874891 -0.8796211855534398 -0.3079325409867793
Ni 8.371722383559376 9.204981495861485 3.6762867685161646 0.5713801121873063 -0.24767128220287668 -0.14269622545136715
Ni 8.099994539029101 4.922211249958688 12.09354531336006 -0.6394405553006537 -1.5927284744106247 1.0364839323131763
Ni 5.32580633640731 2.365821237663874 12.867723185107103 -0.7596056895290402 0.7489713497436455 -0.6099451169446979
Ni 2.3098769966191015 1.2042958759256366 5.8317182964958985 1.398344590776979 1.4191167903273236 -1.3347285565882305
P 6.276236418876374 3.706078515863107 7.948330499964411 -2.0098539668850033 -1.93388815288165 -0.3507892311409894
P 3.251273931637691 9.094689829148592 4.256865629940762 1.7197183448703286 0.5015453507823556 0.8769554657958187
P 7.709285381317642 5.58043340231089 10.106683643054795 -0.5073377890944166 0.6593200678334 -1.2533827092198866
P 0.21397140370921128 1.5599493658334012 5.195742010454929 0.013484150529363874 -1.7162661246556703 1.5710342772666428
P 1.3475543531181164 1.8787275611129153 1.1889413820218946 0.5390153227033555 -0.2980147676524351 -1.3460383251740948
P 5.671368324487051 4.923780213904352 12.722972799594693 0.5011866818913562 -1.0804809067194168 0.45637801021709784
P 9.127081043387758 4.7621954951216985 0.5107748199391111 0.2660994070010772 0.05109964688929264 -0.03278979283651127
P 0.9587019574725315 7.0985406349898295 6.661145051894043 0.8217191710303332 -0.0401050955510019 2.0121471337945542
Ni 3.0226043994150236 8.273026195947864 13.234742844001113 -3.220239346607757 0.1623980747556687 2.122129671062984
Ni 8.679081492133768 6.627693626515264 3.5755602115856195 -1.6258471113414643 0.6822643353343992 -0.21234920986281494
Ni 0.8973814618660219 0.13677744920154805 6.957304171687086 -1.9004342440985784 -1.533942771730984 2.420451685543193
Ni 0.844618782621124 3.726642155742658 5.299212861718835 1.1926445107995656 -0.7672966304153946 0.45841586658273314
Ni 9.101606267843971 1.129913987566739 13.002405278317312 1.0413255766761937 1.4319854187598757 0.07421772096399476
Ni 4.825446094895684 5.1965107099502 8.713635834179676 2.645404700212947 1.2275215251824085 -1.2492974834069193
Ni 2.467989570338571 1.173594315166416 12.403808397805477 -0.9866587812609331 0.42658072435000727 1.3842035233899064
Ni 5.03135172419074 6.012761881728907 10.93223719278353 1.9146159349155993 -0.33039241265219227 -0.6934563473954767
Ni 1.0266873005144945 9.150764043537977 1.568900815752978 0.1745964165940735 -0.6390057817560801 -1.2377977102974358
Ni 3.0555247908429637 7.184174501467921 6.065333314481019 0.5747487715492231 1.113177111400857 -0.5032157965062429
Ni 5.434668296329481 4.113173598805901 4.119181152470035 -1.2698521676298193 -1.1242863339401412 -1.9556944501234639
Ni 7.755815838688435 2.250256366683899 4.335701890495691 -1.2374120448232429 -0.16509901862659956 -0.07319802145022877
Ni 7.389337425936628 3.317894554561237 0.42361840856700284 0.810355923498714 -0.9659174349485236 -3.060799326039148
Ni 1.9273190243768283 7.900615428395591 3.2777430032677524 -0.7653382211374431 -1.2524062042392303 -0.1946134831459487
Ni 3.0053365122023994 7.019173340484061 9.227037044060966 -0.4134459867402621 -0.1640993737174916 0.44261309522252157
Ni 5.916451633372041 7.548963260739783 9.392441122413121 0.023409637173191944 0.839696067223728 1.088023494953365
Ni 1.034996310759279 5.6750261457568225 2.3977296937659123 2.151069751136102 -1.6364508549992398 0.18901464890193256
Ni 6.099361264481253 1.4842677440283918 1.189743503234352 -0.81537831641397 -0.6783932824147672 1.6310481959264296
Ni 1.901797829781395 2.363370311736921 8.428427897051158 -0.7582522608249392 -0.5624928370000054 0.524050216753091
Ni 8.727905050655915 8.046761170600504 5.619748482293698 -0.7985627875185279 -0.10450325932141358 0.05503497738795683
Ni 8.596242052564817 7.337951535763574 8.14591040815609 -0.3329115795296202 2.334936794398824 -0.871543293641312
Ni 9.257091523240229 7.128295247095453 1.1326257885639475 -2.011821117913703 0.9347032141292483 -0.6948118329821067
Ni 7.603700606441738 8.770369199102445 13.525236982731174 -0.4635724710830081 -1.0344067380691733 1.2704705179401088
Ni 2.6331114208567126 3.408755206254763 3.527976041742443 0.2649483241157695 0.6342181305594496 -0.21956449666433156
P 7.093425255498347 7.595503001920906 1.8988669308604136 0.157452043604303 1.3427061754770682 -0.1256454406166675
P 3.4663055464865162 1.2511884018992752 7.567572658545003 2.1439711924181077 0.07695671716171262 0.6031594614814323
P 0.6862295513538398 3.9574005452894325 7.674128519981358 -0.6190499074594435 0.7828975701774452 0.5775456175680699
P 1.7879411799020242 5.499125791446283 10.923662665563326 1.0108816583640394 0.8433971702243991 0.36731885336489645
P 7.216315052828193 9.208667168562245 8.077441378595967 -0.48127811589288727 -0.5946596515405371 -0.5324291848454056
P 7.987205527337608 2.236200677845236 11.352534782395718 1.1552269893830558 -0.16869007841196754 0.20866224792953098
P 1.7404916253086236 0.012719748532267304 9.242268991668361 -0.30503130817958435 1.0856161710634529 -3.300744700352677
P 2.4939656716401424 6.853123108932982 1.3746909307108597 1.432483955662849 0.23591517010821306 -0.7138228268669706
