# total energy = -340868.39593690255 ev
CRYSTAL
PRIMVEC
9.32717032158977 0.00000000000000 0.00000000000000

0.00000000000000 9.32717032158977 0.00000000000000

0.00000000000000 0.00000000000000 13.65125657047179

PRIMCOORD
 96 1
Ni 2.8112277078520225 8.448280144686612 1.8389607035361677 0.17956713033578753 0.06268966571973719 -0.12960133994062192
Ni 3.254734643799241 8.124972449192638 4.314056789790455 1.6926153180059496 -0.7416169662611034 -0.13144353535568332
Ni 0.38706356638077105 1.3140117168505614 9.795472336278259 0.17611079635607088 -0.8720719124512724 0.04244068566271401
Ni 2.1017378635471413 0.7989336742304216 11.061640334349823 2.3011381006818237 0.2346710132884668 -0.4777510765762353
Ni 2.049617637299548 4.447493149980741 3.9233985320718494 0.7281060762588623 -0.6145443062796062 -0.6828544035099142
Ni 8.24337154582595 8.763193387134265 11.029709700395635 1.009520516350455 -0.499156795945521 -0.996240254301781
Ni 4.121788371783541 2.793813881365935 2.4514377194187436 1.8063750629286246 0.2976668973947132 1.9927499602148648
Ni 6.757161615485219 1.8887332810818072 12.400105092924315 1.5043288055192932 0.07281775529267459 0.09654389526502083
Ni 3.513862082169076 8.620506339686935 13.099936652640901 0.07145301373466405 0.8579066766944838 0.9554612726122059
Ni 1.948408515071088 5.923032797782595 1.2051123429146675 1.28734852464237 -0.20462510174567983 0.023069994445586075
Ni 7.974907610234598 4.209006738934802 0.40902718641796365 -1.109287546538464 0.7157948629916769 0.05926444208827213
Ni 1.8389075386668745 6.298124941402309 5.137691608468176 1.7766374266548757 1.8370020437858623 0.7951689313456306
Ni 4.4510934376206075 3.8678841486425277 8.697146763282829 -0.43093334489174817 0.03628263648111816 -0.04570932911165676
Ni 6.898319007044109 4.7816110355643655 9.669375526201472 1.5867311191766091 -1.3869749154874564 0.499446816382114
Ni 0.14076285226571278 4.553058060623236 2.6216147351587606 -0.9527104493399462 0.2064598409615735 -0.35809913453884135
Ni 1.2719181984082941 8.718171137295837 12.335834362250676 -2.260333407960636 -2.4430293137333927 1.8875172789265944
Ni 0.6012405741215744 4.943269546896377 6.320504553223797 0.8812885459535339 -0.3304512909145857 1.004836223500908
Ni 0.13275920764454963 5.505455394578452 9.44217778906882 0.42522832408717093 -0.9113257157455724 -0.1801955079484058
Ni 7.334149682038972 7.317696554068184 5.713187327813692 -0.05694042194078581 -0.028907941283601826 -0.4846755716102104
Ni 6.364068033666175 2.756924923812386 5.7573216310632205 -1.0113190030117745 -0.8214939423934046 1.6508035241764862
Ni 6.723882272741587 2.941677508191829 3.385333678859871 -0.6513331929731815 -0.4248004925211329 -1.3289538588879821
Ni 3.2149449363596863 7.609189272516607 11.040357597726388 0.04737771795301518 0.45366678193352195 -1.8336891773625454
Ni 8.727992647360033 2.289792266124803 7.5221966228805925 1.6838722817059968 1.404031356749111 -0.06819208359520514
Ni 8.026095119477045 5.999804734476213 11.33482941428925 -1.078536381398536 0.7336809992434784 0.19839737566841315
P 7.56849482958206 0.8093045546106469 2.550328107172409 -0.6867884484569978 0.3708962863035096 -1.0450444202886777
P 6.521473355454719 6.924770861310067 10.005606015801751 -0.18761648300282527 1.577095395859058 -0.7676463004453297
P 6.456817412657955 3.218368007768574 8.150987791900187 0.6072793971870767 -0.5398072224770316 -0.6034934477820831
P 0.9318784925589955 4.286580812252846 0.36228220827103036 -0.6355401918049829 -0.9206770750534855 -0.3135329178926923
P 4.0414161474500565 6.725561163350852 0.4562347921994497 -0.18911260793237752 -0.03758747133547075 0.0361175716581636
P 0.8430698429139598 7.768413392465186 1.0477070211261235 -0.4660762113414683 0.9706554638541413 -0.5442752855507142
P 7.364117879414332 6.972134230831412 0.4039476096079352 -0.20845167458062167 -0.4433664284487784 0.2065457158071604
P 1.3887503304729603 8.81589189792505 4.725396181664178 -1.9030901936641866 -0.3404274282906911 0.0948762777546108
Ni 8.490588188040062 6.715208004593724 7.653207918857498 -0.856121559769603 0.39830810265755917 1.1119175279621432
Ni 5.6008723442049515 7.4424661078466485 3.511362400595283 -4.047018962880133 -1.5529501660714222 2.750657693216192
Ni 6.050665792766859 5.019817631508761 4.938273914616812 0.40835520248091606 -0.22779228389076253 -0.2930893053263598
Ni 1.4054646192051878 2.7016521140873975 5.770167942375105 0.6773039060053303 -0.600671919172888 0.45528272027039013
Ni 9.200264575745972 4.041723944061755 11.999004135616087 -0.16596419484037225 -0.9492659424347717 -0.9263083051973339
Ni 4.554783587082758 5.390339461803257 2.1610894447356364 0.15308888153960087 0.3586953733619435 0.03077584773027603
Ni 1.7378476511592378 2.7991863313155796 1.9324441308109983 -1.2278560257036917 -1.0992476458039584 -0.7674159296020784
Ni 6.04183296272812 8.35921499786516 8.090116814710308 0.9714728175491142 -0.46392162689231065 0.14761705979175221
Ni 0.781239099925785 7.863821014921635 6.637172236358133 0.2124224863029116 1.0367137889357954 0.027947377142545415
Ni 2.892569957870859 2.7328514979095515 10.169243752618685 -1.044605018758414 -2.4109761419525895 -1.4442115285124226
Ni 4.783457815234555 0.4572831661132345 2.9553054363540263 -0.10296445407938397 -0.12173427848771938 0.865815132908283
Ni 5.936221416235369 5.512711932878492 7.748657513579177 -0.3657458524508217 1.0257644890131432 -1.450902567379353
Ni 2.852015422487084 5.8051280411620105 12.47438107891216 -0.21458581250281755 -0.7356563778022943 -0.11725721655297225
Ni 5.087495577402199 4.841323578233851 13.113711017372907 0.666060214770711 0.6278723908470799 0.34054621325674256
Ni 4.423708866349503 6.9722088481918245 8.783532214148492 -2.2105056858052317 0.34183022217548875 -0.4828241202237685
Ni 2.1939089579957303 0.9366530709083409 7.846441698964738 -1.394382263695121 1.4529468515028914 -0.337843726723915
Ni 1.1727423992510542 7.010217066151549 3.1117080873620377 -1.1575078149974323 0.669129597724654 0.38604651168138676
Ni 8.418162712590426 3.2404827279606008 4.986121364263829 1.2084971615611058 0.53984784590698 -0.5518518123463916
Ni 5.6648007677377015 2.7394271527958356 10.553540880362192 -0.7537232626063342 0.2698269923643095 -0.6391677612552411
Ni 1.75217418435829 3.4110486866917635 8.23281318932769 -0.28100357780641927 1.1299201351871506 -0.8514709483714691
Ni 5.04144733885811 1.4684323442226361 8.396792300568508 -0.7932447177397242 -0.4716858442187618 -0.7640264443045551
Ni 0.3156706086558331 0.30624830146984194 2.4702907282437723 1.0064346783362796 -0.7875301838534502 0.6494840555795848
Ni 7.460075804903817 9.038811262155091 13.222497532551179 -0.711150165130814 -0.16405000853679488 1.276031556967654
Ni 4.8798914263966635 5.602523253304061 10.480451310404892 -1.0575456380794819 -1.0124772849859338 1.920439483575912
P 3.224244124900998 1.2564350961228603 1.3669275507035448 0.06587397698498977 -1.180564953927212 -1.522415744927991
P 3.877174010013788 5.5366547784006075 4.220586420553697 0.6145278512193738 0.7426986293610564 1.1947443307513876
P 5.704058826484323 8.74586350517864 5.98200756130101 -0.6541963734535894 -0.7140498552761122 0.2968055778356824
P 3.427483160322447 0.09953582792122694 9.29141341235692 0.5358958032377674 -1.4364033453219132 1.1619470817157085
P 8.44661990841745 5.636567423991913 4.803767728021623 -0.5571151176278598 -0.6662995844750267 -0.7924119374257838
P 8.96646973123592 1.1094295689417013 12.314293263016815 0.5037585563835905 0.30127672623315854 0.24692463384483926
P 8.640681008508256 9.096052104760942 8.702935205016768 0.3349453221301974 -1.606139091389576 -1.2938919821878425
P 1.9659622491079474 5.961367466694122 8.024549607399516 0.05941202340972993 0.2097698791714129 -1.0702988239800921
Ni 3.877789603237185 3.1779627071056225 4.903967650450514 0.5334506841313845 -0.15796652134687633 0.04447725647676856
Ni 8.680302826886885 1.8919325004094598 0.8872713017878583 -0.7370321751038984 -0.22608044340597838 -0.48118787017192616
Ni 4.734070449812042 6.74151995130891 5.920535914359817 0.3905045474527404 1.2661610919314774 0.006638588362440179
Ni 5.805808924575767 7.309283446681762 12.114602283082945 0.06482008179917868 0.8940527875977377 0.8707467658819456
Ni 6.055301396282437 0.03159299039832639 10.289730269909516 -2.464958252596 -1.7606899021866838 1.7736919708733065
Ni 3.071054683975717 8.319938284778436 7.129313835104711 0.9537049520427318 -1.2513188847123224 -0.21146346482375195
Ni 7.1791600972937575 5.402129004748309 2.6383915159303326 -0.37514554849816684 -0.2978234775772355 -0.08271624535330915
Ni 5.315404977609776 8.451255511933029 1.2169261365018547 0.6813891318182974 -2.3573917809682303 -1.036127577415022
Ni 7.292214725487579 7.850483161748038 2.5850568921420383 4.366820230280041 1.6941752062939015 -2.7240604023436377
Ni 2.485047243982197 5.025040846737582 9.991368090718188 0.1991676781755344 1.527642540544569 0.4024928301628681
Ni 4.136627899335424 0.7204287493412407 5.503135727386653 -0.0915163601434424 1.1474494023201656 0.5153652873845833
Ni 8.803113674954542 0.6954627132644811 5.218083419858767 2.6249150649000277 0.14065374110004164 -0.8380598171718857
Ni 3.269415609460249 3.8485302707857354 0.7259858772579043 -0.30128443954264245 1.3312717083878816 -2.7003910837511556
Ni 6.656418851759333 0.5559739524277986 4.442733495103479 -0.572509083585427 0.40464355795728374 0.1459389007583809
Ni 7.873334728374131 4.507504162091875 6.955437663722283 -1.6902799850045536 -0.3107738670903164 0.33199292437009276
Ni 1.357439020610188 8.207210107536415 9.462177107093176 -0.41342516080465574 0.34817647610849073 -1.226838640182771
Ni 1.3961561034938244 2.2887196415688846 13.029304791992164 -0.6664337960600458 -0.21163521451492587 0.134178160678027
Ni 3.623157860832157 1.9835159831448066 12.62488616029663 1.5062674173029027 -1.1359192901933792 0.8019455879478319
Ni 3.6587223602383974 4.896708313999458 6.668010658699295 -1.5938921557014227 -0.33298537019034913 0.39534670603639005
Ni 7.3559566056192995 1.349315055495361 9.242418720793575 0.273139087456678 2.4222365453577575 -0.35856244732850506
Ni 5.706605143908373 1.339073822778851 0.8668960988104303 0.33293163413427823 1.6515193192965878 0.16671238586030643
Ni 7.402433893985755 0.6233338418224824 6.926770606569102 -1.225555402594973 -1.2128117297760594 -0.016069394758036842
Ni 0.3026340230748988 6.2468534876294 12.913555544370475 0.18799417805721816 0.8277574068046131 2.418007594878074
Ni 2.5881218002209505 1.0108040728174974 3.57855440092904 -1.3180174144811365 1.0712431901712323 0.4869242584350711
P 5.842035653055662 3.7277807272994536 1.3859297942493967 0.7918892321530944 0.08880898851460835 -0.0007762160443922115
P 0.7584425636029964 2.6279767978508652 3.7194487662924787 -0.8039891007404217 -0.8702472005377077 1.0858406283694333
P 3.4581975313019253 2.5613061863229847 6.996378343946189 0.22023452614816263 0.11072815718520283 -0.5567903872985895
P 6.787083177010323 4.085347118392463 11.957886239161203 1.284221548977614 0.12764858708962531 -0.391811439189622
P 1.0067187723349553 6.7758066284181 11.01442060324727 0.8762257867186458 -0.22244798885971367 0.29729357321569444
P 5.173296214705638 0.38148778412400447 12.308177437614068 0.9407301370496186 -0.5040238942298353 0.059420508050162184
P 3.8755231009146787 3.759325216413512 11.502808016048135 0.7492605988492903 2.983107016262992 1.552100159366301
P 0.031030562044222974 3.2879393691824608 9.553189767021372 -0.48334836815835475 1.6412007109793993 0.02630444222248373
