# total energy = -340895.3980660426 ev
CRYSTAL
PRIMVEC
9.01278019443262 0.00000000000000 0.00000000000000

0.00000000000000 9.01278019443262 0.00000000000000

0.00000000000000 0.00000000000000 13.19111484033912

PRIMCOORD
 96 1
Ni 6.359697000191239 2.0187906291912285 11.432817845541349 1.204496267931829 -0.09910445690334545 -0.6109445047434897
Ni 4.424130381991259 0.3780464669086557 6.072542617541251 0.6195499870243136 -0.6110612328270121 -0.0017367801854486218
Ni 2.7894283874548993 1.4612330168941066 4.737035178525055 -1.578416685773643 0.579905118939182 0.9693467723450467
Ni 3.347247370373501 4.240756359072919 4.760963208282545 -0.39785044629485034 0.5897611857976552 0.12959594062398325
Ni 5.05270870109053 4.453151533755588 2.6892991049219255 0.05410886602926165 -0.27968691587752476 -0.2649866335528727
Ni 7.201409541937363 5.9245870176674655 2.710523300664106 -0.8368200312275136 1.1207952900677471 -0.2683671199893314
Ni 5.249412625704348 4.576680697135061 11.356718437180444 -0.4417332637207295 -0.16496197882810298 0.319528730464811
Ni 5.739527604879583 7.816369550379521 12.43092375184504 -0.9050152001465123 0.6001556416581019 0.2629063539850763
Ni 1.9582337600283306 6.3945944845488425 0.4495042935432795 -0.021337585135511636 -0.2111904136680234 -0.17500573621735022
Ni 3.0092771312397737 1.5178603139547537 0.3125064316555409 -1.0977029270246579 0.026950817557231006 0.3367767189119813
Ni 0.5493361543345688 -0.2150016706734285 4.637613399226088 0.7782487585515243 1.2349671828271764 0.12676849847751717
Ni 8.684210141493594 2.463237851847873 1.1994261768596477 0.503237650883114 0.018425296584723107 0.8670914285175454
Ni 6.80411718450773 0.7493063104388826 4.707170430547949 -0.7559228413608143 0.3501513404466744 0.23953168381487777
Ni 0.7805995840540781 7.439229769144 2.3767485106441346 0.08937720231325251 -0.5101518615044439 0.3296071977467356
Ni 7.60108127330047 3.7108950198726247 3.8182606635085734 -1.4147374303127056 0.6045398867687266 -0.4928797046875576
Ni 7.601315605581797 3.980818769621045 12.627299611265 0.6135768001600143 -0.40305872996866715 -0.9956077629241047
Ni 7.9171955208104405 8.791597415801666 6.734011274880761 0.46010405291843337 0.5824798216448935 0.9310172806372289
Ni 7.120303534258108 0.5603434626108967 0.7098600759895217 -0.6114839221867275 0.4724443196513412 -1.0137962609076734
Ni 1.7107338070468834 6.474727111982586 9.214534737588513 0.30654954459632366 0.44993199748143803 0.08769132997039736
Ni 0.05180275589932866 4.938769135685356 1.5157648425928885 0.839483951212922 -0.4795451923621805 -1.2107257937813083
Ni 6.31692234606903 1.772741733797998 6.965080028551168 0.06253745641258908 1.1720186070190977 -0.45597229013824697
Ni 3.5527838194373333 4.2675513541646435 0.3115204335179577 -0.3963615204541497 0.004110936844580016 0.02759693578166215
Ni 6.018166712937353 5.484547044455777 4.882559130341072 -0.5133001773254385 0.5132896358024772 -0.28184638542268886
Ni 5.18232149100445 2.969188285572774 9.189365648017995 1.2382844201258674 -0.7530624890938837 0.14413450055979046
P 0.2011147791707952 5.775254265001882 12.474164366695884 0.0020134308856029843 -1.948242364720793 -0.41982309391119954
P 4.076246084801394 6.1205609070971505 12.48726354122206 0.16428912113079447 0.05477066798297663 0.23996028671186415
P 2.471881107916815 8.42600300581152 1.2832964041805557 -0.13945046482055984 0.672856668867254 1.1931397052684292
P 6.286296919455617 7.822993943717032 5.739203144797746 -1.238375437177777 -0.586685375085809 0.43467095755730945
P 4.840205373047247 0.9567156151973201 12.526836855870139 0.2502518984458594 -0.02403364391043603 0.8392085860643482
P 4.018618369155082 6.176665462914838 8.162292666630282 -0.3479964988872007 1.1390992305832577 -0.5023542198368961
P 4.600357270329129 0.9137066287937854 3.7612088645075223 1.0624052801646284 -0.2572751238412279 0.09744378137147089
P 0.15285855222154845 5.613592029226483 3.553659861658294 0.8864886020972347 0.06567703048283527 1.2752301441122813
Ni 1.4931923349550733 1.1800342793018428 2.6680082146073674 -0.9660040811250589 -0.05624905230071603 -0.7056850282511846
Ni 1.91447671288056 6.373802000971107 4.743406312743131 -0.5384193409905695 -0.2088237132080597 -0.17211478782280035
Ni 6.060517766397162 5.637313666320805 9.295554222579279 -0.11917114574623347 0.40248768795654555 -0.3992966918230736
Ni 8.537328865001891 2.3111471884866726 10.049241645400969 0.3207680021885508 0.020607134727390314 0.7856802751289049
Ni 2.30258504743819 5.289726790872624 6.990235598951609 0.3387657243175521 -0.2186388995262686 -0.27513529195110037
Ni 0.6654667265701482 -0.03799247302712912 9.051861267891388 0.04876868476327085 0.27333526262788405 0.08015208417055873
Ni 1.1388999511489233 1.1040204923514214 11.332631782494056 2.564574101918125 0.751393586031893 0.019482791314959995
Ni 4.129042950340351 6.834940892282265 1.4971786875716457 0.3383240087944432 0.19582421562459823 0.20388539536617792
Ni 5.592222727725481 7.958239721162849 7.957091492984348 -0.8601247673917252 -0.43872764412518633 -0.01700630475000942
Ni 5.078728597097864 2.8162414081067255 4.793057718044278 1.418227188633519 -0.5496707455346728 0.34517342761610875
Ni 0.6678235685534936 7.192892464789137 6.769297210058565 0.4012463593502767 0.5325975921024698 0.3818864667664262
Ni 5.0066353694696435 4.582863464250071 7.193312460339515 1.2354407800294853 0.015526634880689389 -1.106930616270513
Ni 8.05026921826396 7.368046832300933 9.116893883627629 -0.4114888630138913 -0.9086204009992674 -0.4156967304476518
Ni 4.660571653850087 0.3346796731370949 10.375695354185485 -1.3533081193626306 0.10277779198987459 -0.07293448337619698
Ni 8.084725076399062 7.085820637782851 4.894299177635549 0.06999108447715688 -1.237197614819592 -0.43824607650307756
Ni 7.083378174389021 6.168310615807529 7.143305050226352 0.35626310977136705 -0.48072301472036566 -0.7160260051658766
Ni 2.4350008119479836 5.0056439636640295 2.574694396348986 -0.720545747413101 0.1639646479118402 -0.5498944315097045
Ni 2.329488195890527 5.378827134457147 11.388958052700996 0.3760359215229201 0.7859666960210723 -0.31756106521547894
Ni 0.8418729692310335 3.488333429292389 3.802708210252509 2.171657859700099 -0.4273402282238511 0.15908006612602926
Ni 3.557614669544688 2.421265335150207 2.604467213969572 0.9381544059026423 1.3253658844264078 -0.21821183929117902
Ni 0.9502444391206776 3.456482264592034 8.080361989576357 1.5529946461561124 -0.5785313785201068 0.2976553274304874
Ni 3.7149868220157938 2.698237078898536 6.996487764473011 0.1807171847798307 -0.8509893807493601 0.17944011783962
Ni 4.180235541030225 6.89973376806915 5.812255332223397 0.04141173017756739 -0.2111510757896557 0.3995635723312151
Ni 0.79142393289537 7.591464636986018 11.563766329458835 1.053732949201611 -0.7553705684017701 0.04144001231234153
P 0.07203374327988489 5.615124201835159 8.113933693988454 -0.39083287732643657 -0.6174475959693302 0.13097996545570345
P 8.474320519665113 1.5600851884938485 8.030407754865495 0.6704226055044648 0.2395041730110521 -1.6137225601637886
P 2.027334744679609 3.478437396796353 10.454394048313109 -1.123344538852162 -1.8000838306032738 -0.1985801811031806
P 3.950256432467988 6.093621707524609 3.630577630447834 0.5182724337290493 0.6381382915494622 1.0790205201238061
P 7.032852529422924 3.893367764785861 10.296456794532803 -0.7176247171115641 0.6144224359897611 0.22235054404990096
P 6.163831264122166 7.8860022890538115 10.250036470879952 1.8482490774545912 -1.587782700369575 -0.5394727219557484
P 2.417245635247446 8.337028841147712 5.869755967670989 -0.44960315338710954 -0.06447786796841154 -0.3763740215886292
P 7.0127269915689645 4.004161869953223 1.5899778760891135 -0.557005588633189 -0.8001105916216221 0.4257996232096087
Ni 5.451064566566186 2.918464359445554 0.3920135721537432 -0.0926407035558727 -0.6944243677357008 -0.16554690479729556
Ni 1.4401250860145849 0.9060277401903044 7.009823975114527 -0.20603612316059353 1.1464399872190447 -0.8955710240144771
Ni 6.809452750297942 0.7139987445889566 9.045648758602209 -0.6399066963037947 -0.004706661447049959 1.0825588722943678
Ni 2.634345481116755 1.7371502653764643 9.132261574892647 0.07530375493932194 -0.06846642030251435 0.8264425446479315
Ni 6.208075001392691 2.0446482951576455 2.561411361109772 0.8895592706027583 0.2121617764423572 0.2879203595309106
Ni 4.0379507823645495 6.773798192416051 10.266948051367713 0.2523180369462687 1.0455992643508831 0.46850821782172863
Ni 8.166687298183167 7.297882339603632 0.28823771881212135 -0.4770324532426559 0.24951630583141543 1.1387315628311938
Ni 7.676491203987473 3.7091916044429794 8.163294887771956 -1.731185979190296 0.5368370841051142 -0.537196524327062
Ni 3.1935073682629613 8.241412257586289 12.440184383347477 0.55871100136007 0.06927786046021618 -0.814051112962114
Ni 0.1033901063554376 4.7618122121633535 10.28454460313935 -0.2008394094510025 0.41020202588166776 -0.007025796498529835
Ni 8.568549135098674 2.304865280791102 5.703534166467773 0.596902939048759 -0.5929128440527596 0.542217374580421
Ni 3.898712343356124 2.556366908115208 11.34723428873274 -0.9332250869218249 0.5706013250397527 -0.12801676906232148
Ni 1.0411383259353564 3.7161674962024795 12.422626586530058 0.0988954262163329 -1.5492596045937126 1.0708765508604332
Ni 3.0164693297204987 8.402849173860412 8.246583790779573 0.8203526297001097 -0.7026598682716156 -0.5419335247914151
Ni 5.565743179935542 7.880648697703497 3.558488007931633 -1.1756155803417365 -0.7663720617185963 0.6080160182427851
Ni 2.8533109724566286 8.246720785036349 3.5318155866486025 1.3052166631720423 0.11299149929808282 -0.36181977792353814
Ni 3.337252197296904 4.314192490928745 9.044672674522682 -0.16898112728982512 0.452225421501305 0.23335975067621098
Ni 7.3174040211941715 6.297490792279001 11.40254481862793 0.15824111516450165 -0.8117597458247762 -0.5943068961868088
Ni 0.5968731614357431 0.18244390401707294 0.5283516985417461 0.12914522623980984 0.13852512479281306 -0.30229951107071806
Ni 4.816285454791803 0.3157636503659846 1.6256594723111573 -0.8873062129025235 -0.38150851460171714 -0.7593177259749762
Ni 6.007802015878664 5.472794379269229 0.3969057091654445 -0.682437884797786 1.6848279607510468 0.05566824009658154
Ni 8.133565331495616 8.882329072575427 10.99876416083956 -2.299405177151117 0.5451147507328741 0.39541535449079646
Ni -0.10186604524880774 4.709916624629499 6.090720493626182 0.5718058868708151 0.6291633417443616 -0.989701681852315
Ni 7.782328280126767 8.534228468664336 2.880965786765221 0.40662407872242234 0.5998306542185152 -0.86081845102464
P 8.412826321376906 1.6906893842133837 3.463089533647447 0.6045386012171459 -1.2282838572697297 0.011526512582360794
P 1.9441828359287683 3.2051068161886422 1.4046688092938164 -1.570398700565173 -0.057429702872378516 -0.17796147641156446
P 4.581935147904814 1.0346491242986118 8.216903804793512 0.539496118994516 0.5687393321303496 -0.026159174893871078
P 8.408635378653177 1.5672863997546247 12.362435636237231 -0.8877258169384453 0.8988437812284777 0.6949285610656291
P 6.276067414097693 7.650732678601617 1.4135337797520136 0.7615952091552431 -0.9197154824711645 0.6747957948714959
P 1.9462828136806594 3.1978335026874576 6.037665862577765 -2.3713073626080576 -0.04208201677171462 -0.6117898834629206
P 6.869937517220432 3.7899371009201936 5.879649296333009 -0.8430878665140964 -0.2718021138128093 1.4399900342319072
P 2.3377619279773763 8.49259843760861 10.360644011500257 0.7233827026412639 0.026239393312503197 -0.5333406409160815
