# total energy = -381166.636756446 ev
CRYSTAL
PRIMVEC
9.28864296869658 0.00000000000000 0.00000000000000
0.00000000000000 9.28864296869658 0.00000000000000
0.00000000000000 0.00000000000000 13.59486789510412
PRIMCOORD
 96 1
Ni 5.225112354649537 4.000219031826571 11.227756561033358 0.17723771087166248 0.2896360566704367 -0.6691105715612606
Ni 4.417093319597062 7.272682190824928 12.858841303570557 -1.6296063212735805 0.13172275715899895 0.661245566990887
Ni 9.091881455718562 8.38795095160985 2.4371652378423985 -0.8550311549189017 -0.3540563319280354 0.19261470754836504
Ni 3.8115574084106516 6.079871840149005 3.6329154439568097 1.4443951052781383 0.45047912823415964 0.16640950990790696
Ni 1.3329573928747012 6.845673993786219 7.632702553894314 1.5735094782800128 1.8865906533472672 0.41824932166617645
Ni 3.0473993445447247 7.389180348516939 5.892804147833385 -0.3585861014775889 -0.053557364401165826 -0.6427171691693964
Ni 6.398648771566017 9.146545118453172 1.8665620544065955 2.521867049967902 0.3503863392756159 -0.6587911919131234
Ni 8.128723509027434 1.4986482027064756 2.507220181656236 -0.42308659515381974 -1.2589452909093286 2.914462675621716
Ni 0.9844010727190041 4.389218102627382 11.337195350215888 0.927558375554351 0.4654280362345081 -0.1902400366686014
Ni 6.507298026112617 8.849373570132288 6.366938273994276 -1.029763068649575 0.8028544729153464 0.299639961960684
Ni 5.119574795432773 5.797580697554687 9.294185308779054 -0.14173617553094298 -0.534959150356111 2.2486605996083986
Ni 3.4304072407552515 0.4591775535635651 9.834649633000756 -0.8946492835311559 -0.13688656074812555 -1.6736377484621823
Ni 1.1519960543197834 6.173009061260295 9.945936862095637 -0.7550172988274094 0.7016563667077658 0.14928287752994937
Ni 8.659225763872266 6.01257562323953 7.674220929372846 -1.4511414228630364 -1.0319022264797648 2.5386339850135955
Ni 3.968433296248348 4.063762637054689 5.044919186852163 1.255811116155721 0.16250426131622983 1.3551744831474082
Ni 5.4144520489880765 7.006516132089112 1.65944389779549 -0.27267500333606587 -1.3427449991348037 0.11332111472335966
Ni 7.584659835730174 2.7515746494263067 5.593295576990149 0.3861958927750575 0.027883870894461652 -0.5873947424480077
Ni 8.062151806254459 6.8308586085590814 5.784031354337868 -0.9855462649230448 1.854379101611729 -0.355265264634472
Ni 8.57535860825106 1.0693642881877359 6.75263894774546 0.1828123767459626 -0.31923459626315986 -0.6463514234878739
Ni 8.498829480422604 3.803931432691855 3.3023567980431827 -0.24477056361631394 -0.21511365998182955 1.1137116437480883
Ni 7.353270455546336 2.7942188084092465 10.301320334691425 -2.2253257815371996 -2.4956289422069795 -0.5539336345760847
Ni 7.437945723089023 8.558536876184386 10.561267647088954 -0.7306447835203158 0.4678857537463813 0.4817686823760606
Ni 6.486955898433977 1.338911412893883 8.300577333340842 0.4936127261988403 0.4215405908229386 0.022201990018335956
Ni 3.119990087836311 5.265945228291226 11.094811932442807 1.5899226295307134 -0.10697048991498352 -0.9384621669510482
P 4.880503707673483 4.7870599613505975 7.24199994600845 -0.5644306774526666 0.6475724403791686 -0.8289969356386692
Ni 4.264518073364484 0.08381792581449606 7.208324900489664 -1.39255266668555 0.5878259164481554 -0.6938661812393857
P 7.504907548858574 6.443680111742294 9.702738830351132 -0.0011729372621786251 0.6524966171536634 -0.7120932457703736
Ni 7.737838843743169 8.389260650241216 8.304860326524688 1.0865289126857094 -0.4910920166595155 0.09892422257173931
P 7.598518490751422 7.250352293592301 1.181845107879286 0.9717816070387845 0.5091424464033232 0.17942057745559423
P 2.919634063165868 8.472830569293603 0.409663514383766 0.3833162572344173 0.17766297133453918 0.08345286640901757
P 5.0289640851564545 5.291488995924222 13.205429360322096 -0.05112124415584745 -1.4964797417885196 0.3904847499583985
Ni 2.279470091711891 8.293671227437157 11.984882193453853 -0.48917345948056395 -0.3098716669910212 -0.34315099786944125
Ni 1.7876828999559045 0.19362547411521838 1.8539861609526636 -0.005756185757486861 -0.24550898444423522 0.4521901973879954
Ni 5.045813683151457 8.716276607800216 11.002884092620905 0.572319336172124 0.46037684696384584 2.3938911614458447
Ni 5.5175002519409695 8.58172132855237 8.883946827407478 -0.37472414469003207 -0.9052088042145572 -0.3051390374020422
Ni 2.801733320414735 4.972071148155692 8.781006372710783 0.1487869117301373 -1.136631228658739 0.3423192459967653
Ni 9.05441107076165 2.7383290448282516 12.024511258991819 -1.3961221292043633 -0.14848609266026686 1.1600449795969892
Ni 6.952391210635487 4.491123802518872 8.633869626823339 0.3537058905671521 -0.7640238732013939 -1.1285152844198243
Ni 3.7410473211008073 6.969352272343797 7.975673613149022 0.174461433678106 0.7138457096851061 -1.6202529050831385
Ni 3.223149754502512 2.753729614550254 10.191909411437223 -0.4096073297204624 1.6954383892770413 -0.47932022083556813
Ni 8.41889142069549 0.2741189946803147 0.6339749487725717 0.7118615893755418 0.4580086038419854 -2.2707813427668375
Ni 0.6564692549823264 7.666697128724582 0.3191317575710411 0.20522596855447237 -0.6327795983407103 -0.300599754770792
Ni 5.213055696326762 2.194609051313691 6.101594260144105 -0.18515747993937143 -0.3483338276219614 -0.16419784696856884
Ni 1.6214812147714703 2.9200984953046496 4.8908075991044955 -0.7581067363860106 2.0266031613188837 -0.2812105516109028
Ni 5.445457538573146 6.962162862835455 5.299687152037999 -0.0976129599594835 0.24863056079235246 -1.6150649331242957
Ni 5.124720703530475 0.1074296557501598 -0.18955890630804545 -2.4396683676809596 1.708253538763839 2.1334736353208936
Ni 0.12583788800291293 4.053498686787612 9.135588235435034 0.051497396548343566 1.145192230854873 1.1028446191265975
Ni 6.839051191487191 8.22844637786665 12.965303082743496 1.1247069664173277 -0.5647276398677952 0.10845838731441966
Ni 6.621919877963951 4.864322891958327 5.788843800159925 -0.6189277800592824 -0.08705909570303716 -0.6030918414682904
Ni 7.819978311808108 8.979925444343834 4.581782813737623 1.3523192730867999 1.0623831686774412 -1.196518906153307
Ni 9.189198566078888 4.765723948894965 5.659923940484056 0.381734257459278 -0.47669589583884353 -0.6266937971579465
Ni 9.222349732145128 5.154695153767449 13.353082554747868 -0.04535528820634769 0.5091558161397619 -0.5772810510527736
Ni 2.6653481785400888 8.371658672181388 3.86245173990691 -0.5030952117679788 0.18940391392055123 -0.30250622776488545
Ni 1.6510005215124381 2.7844007129954003 8.003258095599824 0.5901882460327449 -0.34514283148848945 -0.7172956159069195
Ni 8.160750749317824 6.385031621256935 3.5345022737489584 -1.3213770749819886 -0.8835189779459492 -0.9963868071819744
Ni 1.4093379024187465 1.4111863423310977 10.722231466612207 1.2951389672210663 0.36458319960128827 0.4296899594029503
P 8.467833279480312 2.8069349603690905 7.8412753119640834 -1.0376301301024775 0.5792764842162476 0.07244211712081072
Ni 2.9278638006650803 3.2799683823610697 12.504790751213072 -1.273490021492723 0.7958340757334552 0.3304453773773148
P 1.8667664045476595 5.786109223726778 4.378512941828463 -0.8138785919399918 -0.5370116620097656 0.625593365004916
Ni 3.429506242406015 1.0879787283101081 12.199544585727327 0.5855489474885206 0.011487688924625377 -0.3268743721966048
P 8.755641875883356 0.6252027545352621 11.730997578195979 -0.14508272340567271 -0.6138786476711493 1.3223684923609804
P 1.5046765318678623 3.79236707243619 0.4201290281990738 0.037783646506676864 -0.8708033301514938 -0.10328687041580922
P 5.966429645930177 5.309518251551729 3.5266171448967225 0.29097662985873113 0.13344205384295083 0.24011069624679934
Ni 7.749951233922596 4.728467202721894 10.967836185699879 1.7679679239053359 2.48237361985897 -0.10938681266596
Ni 5.008111082125155 2.9382856578593426 13.345973027567394 0.2061515656925353 -0.3959560574856149 0.6534109014378167
Ni 8.44089621543097 6.974999767151382 11.899601306402193 1.76608484795001 -1.2005305984158614 -0.13989346589524937
Ni 6.028292006815905 6.478679717720887 11.566554233088972 1.0482086769492722 -0.9108017249213023 -1.2828647778394036
Ni 6.104737536859379 6.719181256467624 7.447948662494103 0.9058086425820852 -0.6432313898016535 0.2304883426656869
Ni 7.101362463471119 4.355491040709052 13.004864341189203 -2.213791041424723 -0.5752321389435447 -0.024304123963003302
Ni 2.8504894063440425 3.9135838606582243 3.1165830136662085 -0.8439175615042432 0.13667007386194527 -1.7314335764247277
Ni 6.82198795470835 1.611570232929868 12.852438642105312 1.1203260637408123 -0.10779838513291756 -0.8812232399332371
Ni 0.6385235971398 8.502888617315556 10.272934242369086 0.4873392344853026 -0.8518733260162102 -0.13371099123362135
Ni 1.2339683268147608 1.1087202676281007 13.136367372420974 -0.04911064148372187 -0.0634324574230327 0.8118844443280986
Ni 0.5520333287987538 7.610389376218683 4.390068013441352 1.1797365444886456 -0.35735557150459746 1.8917739973204195
Ni 5.0478757618476475 4.084067610162227 1.7960584691466943 0.07957975660685648 1.0753741816204705 0.8958965256746958
Ni 2.7441344465630233 6.718558917401656 1.753601940747823 -0.4580834229439788 0.9046519032698226 -0.4903445969705298
Ni 8.22838135736722 2.947202754923952 0.8760992134122121 0.022768918265399497 0.7339933882775747 -1.3078114204824123
Ni 0.8868210937681273 2.4175271892861514 2.089816441247534 1.9244293214615955 0.3520169329005034 0.10297422427139687
Ni 2.4550440174569403 5.73654502587599 13.133757263801021 -0.7237943362573858 -0.028616378185112007 1.2678839881598551
Ni 4.860310198279254 3.074512892806803 8.39976610522046 -0.48273464583375575 -0.5127214220038332 0.7678743572957356
Ni 8.800719659273511 1.1650558860623261 9.65529244305319 -1.0704898569449757 0.4112726332380272 -2.925214771931898
Ni 7.4707717866581165 5.132300236035393 1.5591414176470748 -0.6342600395409785 0.4961514334602939 0.6195268470958621
Ni 3.5403011734337877 1.7695050260439873 1.54392847850914 0.4666325980655706 0.7942459053107289 -0.7256537580636276
Ni 4.4808970068228975 9.03968857196227 2.750255662152167 -1.4096456176120946 0.09441862139190191 0.15946058939389957
Ni 3.272565334068889 7.3992306600001765 10.07604009486112 -0.3816843780579491 -0.184374836137076 0.41662798401266954
Ni 2.214895447135677 5.028323168804937 6.575783189297373 0.2349602623941115 -0.6831292544378558 -1.5289887701598184
Ni 3.4108546477125405 1.6461332726980051 3.9590703443305086 0.8211949230957469 -0.06637585632207278 0.10216124145179825
Ni 6.1119362350104955 1.4192395956175734 3.867399799913491 -0.8818698723783006 -0.06266421179844048 0.6304494075456368
P 9.355799662902674 1.5467076404276099 4.373251854560343 -0.820295036989297 0.09696015686683301 0.11173577251411079
Ni 2.1885714335095283 1.0863903703954745 5.857117182289396 0.3110780285942965 -1.807051777280675 0.25174133850719227
P 6.110468629451946 2.1558196790826396 1.7750819271664784 -0.28188880862485 -0.24697322769458754 -0.9714260234715785
Ni 1.57575322638702 9.713969728331152 7.909983402575454 -0.1910933858078322 -1.1777825060860685 1.5057861067911098
P 0.005364191202929117 8.478831032526662 6.868507335457284 1.6923970313475563 -2.715594530964472 -0.9301449053346046
P 5.0915881147497855 1.7888254030173076 10.684356096830278 1.0812386108210477 -0.3397244886863956 -0.09793537629590876
P 4.571572737598645 9.058182259728557 5.004066807060644 -0.04445848742369118 0.5984116623838017 0.21218671614302165
Ni 0.7514697778344094 5.090009045477927 1.9071692140288383 0.4220316715267441 0.7723696740629278 1.615970732768017
