# total energy = -340898.2506150046 ev
CRYSTAL
PRIMVEC
9.00296533451774 0.00000000000000 0.00000000000000

0.00000000000000 9.00296533451774 0.00000000000000

0.00000000000000 0.00000000000000 13.17674980075396

PRIMCOORD
 96 1
Ni 6.218870374706247 2.1615219632103035 11.388519856497895 0.5765140909797619 -0.25549052113697934 0.646423671486706
Ni 4.62965791909441 0.37755105796066585 6.02273627195512 -0.40698480449595065 -0.44540145660093616 -1.1381054992114206
Ni 2.533857603313967 1.4532406691552369 4.85554052042122 1.0534282734769989 0.1490486500319562 -0.581516943510992
Ni 3.4345682798575052 4.244493053293822 4.768797849075746 -0.5204090204560778 -0.2593649164907211 0.37608117293855875
Ni 4.919562407983306 4.423715085538512 2.669806882357064 0.27433516464730817 -0.3849885027305176 -0.9463289712936347
Ni 7.252914968843791 5.871562978418339 2.6553256125089915 -0.1554013317228614 0.8240449909500325 -0.507566874386087
Ni 4.885306124631167 4.5641793517303855 11.31010492814867 -0.2852590106486636 -0.05514322083104697 0.4825420702069754
Ni 5.4443362582626404 7.63142664321278 12.43371282269193 0.8752132862937315 0.8983439587739239 0.4150950923079109
Ni 1.6610651224800177 6.428666477453923 0.5092338317000629 1.171643483067866 0.08517396286518235 -0.8518316741449974
Ni 2.6824155354016557 1.6197415112878175 0.3992419025021402 0.7393297128888234 -1.1830846350252722 0.062336139035060384
Ni 0.49040683045275807 -0.05523769421998758 4.825865846161828 -0.054160288092487366 0.6145003404155481 -0.31489200302374803
Ni 8.539249662423385 2.2019902926893753 1.3551362554732576 -0.07832017316814253 0.5835190615426854 -0.13255425192135883
Ni 6.758796215756055 0.6739196760077314 4.719411182070096 0.18752675150249637 -0.17618330146521916 -0.2289323110324767
Ni 0.878135740799651 7.460811445891782 2.5979019982895557 -0.4546288887364751 -0.6758612600215328 0.582330697661539
Ni 7.6292029107586465 3.708303442885575 3.7543590126927247 0.7106819672451438 -0.06986869996667967 0.4738998211509452
Ni 7.748933347631209 3.8959792596421328 12.620849361820946 -1.1882849482792892 0.2681976842910026 -0.37261995386283564
Ni 7.877324637219873 8.720020204717107 6.835926420942507 0.34077401299683246 0.18410538452577327 0.20157165963133672
Ni 6.776442027942702 0.6457385937084232 0.36361806870553537 -0.35340455727664943 -0.36715533120383864 -0.15956857572667357
Ni 2.006094768521384 6.535765753868392 9.20620014291393 -0.7803850881682366 0.37390216300936896 -0.41255329972266375
Ni 0.09725453374809157 4.681235907878749 1.5745034107391103 -0.3630130269006909 -0.19405015444331097 -0.6724920864389838
Ni 6.514779841517844 1.809298947813258 6.921008945467973 0.11830776930467367 0.8546370048042765 0.12076574392686298
Ni 3.073432328713122 4.240378698105405 0.3702577556890316 1.2620090174363168 0.4238648680807409 -0.7602386951273488
Ni 5.974034730616514 5.3877166088535455 4.649403222812652 0.3240068208408226 0.7223951419170138 0.6599345614889474
Ni 5.242462765068153 2.9176630213389507 9.267827241679258 -0.3945964581339269 -0.6629622925716776 -0.9775182524122454
P 0.26753752164577993 5.540893062192127 12.149556727211797 -0.7142529724258537 0.17140773445344673 2.0998929711519705
P 3.864261812533174 6.047886055803794 12.537110980029903 0.5306337835078797 0.845108496488551 1.046454670372643
P 2.2820986788305944 8.466307636741641 1.3146373159118214 0.7810882848828484 0.051681744645007764 -0.12285476524540777
P 6.27014226266694 7.615455382590784 5.703661274869308 -0.03708559199838774 0.36294952065260716 0.27842399000470114
P 4.754673096657567 1.0310916214858996 12.57314895023497 -0.27927913891614486 -0.48937837640251847 0.6002808543820565
P 3.90469413015064 6.368904793119758 8.113886556105765 0.8891404378977847 -0.6194021485925397 0.19082496263779394
P 4.6695680647185975 0.9500739358391441 3.6611603148579417 0.040310526693588644 0.6621143427490855 1.1898908593138282
P 0.2647294967370986 5.4384663248209595 3.64741638787624 -0.007199860182548891 0.22430252556994915 0.0342370668059991
Ni 1.347266763415937 1.0290299424089904 2.5350883086843314 0.20859565635765365 -0.06978205379014434 0.21603668601673118
Ni 1.7716125346432037 6.569490862261852 4.809052808274805 0.2909360064287828 -0.5560730495165906 -0.003538866391193905
Ni 5.830572476945989 5.568388118527852 9.091812065710528 0.39487182328250053 0.6988934592506479 0.09347914029676804
Ni 8.737134841945075 2.4153335638051843 10.116778969833888 -0.6323121717859884 -0.15196453812717053 0.6764451575494609
Ni 2.463886556214669 5.214328498188931 6.954266799957102 -0.230914374459512 0.1845283309958048 0.21331800153398747
Ni 0.5631435885233512 9.095785974638686 9.2549142884041 0.598570042338537 0.760497090995058 -0.10854786170443241
Ni 1.5114808523365748 1.2122042764648728 11.514305687899407 -0.44439024172760233 -0.9302588052046494 -1.3930769146201363
Ni 4.028025753183744 6.827011684602089 1.5394530658385717 0.11546027255354956 0.039573134306931844 -0.2685980050532148
Ni 5.700281561657642 8.020885923509812 7.8866535099687525 -0.36648530172000754 -0.4371135055605311 0.4764130744911021
Ni 5.348013531433589 2.8514822226736216 4.786796577506126 0.023321448334759836 -0.6302514326022178 0.03985209899993136
Ni 0.8890419330868473 7.492204786246291 7.098763494352242 -0.07015974884453724 -0.32085979057140873 -0.20078953004967354
Ni 5.100296938415423 4.918914194474409 6.887012847815932 -0.6438032031447235 -1.3998623129730858 0.16654886369924865
Ni 8.213531377167916 7.306041467677161 9.135137936407988 -0.5360960921740315 -1.2409537394279144 -0.3994730694999378
Ni 4.670432349397127 0.4426713073017161 10.329649585266127 -0.6914004933077125 -0.891811814082361 0.1944522749777361
Ni 8.113877553140364 7.079040698047503 4.736000946415165 0.06225720616800891 -0.41960043637743216 -0.246960115068465
Ni 7.224420583348515 6.033886444604693 6.940629107967136 0.537108849709262 -0.007561614397341816 0.41779115108283527
Ni 2.3236113522962225 5.127224807930863 2.5911551760177836 -0.15983262802133763 0.28309157068369956 0.40608080462444257
Ni 2.298448063999447 5.374347205232539 11.29558404525283 -0.2475663811938962 -0.9973039196796051 0.11126937440065353
Ni 1.189291729518435 3.1974481771167285 3.815828559563527 -0.2639386519043325 0.8731525471099608 -0.5337252779490098
Ni 3.4753787220218277 2.5744339683778548 2.616559743787315 0.17901974247274974 -0.32395025657127435 0.4743654479334539
Ni 1.192109657689058 3.292393450239374 8.261123753169077 -0.6101302363723106 0.8541551800718514 -0.5421009036072149
Ni 3.7939036379216176 2.6777610022891576 6.806041977589263 -0.01852814071117454 0.5336028934385326 0.4833743363002837
Ni 4.171866131401125 6.843388078667147 5.730661168107959 -0.40046114444482 0.8504142249721806 0.4217881880573704
Ni 0.8334324163957839 7.446721805038668 11.30409634903981 0.45534699784942223 0.1722597980410969 0.013559483851989552
P 0.2778495182164871 5.584773515558311 8.038700091149465 -0.1451457154331242 0.11570838400861364 0.3362308737108403
P 8.474140216640816 1.5964238308983192 7.984043088197865 0.1731080049740051 0.12438405740574063 0.00888804651824921
P 1.8541877333043928 3.239266951406003 10.390644675860278 -0.23885111280808546 0.41119318615034345 -0.2299509821049782
P 4.031392862243849 6.002259027149748 3.7225110225854463 -0.8422427449049817 1.624168438087461 -0.5318411735524194
P 6.695172259264709 3.9947147811987467 10.396349855035115 2.330155056739464 1.1138857074321076 -0.23043126417550636
P 6.341958917673515 7.774096635927986 10.13077317925375 -1.1919942788100761 -0.16323882548940918 0.05411529378716486
P 2.4083202537575317 8.432357454213147 5.755485944905643 0.3012363599135263 0.5574604167824205 0.5524223401378809
P 6.819134089875908 3.93515116210341 1.6670304873549529 1.0262190600520587 0.09417565214316038 -1.1093726500531025
Ni 5.153423437248793 3.0364571498097743 0.571940386017011 -0.2537928217195823 -0.9873519506732156 -0.9302446641372624
Ni 1.470346303417803 1.1363722988892955 7.038348194729937 -0.464150197963349 -0.1259460025762218 0.1036519670647118
Ni 6.836446792342706 0.7795163574967147 9.376970191239833 0.7575981721807082 0.1629619176789387 -1.013419594294545
Ni 2.795069641468758 1.6455350071626875 9.155574667869054 0.21049904402795358 -0.45944430784724744 -0.09259879457434375
Ni 6.301724665294879 2.0275398321074016 2.5190648308630075 0.0913186423103395 -0.9156852782658488 0.5605133446761315
Ni 4.17517021970342 6.883982449661837 10.40231972139275 0.15258083155493077 0.5421327852864147 -0.3407940676014905
Ni 8.353563501020526 6.971212181435525 0.47097302933740237 -1.3469009302847061 -0.004001922070541495 -0.3090774532244999
Ni 7.598925938113903 3.810334049779083 8.276580044170116 0.08316284597242452 0.14744813831405573 -0.44503147485602707
Ni 3.124551166261991 8.291244974512376 12.330683786935412 -0.40488806986792203 0.272721283192969 0.551266886377199
Ni 0.10383480115993883 4.8872597681232595 10.146716530683001 -0.414691429111589 -0.4484541273843309 -0.8808897678532184
Ni 8.780565147041191 2.4720792547298984 5.640703537817663 -0.6344482442923848 -0.7313721486046437 1.3561710427327225
Ni 3.5928494145786525 2.502959426056531 11.427852912039857 0.43260996126322265 0.7319550176913072 0.1288325800953975
Ni 1.0228719140744664 3.31629632337996 12.519282407645608 0.048611076139484025 0.4484533560533825 -0.21537436984238392
Ni 3.143781500359277 8.434536171840275 7.929781315427384 0.31987608650190075 0.14951479103509735 0.22227083985190108
Ni 5.574933274374635 7.746376505457226 3.513395544022112 0.23256373713747686 -0.17409350881572597 0.1599537269802342
Ni 3.1629308077679497 8.244330521805937 3.6204570079818947 -0.08738305470135918 0.11153034137152405 -0.4563448429863173
Ni 3.4369630686542645 4.392717875661661 9.229694281425296 -0.38855282304300826 0.20429394365850623 -0.30866453405679745
Ni 7.170294755355593 6.15330177768821 11.279152733098826 0.2759655011618795 -1.1574792757523422 0.45654178948847174
Ni 0.4077974205230438 9.12774650181348 0.17151999534383397 0.17039163448410655 -0.44826437997102797 0.8633394176742809
Ni 4.700367209356618 0.31300159662606114 1.6007119433189825 -0.7962421098051512 -0.5798500973315304 -0.7551039450039446
Ni 5.887381188628512 5.423899526801574 0.3295310411029412 0.08869663130646015 0.6712137339471924 0.409018804206844
Ni 7.873354329477878 8.61146244790762 11.434994064196207 -0.507604669602558 0.8714044540706024 0.18750849667005126
Ni 0.23402128204963135 4.946976437630419 5.962268755133488 -0.5751848306453772 -0.5929292991129917 -0.761127011269573
Ni 7.82731316441537 8.69251614541598 2.505598195215667 0.4749796844786852 0.5732503326268256 0.4175954901322615
P 8.47642696985276 1.5811277926814242 3.625134948804437 -0.32071452324279603 -0.2613294964162596 -0.469374679587082
P 1.6756049116031992 3.159347627538212 1.5051931813002715 -0.8191989757116407 -0.49072306335587096 1.0868546714562441
P 4.728123351688984 1.155584627055778 8.06032341345043 0.17408399573402922 -0.4788885326147882 0.8811317086606953
P 8.217789779802755 1.6670340885411132 12.237932536481075 1.1177732154119717 0.24634639274386605 0.19607875483756554
P 6.383948748305415 7.536391340436121 1.413891408275553 -0.8077801923517378 -0.1114490945116274 -0.9838321104454151
P 1.8406292674099585 3.3098952149795995 6.071741213227752 0.10787371845554325 -0.870837525823539 -0.7297171294997239
P 6.95797782229554 3.8724905229100086 5.975497712494232 -0.002679603714692159 0.25833159013020024 0.3070830485022905
P 2.459547126891218 8.574514277900477 10.207119226153743 0.3213956084702207 0.23502196886998233 -0.0356534875375515
