# total energy = -381168.7070609806 ev
CRYSTAL
PRIMVEC
9.20710874403562 0.00000000000000 0.00000000000000
0.00000000000000 9.20710874403562 0.00000000000000
0.00000000000000 0.00000000000000 13.47553431570873
PRIMCOORD
 96 1
Ni 6.279726929586506 4.312020478343038 2.505667687037978 -2.251069466160207 0.008444017002295136 2.3212438702927636
Ni 4.408906883602517 4.485022051547032 0.8284298644220542 -0.2911735763608856 -1.8779188366048818 0.8036779972579061
Ni 1.2322241909623906 3.785419894021461 1.8788670590217893 1.7535332365372447 0.41302741114560476 0.6239530011880158
Ni 4.792677590057488 5.638470220139365 4.34226214770684 1.4245875836339077 -1.5573362109542597 -1.6603888538720757
Ni 1.9326457811657238 3.0332175242705355 8.475059809471007 0.9135384071261751 -0.7752464813900907 0.0428111816282553
Ni 0.7547739152217013 1.5763398800789032 2.498000006880219 0.12897270521768756 -1.1511042254639334 -0.8084808179631882
Ni 4.0527206749293025 8.062830850614962 0.030706628355116554 1.3903692858809862 1.6305530014575662 -0.06314629364118157
Ni 0.7008635314228006 8.610110601164115 1.0145165805657776 1.2886973253607805 0.05657841061567675 -0.7423885543198053
Ni 7.057525061631583 5.645449208563454 1.0962121771169409 -1.8974422513497904 2.219370078174397 -0.9434524210767881
Ni 3.143362166114036 7.219864802915927 4.085701459142929 0.1528140306116594 1.96565927464566 0.11784085697058416
Ni 7.079180181385483 2.535472018736682 4.312198175541699 0.31152540054436023 0.7086281700399086 0.7058104980854554
Ni 0.4028745363773199 1.1116110664827568 11.627890566212132 -1.4375418298017306 0.6689277661264931 1.8159349387029176
Ni 0.6781468320313044 0.9360038815056532 7.406962459599181 1.0998839938363767 0.4914794819059212 0.1367816597391451
Ni 5.014274283185413 1.6754359914357198 0.37524124091924926 -0.8639140592308282 1.6524539152957152 -0.5486181359004422
Ni 6.315349233297323 7.248185869396793 2.9612759387173666 0.17836771071104762 0.15824857136366938 1.7136813946476295
Ni 7.289700722700508 0.3425440356547818 5.470770100147232 0.3532047825610175 1.6529380540209853 -0.09057996437210207
Ni 6.3213338539776105 7.814551956361694 0.6792480022364772 1.0873349535267725 0.31020591040198836 -1.697381114825709
Ni 8.365238337144241 7.4923491860437705 4.417927088034022 -0.19994517977150725 -1.1831550832518916 0.4623445122131779
Ni 0.8154929559330212 3.1438961784208925 10.412909448495958 -1.4930288071254416 0.44680656447857886 0.15555945456728046
Ni 7.709434395889635 8.592985378909756 12.09625987060364 1.7942901067396326 -0.5418448217323507 0.09922298475908072
Ni 8.102412211083507 0.651695729335309 0.9213332744410847 -1.8397824347444767 0.21104771744257203 -0.046180612321120466
Ni -0.18024480564888914 4.944732990880476 0.5086209423762464 0.3147788744846514 0.049257965694863556 -1.6770573156666924
Ni 9.321645171615305 8.662867334238031 9.918249245100512 -1.2098621602294324 -1.5984900594847502 -1.0361226923190157
Ni 5.312860819588049 4.76419079561932 12.262143428041588 1.2517456878370958 1.107826388611905 -0.8743761351044168
P 5.935427098295215 2.1368594529946 6.169463516040273 -0.09493644156858488 -1.1576268570737998 -0.6688886853584416
Ni 7.652746227384206 4.148364120509031 11.130157950630512 1.0518565581145047 0.8892525379956169 0.5759070535233823
P 1.609154015624355 2.886465418081155 6.358282902057703 -0.4610707877070768 -0.9723040552011578 -1.3204951865976677
Ni 3.6299210345301223 8.259945841606143 11.365197943228111 -1.446564087904999 -0.3898612574417866 -1.6351241657680162
P 3.902672423811395 2.2530255439533438 9.727907003297668 0.14703059116066292 0.5714711292392158 0.06171341784939694
P 1.8791248580664786 6.085779184001507 11.486694029435805 0.12149773699688106 0.4339204525445301 -0.04785080093469178
P 7.1514743992033525 6.162023251468365 12.514768998330492 0.46928854763117883 -0.08239871411289035 -1.3188949319900833
Ni 3.732856510231062 2.8834546935235332 6.968346847808313 0.030855294817959764 -0.03930136870278393 -1.2845959015978974
Ni 5.741884465494728 3.013569554221716 10.788890020246942 -1.0628709069471372 -1.2047052986188413 0.2756132600287834
Ni 2.801382526224949 9.370811132281048 6.10022605832372 0.24802737999071475 0.2374632313216233 0.16833732305823912
Ni 7.590450929656787 5.307456246758312 7.111928946458889 0.7374083274963945 0.08349014740485622 -1.483540408019032
Ni 7.189564208056195 5.377513137152628 4.417590107854178 0.11716234284632081 0.06124830528752032 0.9251785624682647
Ni 5.562143288693857 4.465420117041907 8.967846366238087 -0.7326175909759705 -1.6675977129156896 0.44516080134503977
Ni 5.265895357910902 9.30691379763306 1.9801489379932216 -0.8407072820970618 -1.1091595056010317 1.2531921904756353
Ni 0.103165653419412 4.538662667059882 5.05199120413433 -0.18908998222455822 -0.06680780165316881 -1.239083261878079
Ni 0.1291527178349667 2.1511580928661167 4.702570378962462 1.4817738030369125 -0.964680734327945 -0.2639088271076616
Ni 2.2069255504976546 3.4979463378666815 4.144939996769033 -2.145115590435196 -3.9376288077800634 -0.941862707992165
Ni 4.689392244224469 2.7540948157419414 4.393711471339832 -0.5213559577503795 0.22980391500415262 0.07537240339372826
Ni 2.917097468855486 8.483227435633289 1.7628556474898593 -0.8008919498723368 0.8765363759805291 2.1874398051247037
Ni 7.878237527508689 3.5717781428439475 8.633559265700354 0.4615765236989019 -1.07091460318722 1.8704423257221785
Ni 4.743336694325705 0.08086235321029253 4.581654340605318 0.19696835653137046 2.420946365791424 -1.6775116295952917
Ni 1.6196224982604879 5.755575436189477 3.2952932709690494 -1.0792894575144767 -1.2293068992176055 1.5350190355142983
Ni 5.537053917380344 6.090060489565097 7.604877548339774 -1.1109379376576933 2.8524013875145973 -0.7656153860582299
Ni 6.897035949203758 3.5478120387965824 13.39049025607905 0.47587571393039335 -1.5702932853355602 0.5426382641679235
Ni 6.053158397739573 2.1535887695731875 2.404466830623447 -0.5436019136327734 -1.544372194594424 -1.0306704109551927
Ni 5.563054792459008 0.39827006129699427 12.141806516824122 -0.6923440881679044 0.25126002799539954 0.12840809096346917
Ni 6.555249658598188 0.8869309126381723 10.112068091163167 1.2572815300536604 -0.6597566411501864 0.031832056908932274
Ni 1.888046546434476 5.171412008032276 9.53178453862854 -2.0954159092172238 1.1046017110270203 1.4264830008844078
Ni 2.0710102112939635 1.053090683338287 13.682384145139377 1.0932754873809236 -0.05435723459464187 -0.016348102340720233
Ni 8.077101869160263 2.724337440297806 6.507228141548691 -0.32880784177389183 -0.04405893799242734 0.6383406373682554
Ni 3.4993734397212117 6.074933209907078 12.815273375483441 -0.869402078928593 -0.4596101440011504 0.12399144995301228
Ni 5.807807364065276 7.550022515184262 11.368850403264833 -0.09036502014781855 -1.518010930992076 -0.48615935524458853
P 7.350918788705477 1.5234542474826425 12.491160130102195 0.5486870414651648 1.1114418738773053 -0.12609281256673122
Ni 6.83665573009403 6.085889669306374 9.849523702629842 0.2476581695767541 0.9390998005350473 -0.492102717312217
P 8.766161887179788 5.544815510047241 8.876697831144693 1.0099789440441123 0.5106509126280495 0.5907230354902924
Ni 5.222180005618589 9.293931774311206 6.988155942260064 0.9098524736341557 -0.7306612385805481 -0.582312442829094
P 8.47043876159495 4.9498705575567845 2.659059960049855 1.065261775776817 1.61893187227887 1.3391444262677388
P 3.5957534540000524 4.390096760448938 2.910594487953199 0.7660262483434033 1.638348843352901 -0.8107421031935392
P 3.0450670732175045 2.991518528792042 13.344242028172665 0.07722488322143475 -0.4888142763689323 0.4398026223569199
Ni 3.417457793271189 1.3902273840307109 11.64942415213068 -0.129639392267409 -0.8271786514830077 0.5929624663437724
Ni 1.6354495181826627 6.2493987134005575 1.222582506691011 0.7255154327135505 1.101028134743149 -2.4041089825191113
Ni 3.406924860873884 5.071708227498692 8.048788168366386 1.2564050409859782 -0.11471979484309919 -1.6381801789855206
Ni 0.6132394775546575 8.975642025207316 5.333563003587472 0.23572362292269727 0.8890165107254109 -0.8781327739333715
Ni 4.252137443105211 5.8527656760373405 10.462230088588518 -0.966872085552309 0.25039793710542035 -0.41720082579700407
Ni 8.546029124341349 7.334456478280318 2.068736976146328 -0.2973920464667717 -1.8176519213940243 0.4765976796980824
Ni 1.7117580354106936 0.9762665680208775 9.806483231408091 2.6673593501071675 -0.09357504244468401 -0.5713122350638483
Ni 3.0928795888986294 7.070194043256314 6.595034496169864 0.8077909909850153 0.11454650249002853 0.5392678050337938
Ni 3.579014930312726 0.8667940451153168 8.250961544898722 -1.5806046945638972 -0.6113455968366504 0.39548374583488666
Ni 3.619710350938679 2.356034676524194 2.26486036152633 -0.8491369009216537 -0.814894691909332 -0.854963792016076
Ni 8.181676210216725 2.9860034706574394 2.1331775302099127 -0.2517963601148438 -1.1535915106621617 0.28918122852120515
Ni 5.728976099042785 2.244877252719414 8.291590674341755 0.18744730441481264 -0.38103620295098894 0.2550068966323415
Ni 0.8998061334986547 4.746881431190182 7.141642127781078 -0.045238045902193054 1.4457264224950521 1.2811171990206776
Ni 4.49822504547862 6.563664955985547 1.8440595844343652 -1.0398189102236803 -0.41086305650443433 0.05336684565691455
Ni 8.960901444116333 6.4908275187520825 10.965204311175194 -0.40564731663144976 -0.9261000458412695 0.1853369429400292
Ni 3.2078763770475316 3.6428846436344986 11.267621925524088 1.2852093668121802 1.456593704226859 -1.4598232669077504
Ni 7.639929932019653 0.3246592269294621 7.941415786964169 -0.47531778454439433 0.28575163401436593 -0.09891702348288771
Ni 2.476850357396084 0.9410309628770944 3.864204202789383 0.17203534073511662 -0.8728998076692064 0.38755549212674545
Ni -0.07412827387865863 7.616295283886888 7.298821284617267 0.6902926049555144 -0.288777051104251 0.8800004232697296
Ni 1.3383729476132071 4.13712224073883 12.377804048730566 -0.5849647928502765 0.7965907513938217 1.6077933391635473
Ni 3.994329191307178 7.651954416032662 8.77281494395452 0.7411829640474784 0.05747598272928166 0.6005284516164884
Ni 1.0715141079248327 8.095129388071033 12.0437719851049 1.3209379305620412 0.14878459773729213 0.9748970127393146
Ni 5.498826001896418 4.263471393962801 6.122999841789397 0.7769824902445909 0.3916139784668352 0.7711304023391881
Ni 7.6538234591066585 9.227088164866768 3.225261239768329 -0.4440670540602287 2.1230164445433113 -0.904846278668816
Ni 0.23093914636529098 2.474263159840452 13.759059105295215 -0.5652436602722652 -0.16687256558725455 -1.7357843971942557
P 1.2675702814110403 8.025054083459242 3.238777275397039 -0.6881830148116793 0.6496961715903907 0.16394639307939507
Ni 1.1112519892419395 6.705656986956914 5.519713248781494 -0.24037860519620538 -0.6531090539266816 -0.4538465020444958
P 8.845683685357695 1.5955367017995168 9.387003674420159 -0.7743782198525244 0.14525318754526598 -0.4034230552866213
Ni 2.9262493349419567 4.968358431904503 5.394930224754011 0.30594842067721506 1.3881727924502993 3.16946211605489
P 1.9298191987828806 7.856923070778127 8.506619936806219 -1.2689329982496595 1.1228843113862919 -0.39543618042640283
P 6.141519020306828 8.266234296874813 8.859745702534623 -0.09901883916807462 -1.0167190909814232 0.3440899647439429
P 5.036702800073382 7.458651168059385 5.2785689430900025 0.7042650079752064 -0.8347626344778526 1.7197656531684964
Ni 6.955537918130751 7.567092494786189 6.3593205432125774 -0.539532114438774 -1.317448429351544 0.274856584368417
