# total energy = -340888.5643537953 ev
CRYSTAL
PRIMVEC
9.11150142133320 0.00000000000000 0.00000000000000

0.00000000000000 9.11150142133320 0.00000000000000

0.00000000000000 0.00000000000000 13.33560333480289

PRIMCOORD
 96 1
Ni 6.496655275588075 2.447577019068054 11.467631582395663 1.5439726451631601 0.9224843034655532 -1.2760230723272217
Ni 4.993275794928453 0.4403397205018855 6.373764813840365 -0.6264433717100373 1.2636560661214367 -2.067143544635092
Ni 3.223694694207065 1.7590755397982227 4.4130845531311795 -0.3064934945474076 -0.5219162011292237 1.265130336674118
Ni 3.5992343290806206 4.5504477234394765 4.760730238126001 0.0770032541289319 -0.3130935163624285 -0.015933897621437074
Ni 3.6485093277557996 3.1995309929336595 2.497851549428638 0.7395474853265843 -2.0744431636202982 0.5852635550376178
Ni 5.173173275298783 4.725270097622292 2.386606497408507 1.2833610007495317 1.2760169016796346 0.12051531847895375
Ni 5.5970038667142115 3.179977711284818 0.43833427908021266 0.2475563538915672 0.0005818406453989979 0.1460144911913227
Ni 6.186955348633685 8.225025056226652 12.86337598782419 -0.8807157041691994 -0.8704189502288816 -0.36328273562230984
Ni 2.4523241112111323 6.618348486073596 0.4078572186015501 -1.0187443489415682 0.491458913080631 -2.3865635174361803
Ni 0.6545930274263254 0.11018173982608599 13.442554941834333 0.1855868541673062 0.9859625265248568 -0.15101220151623024
Ni 8.146994159655975 0.07323824692142956 6.640556859182116 1.7398783647579712 0.15547743637643544 0.9358170160187173
Ni -0.25833930564667634 2.5375530937569217 1.302899119000973 1.441443478848982 0.7730988389194685 -0.5365432070137792
Ni 6.939137110030148 1.0384469071761941 4.79509608733147 0.26524348675868514 -0.20163825120321405 -0.7921118896868616
Ni 1.1491334241706614 7.488187062908778 2.371203504571896 0.441588253502433 -0.8382742471755371 0.14969219715322607
Ni 7.735937892971055 3.7600249913625894 3.8705520570854564 0.929798063518147 -0.26935545204452965 -0.39940159283205406
Ni 8.269452736245176 4.1246581592586695 12.414312916040572 -0.8132710402629799 -0.11526178338949826 -0.7999511832256223
Ni 8.150465641626248 7.498683512330709 8.98728960488901 0.5119390353118538 -1.1213483343577397 -0.1826966771037047
Ni 7.022297781795747 1.1903811902584085 0.33122311517009106 0.7532419520945415 -0.6116461587962048 -1.2299049378129205
Ni 1.9307088885490273 6.89377094538449 8.983955706587375 0.011585905065386497 0.7555029802145763 0.20625569537056734
Ni 0.3787186376542085 5.024182007115252 0.9357949119701467 0.6489400101506565 -0.2076212082595263 1.402779743730197
Ni 6.702748322007061 1.8510743677611083 7.295095217601037 -0.14767310984066825 0.8296258274719196 -0.5175414691002959
Ni 3.6933379138286333 4.451351036015058 0.2251406397493237 -0.5191543221133704 0.30736869806350936 0.22423850510123317
Ni 6.160650444570215 5.70268816953104 4.466746739650682 -0.6303095395336629 -0.5161600153717368 0.3986480024954812
Ni 5.34363124039036 3.556975186355864 9.060115100804525 0.4608645852335418 0.05519592844585333 0.6095908189290727
P 0.5009412263614427 6.002711682174587 12.371612776656075 0.9739408194736324 -0.13965023953619174 -0.8812636062528694
P 4.534411481267081 6.414232635422455 12.616040642218197 -1.0333129907843623 0.9970113281398506 0.5210700510788445
P 2.5765503190397925 8.699779828040674 1.0390318655554374 0.5232534318834086 -0.9056302080226919 1.2735051910013746
P 6.620589915377237 8.03878597099724 5.85542335357175 -1.502824967280257 0.8139639525649466 -1.4148076214290086
P 4.996619715881447 1.4059501979610836 12.420874108079401 -0.6834686400551455 -1.6363179289658012 1.2033544410179018
P 4.34009049444283 6.675122250264617 7.88351505616302 -0.6779022017109616 -0.8270323557131304 1.7790213535060202
P 5.134668071082564 1.673709884733919 3.4075128535585204 -0.8711949091629576 -0.9109323369618956 0.8201045182450457
P 0.6131575644131514 5.6426980454043045 3.5794623714021556 0.3857680612090195 0.5318887389609033 -0.976609367444731
Ni 0.5734715096369659 8.90167247239064 4.3969216610916275 1.1802296820749805 0.17326252827399838 1.2179251397432251
Ni 2.1475535064245066 6.740779728159095 4.7724521844639485 -0.014773815875064879 -0.11633367629743836 -1.501771329204762
Ni 6.188568084352158 5.88309589397049 8.917304163908232 -0.7922229613434292 0.9795085433693971 0.5578129150258329
Ni 8.921836224622181 2.954249379705881 10.102293167736173 -0.16129995659548352 -0.7691658224136496 0.9100278228697554
Ni 2.5250065565572686 5.636092207009426 6.952582952401627 0.010840285148613588 -0.15880212987429426 -0.2512237754408254
Ni 0.7206696343775828 -0.035569478518521616 8.77822712021776 0.6974348724272506 0.8237413436666846 -0.37748653792651765
Ni 1.6148586982614739 1.248230111595079 11.218855708444526 -0.4413843650217431 0.18416683389132799 0.2240040204929239
Ni 4.492425683579354 7.251032908782009 1.5140709162079673 1.2609864897090735 -0.15928421171703536 -0.18817698349198558
Ni 6.048897881931333 8.28712904863975 7.977531170499184 -0.3154036525528439 -0.36652823914280097 1.2991223773488465
Ni 5.4990005594379125 2.9071975873318747 5.284485752428047 -0.6296137990182189 0.13237298914848816 -0.15586335896094447
Ni 0.9151591839746686 7.6337797411319075 6.597535994954171 -0.2943085224454415 -0.11314705103934063 0.84630997299582
Ni 5.27826533053538 5.0565733940032445 6.700647209822428 -1.6670045594163807 -1.278406484957734 0.37979513145503624
Ni 0.596917224613107 7.810069067013448 11.129987592305751 1.2463869946283437 -0.2944831003500928 -0.3813575908461497
Ni 4.687020015440634 0.5836782133196464 10.161222713119233 0.42932280587151866 0.5303072534063963 0.17843584494482173
Ni 8.098247628052384 7.046370368056809 4.653018626284539 1.8573186438560272 0.4591468312114867 0.48112050726910044
Ni 7.1452574909528375 6.221396823299398 6.799957106375729 2.93896863118288 0.15832004803155314 0.5474125456281154
Ni 2.7144255557174577 5.498991447936677 2.34458607601609 -1.0325262332170089 -0.617359150020582 1.4794322993879296
Ni 2.7585525561952484 5.401762618265295 11.385991620186072 -1.1486040847498993 1.4512054433317525 1.805698091466258
Ni 1.2671546996587526 3.457805606921572 3.665623460524215 -0.10467886566732941 0.20970020227574207 -0.47579986638713534
Ni 1.8234847420236002 1.2417700572199488 2.407436300380276 -0.42250372606715625 0.16632517772421676 -0.13380637916090501
Ni 1.3218145955634124 3.8350855385308824 8.171204329585674 -0.4802345051197214 -0.5878202600212006 -0.33330778652677434
Ni 3.6932467988162903 3.40936886635995 7.159698309259104 -0.4335170464585243 -0.9649303884449059 0.02366623326868827
Ni 4.214041986367307 7.248208343399371 5.858130380588465 1.0473473573902414 0.20766851655769397 -1.2178004412399026
Ni 8.543153121822787 7.305756585195309 0.4069624691803403 -0.691191719731016 -0.26572916814585207 0.4531427911092518
P 0.20540695037604276 5.7428061094657314 7.737503248883111 0.3811858411549758 1.1225575241744925 0.4568459509924519
P 8.915139271214958 1.9729862542762524 8.002721737961696 0.7988803187589467 -0.8031712328248168 0.21716925695927763
P 1.9525856030126192 3.7051646424307747 10.326517190461324 0.6732898997499308 -1.3107249945847812 -1.0460579491548567
P 4.250005081739151 6.35664794762158 3.640419225809851 -0.042828665129752044 0.8628735337814558 0.012168002821101625
P 7.186714821568974 4.625289594578145 10.251931352507338 0.663820783917231 -1.4479910501595128 1.52417309393873
P 6.4779402520527904 8.229462357327765 10.310034484728446 -0.18315587612831036 -0.6389371333016738 -0.292597967512238
P 2.6676379968792467 8.804917440783441 5.610994576859504 -0.0672176354970778 0.5593000410943207 -0.4153447464248718
P 7.208026622956038 4.220028242678252 1.6842600920131332 0.5197397623031952 -2.2463013553476023 -1.04612145540294
Ni 2.877849441856144 1.3892943737047545 13.401214238433994 -0.22151622107406366 2.466859326273455 -0.7356664051046233
Ni 1.703413378757788 1.451589707643771 6.5589296530742525 0.34470214440664504 -2.1976123747823313 1.719027746561207
Ni 7.635055351304712 0.7627374355764184 9.301369430486737 -0.8438679392132307 0.758651553145887 -0.321122300204176
Ni 2.58270969387419 1.597346392889119 8.947483278296533 0.39396036721182476 1.43396156864964 0.5072992225469972
Ni 6.925296739655222 2.002890201327276 2.4288665512833867 -0.10284232667922288 -0.057580883738262124 0.7751449228152199
Ni 4.363999073681675 7.205912754669677 10.233768485946854 -0.009799759699241187 0.19571597218150807 -0.14041051474098398
Ni 7.543065634843061 6.616699304350184 11.544778663346614 -0.39387397814560554 -0.9821552369636246 -0.9184337875452634
Ni 7.7119928677272735 3.8510944461995753 8.194807673533168 0.2770155396929487 1.2192343454729517 -0.9938943797774237
Ni 3.7219298047019156 8.5599911761038 12.259966818581633 -0.19280214096882278 -0.4080998919370004 0.13528784880243797
Ni 0.31938089701585093 5.379175206705426 10.083769485726808 -0.2128595738403302 0.17007513168495228 0.36714658945309026
Ni 8.825072081513747 2.432953059586977 5.847368786480614 -0.8339496516582542 0.8852261904450431 -0.9115787122966428
Ni 3.959038401322513 3.0529360495747544 11.516160349119753 -1.0340064173069612 -0.7325358298954416 -0.6884897474188207
Ni 1.5987131180742664 3.3491691777048267 12.408191809511358 -0.6673977026352119 0.45048915553648866 1.2768550813102137
Ni 3.451072207509413 8.723551734761003 7.9491133092994755 -0.7274267908036505 -0.5943619177944602 0.05067670041926111
Ni 6.117616824240542 8.030303163348092 3.6048133012863923 -1.2328077132820123 0.16049314442347198 0.16907317278299913
Ni 3.423109010221298 8.532365104361357 3.2677032451688097 -0.16939687467100503 0.103128490461074 0.8935933314628159
Ni 3.4065989699847186 5.044445985860371 9.287514481709836 0.9204371911285374 -0.834845423999646 -1.605270058521061
Ni 5.2093823812039535 4.946852696139615 11.2945221704449 1.4538328536522702 0.014252910374588357 -0.8126272360313942
Ni 8.547007286844902 -0.17069121952317654 2.34533230796718 -1.1557131849908548 1.2739137392937028 -0.22503297597807054
Ni 4.723630027400115 0.6833890159272568 1.348322686104407 0.8735896346473793 -0.02800342719146145 0.7452417074978843
Ni 6.335363480738218 5.726040947194591 0.38696454627126414 0.05836121354771239 0.52654341548859 -0.596576666057592
Ni 7.985911929334507 0.1851092590763577 11.50495775835216 -0.26264461568325737 -0.17896317820320148 1.0888609032529954
Ni 0.45859279092459015 4.880639416669843 5.576842847933041 -0.5281562685016645 0.46547071654698546 1.1091494782987026
Ni 7.836793100133695 5.963304439336171 2.5948817483731124 -0.33495714920473924 1.5962817389795219 -0.5640295853595061
P 9.03514685397213 1.6411727138261776 3.5517907421535386 -1.4287897946407135 0.6641483424599789 0.0879561535960098
P 1.941287341482068 3.420803800409016 1.4729306658347852 -1.3815380607426013 -0.264887388970847 -2.1793752829490143
P 4.780458460598542 1.7105476842242573 8.238362471733444 -0.9570286170993259 -0.9548537209351943 -0.34584345709993985
P 8.892834316193355 1.9028003602683183 12.352075895709454 -0.49311650328871204 0.8920154454527348 0.5064533296069342
P 6.789034238696032 8.025902308251919 1.6046064370726218 -0.7344944962837091 -0.2503195184590012 -1.209083373081879
P 1.9834371461920122 3.288167676941083 5.7422038392341435 1.0011700875032306 1.4047718344595612 -0.08877376440129872
P 7.1583416067253145 4.195445412348068 5.8471419100998805 0.1223048062792087 -0.22043687196695586 1.2171977746588973
P 2.531083927880557 8.747925000562796 10.213672158824448 0.2373251630818622 -0.9364716188835808 -0.7605114891727612
