# total energy = -340864.65381732513 ev
CRYSTAL
PRIMVEC
9.30022070893991 0.00000000000000 0.00000000000000

0.00000000000000 9.30022070893991 0.00000000000000

0.00000000000000 0.00000000000000 13.61181308824961

PRIMCOORD
 96 1
Ni 7.116203328895171 3.4277916228973124 5.511205661008621 -0.3214735128960076 0.15118832208277833 -0.8818688439370361
Ni 1.6231768091789391 1.8883353999536483 8.85151661846438 -1.6330965938150261 -2.0975193287134717 -1.6830862954695915
Ni 2.2394280294768514 1.6954209231397943 5.591433084370094 -1.9671857385925153 0.7592349364531827 0.7607542013111867
Ni 9.091402789661691 7.436456426763611 5.840407431180504 -0.6163422787202933 2.005750743349907 -0.042163520741927384
Ni 1.7511013441340837 7.5393168670837785 3.0553624271731574 -0.42406361435510836 0.6231428465818946 0.5499404542562916
Ni 9.059521633294825 5.644415511355624 7.274070854235018 -0.7984828262102119 -0.4829799290753423 0.6261860042835925
Ni 4.481078811687565 7.241058791037869 8.243055262977695 -0.0996238197419252 -2.1329151917142624 -1.503710969429636
Ni 0.13434726733173638 4.7534078725786255 2.7566095793889995 0.13491529595436766 -0.8090654868220647 -0.32220704862792254
Ni 8.119157723561305 0.19826210368402536 9.49335460579745 0.21111199502160416 -0.5478426911869985 -1.0199165148727982
Ni 4.16219284625376 0.26921255695333113 4.898496894753924 -0.12169905437440975 -0.4362313600658939 0.6028401304688005
Ni 5.267272963809203 3.952751877355915 7.6142440947003625 1.3068451999144008 -0.8683427844261433 1.3422593177476367
Ni 3.137680540135351 0.6305530996039113 7.29854531488118 1.381653503274543 0.18293296148422689 0.07326872678716415
Ni 4.741047879343046 4.105694005842818 5.339301312651123 -0.4216832870483899 -0.40572907771197864 -1.8640086542816932
Ni 7.489449083991849 8.015478863824487 3.9766636746531288 -0.5802902701927426 -0.5075722737027258 -1.459742534268486
Ni 8.169434716361561 5.604303659719016 4.741511960353171 -0.47326064490504943 -0.8947349012664269 0.00035764044973486794
Ni 2.00256070990051 8.036627565568434 7.878857692545346 -1.0811532501960928 -1.0563436473515808 -0.3708530917704
Ni 0.4024512379843294 0.6822697665598231 7.227750175296626 -0.6968424902588901 -0.9318875990573241 -0.6595465820219093
Ni 9.123907060811689 2.9763682130690494 6.590431165174366 1.6186055992877026 0.5810667433474509 0.4617076499601274
Ni 0.6365108209483145 7.262914309550744 1.0192800019842199 -0.055412415332033595 -1.4422423206011936 -1.533930687546126
Ni 8.337006091921124 5.225394070250278 0.11703862669160414 1.8422265254095953 0.4689530186686311 -1.4536274225096837
Ni 8.862682463369298 1.1754734876081872 11.462371279879987 1.4173571273237398 0.7096159878744747 0.35532748533097513
Ni 8.699342688202652 8.848620529755907 2.0088718396293768 -3.29470954990219 0.72825365758032 0.8604672383328084
Ni 2.556295847030957 4.671649632899187 11.138410184040872 0.7724421791720761 -1.8205343851481421 -0.4958313311167138
Ni 2.7360877125164427 6.017856571085821 1.3082452975628676 -0.747298590026913 -1.9605422651340685 1.0573240089869789
P 9.280718081086404 3.2148351705961202 4.363321277940197 -1.156223291858054 -0.30949114372315084 -0.622937672549624
P 2.9300903151456184 2.848536680320343 7.454740660549276 0.7725352531065146 0.8715870023950537 -1.6934411563413545
P 8.67062360685467 0.22930252010469346 13.479125056504964 0.4353705547274953 -0.1716663874314721 0.13007905090798888
P 5.355727362352161 2.2382469014550916 4.403707486085795 1.169545977108889 0.373054470297093 -3.6702199379389433
P 3.512358529211171 0.6524058280505928 13.095666729119355 0.16825839019118763 -0.27472083012150106 -0.06202015045653835
P 1.7733381716933532 6.509912644906743 6.083105989100492 0.9467254354011051 -0.5311909415629303 -0.4580983353423143
P 8.97309468285221 7.965332074113244 8.01818801809802 -0.530330393334848 -0.4611947148794509 0.8883505950066378
P 3.8469153664297395 5.114377336425519 9.331278730616294 -0.84700597062158 -1.0000442014289033 -0.9545297619368722
Ni 3.2680603333404528 8.14519834136388 0.7771189968174411 -0.7976227922027618 0.5031908568055785 -0.937715775703327
Ni 2.9445614584673345 5.621741573426097 4.155087477681914 0.5555822259231012 0.5173784611598703 -0.38910406756078797
Ni 7.313535410514819 1.9112325431786257 7.592247212833703 0.35998683847985746 -1.4137231301155782 1.1415440925793245
Ni 6.273677740334179 4.318715559688516 0.5068304043356251 0.3978522460670632 -1.9452007496809918 -0.05024861174290701
Ni 6.9781508536589545 2.321800083718779 10.071761368251707 -0.7882413509878619 -0.5858901328780233 0.276330340700466
Ni 7.128767926984913 7.585418060814979 0.1579270467519671 0.22921950325559234 0.3093656738888801 -0.32029826164098385
Ni 7.99337223935423 6.578222765535282 9.592979499355648 1.886848277884028 0.690911726596752 0.1000303111517245
Ni 5.960120801329258 5.518713729134342 3.4725098738187827 -2.5710196004331527 1.2149804552926042 1.412676948239251
Ni 3.3589792903540108 6.8860693690649235 10.560466572574677 0.5558367651360686 0.33781955835419886 0.9278710216987633
Ni 8.39076136724215 7.851153265269601 11.78859232933554 0.4897347313006727 0.5656496374614323 -0.2652216323818142
Ni 6.742315858574072 7.2342603297472685 7.63863671340486 0.6852259890658844 0.09232651474956356 -1.3203784585141454
Ni 7.157756714731564 4.5866642166563585 10.844000539297358 3.9059926689320217 -0.6100333057831301 1.2615405624403306
Ni 3.605909448666918 4.021406106148272 0.06147445845536202 -0.7136230521513387 0.9096028195171948 -0.58930661475874
Ni 1.379864436696461 8.751916835501921 12.627842380185793 0.013290546461319048 -0.09593814336022187 -0.4788036862104657
Ni 4.780713320388753 8.111001430056714 12.232731806355597 -0.5660407022522639 0.1987115644747223 -0.25440860092671025
Ni 1.390559690436804 5.877348837599648 12.70025668818443 0.23574984817494238 0.8200633805944652 0.9532179851039843
Ni 5.077771667971615 6.11907087235204 0.591005771360381 0.6292273622130776 1.6324304209859368 1.4965278214176356
Ni 9.038140426034783 3.6033425877692355 12.281570985044324 0.5578967329888908 -1.1685337337942907 -0.8115928812296087
Ni 1.921165178826179 3.3545895862101487 2.034339563840294 0.81534643473477 -0.0462150651034817 1.9406308709221223
Ni 3.7633063828421895 2.5047726246644357 9.460237450107027 1.3572077115273526 0.5381774001830925 1.2573056984233766
Ni 0.7993335038471655 0.9612057041962225 3.4807042982280136 -0.4365404066658804 1.600881185424746 1.5823232199169006
Ni 5.0825891822650915 4.220170421747062 11.329833835485529 -2.262866715905451 -0.6727486825344801 0.7337545327938911
Ni 4.559730777671982 7.00725124405333 5.694216332858918 0.4567528770580134 0.33912413609823533 -0.4527409276851429
Ni 7.528761116653093 1.2817564091252638 3.4750274435470527 0.31465083354721946 0.4460802278355156 0.7456420282600965
P 3.5930379432959314 6.357770335395205 12.82432907174892 -2.01267472416325 -0.2925876830995929 -0.9217068018695804
P 7.576461948335021 3.9363741888022252 8.10940086208392 -0.572049627450505 0.8748939552810997 0.13091594498698744
P 9.007672903205771 6.847678058247414 3.0097894859745247 1.2052290323327954 0.27518234313895185 0.9108024962522507
P 1.7767141517870437 8.37235623058812 10.01644272584046 -0.17406908333569374 -0.15481691997430114 0.8572734139858591
P 1.5959643635752496 2.6358871353003956 10.684511055477238 -0.042956448956867954 0.9272187328267452 3.1421906819334464
P 1.3944192820039711 4.026353823530762 0.2424158312124182 -1.8524096365901839 0.3335494702239353 -1.3368988247666718
P 2.8865001809882385 0.3292492012971653 3.1725600876377706 -0.9322436968451623 -1.4474125519482233 1.0801896007312428
P 4.123689932788525 4.196538561091226 2.2807405395985705 0.3733475760574796 0.500966338350434 0.17497179765562124
Ni 5.36636681476864 9.19298909975366 0.5435262849297736 -0.7220503569830855 0.00970257199974458 0.8061858512814244
Ni 6.275137874975252 8.26764504635984 10.43329163540342 0.19511202004892203 -0.20929422508657503 -0.6044699527627396
Ni 1.7104128788175619 8.787964490717197 5.270970731537169 0.5726695204226911 -1.2096083923474137 0.12599253954344108
Ni 6.699572044495276 0.7271758819382975 12.405942835713546 -0.17533997962831738 -0.23135017644534994 -1.3888603054356277
Ni 6.77307168824304 3.585355961044172 2.7697182403864025 0.4038560290589819 -1.5852365369089536 -0.040559923700233376
Ni 1.7909527895926656 1.9346597989802987 12.906149622906671 -0.16710550753366704 0.8574222808588975 -0.4744047858118217
Ni 1.3018727863777522 0.2677375419592282 1.3648975916144317 1.7646720267628833 0.6322810614377369 -1.7813661995891128
Ni 3.296193500787876 1.5306303135527204 1.5542649642747492 -0.5691147131918973 0.023211405119456803 -0.4003328463970718
Ni 1.711863713237991 4.020755090703209 5.299487068075116 -0.2729606528972847 0.8833212601128465 1.2255839418400636
Ni 6.98205694632934 1.3683228628775346 1.0725377155008053 2.085096786679402 0.5941441453566993 0.5553935069510629
Ni 5.545433263043912 1.7123845255940426 6.272664016284007 -1.298905376242034 0.1794905114615812 2.5687932822057955
Ni 3.5216308491930164 5.193150205278306 6.884147013457855 -2.348121154299582 1.1331191017404227 1.0415055538974836
Ni 9.209041280584819 2.3688219992937123 1.0957538562938645 -0.18462449025403688 -0.03824181709001801 -0.18137692985101667
Ni 3.87735498859682 8.936312310206075 9.348633872359645 -1.7142087279060092 1.5838849079770658 1.1383368984959363
Ni 4.035375037555225 7.701540615773171 2.9813549913782427 1.5458392660582538 -0.15467062420442396 0.83013053502248
Ni 5.264389895409633 0.6962535783198054 2.754473318707124 0.4968584868296475 -0.0018781908593193458 0.4521560017159503
Ni 1.498079541299503 4.389164731065122 8.114192335759594 1.6383521857870107 -0.2891485755110569 -0.8746520144736227
Ni 5.92187829404205 5.625675566758415 9.391524629924612 -1.3159209369634242 0.23890407753320791 -2.0509399382920357
Ni 9.20123839546469 3.55291679143868 9.458808006194078 -0.8913670132354583 -0.09313281270094283 1.3421790993290046
Ni 3.247767251895733 2.7474525821431373 4.018193809937912 0.960349968163075 0.27908887728220966 -2.5897927672755983
Ni 5.009619651094022 2.32099096452277 0.4858286460778492 1.202717578764851 -0.1043037417160978 -1.4253182911523452
Ni 7.442408567975628 5.981604311016381 1.905776103726922 -0.6939682540348887 0.6288442678420461 0.9542256004328921
Ni 6.5069923756245975 8.873414917992216 5.7235492287693885 -1.6135256136616343 -0.2051686329539757 1.402455527621559
Ni 1.2860531110626883 6.100479731285131 9.715907955780953 -1.2842328618315237 0.7902972050756261 0.13002840017571154
P 5.846639509033898 6.324559247476279 11.418200811954435 0.6870519865310297 0.5980591641403894 0.7754994779411611
P 6.732485525353601 2.941706290729695 12.447744537441126 0.08688014692301166 0.05834578692874468 -0.2818522989599597
P 8.350333308103655 0.45921606470568305 5.402869250773398 1.9820965942660769 0.11039648487739696 -0.3331452928069811
P 5.279233047557099 0.010607831666291366 7.567378422832245 0.009376813229209656 -1.3417816067802697 -0.036471355453156544
P 8.958995548356246 5.7218863493182806 11.521419310769387 -0.5581433017820582 0.5102223097310632 -1.3174977945322406
P 5.247900604208217 0.8737920003433038 10.150642119663962 2.17758708070034 1.8193215957869635 1.0230823141952896
P 6.195890694869633 5.506335135457475 5.930095038980825 0.686090908169341 1.3279349307051647 -0.053965655583178035
P 6.107864106476289 7.8294186496250955 2.124354539407277 -0.2990552931018075 -0.3015700891038613 0.5090226329960071
