# total energy = -340864.749851469 ev
CRYSTAL
PRIMVEC
9.23805030849499 0.00000000000000 0.00000000000000
0.00000000000000 9.23805030849499 0.00000000000000
0.00000000000000 0.00000000000000 13.52082042292114
PRIMCOORD
 96 1
Ni 2.2666202975086063 1.1338136224934434 5.957003358173951 -0.41625440272333475 -1.1890603929927328 -0.8617923849021352
Ni 0.2914133716294185 3.3757498497087917 8.739182612172161 -1.3780267051552333 -0.1437218385024041 -0.023787589337900965
Ni 4.901266041253301 5.348332245509268 9.411708052035209 0.5105203005874563 -0.21576234930942195 0.6547877271806852
Ni 0.5365866064901711 1.1453149950664625 3.021321889649592 -0.033482705138477814 -0.44035978041197066 -0.6404947075967807
Ni 1.044463200384014 7.483245660468854 6.695293554029019 -1.209023723488537 0.36478425986850077 -1.1184504439846543
Ni 7.76822103487246 2.1220263348476482 4.31711640919731 -0.13687833321800943 -0.710396574794241 0.9951940724254539
Ni 3.4675575931872356 6.006728087500483 7.5778654664462755 -0.8424345492008137 -1.4914954012000508 -0.571493497836719
Ni 8.631840163377422 7.544392315136173 10.700768956748812 -0.003326236159755562 0.1471365206109079 0.0977145185343543
Ni 5.426624721458133 7.665549344288899 6.804325642216213 -0.11295241853003128 -0.7093277672100945 3.3843844859615198
Ni 7.218233712675926 6.044225333503603 6.182733268653633 1.591927318665568 3.7507242632425988 1.1706245548850487
Ni 1.476462144666814 2.847056233360297 1.4126826456755508 0.1644863247432651 0.5100024804107732 1.052921251933593
Ni 2.2300560945816916 1.7382684890197118 8.28519341305176 0.9232510064282486 0.5319342474868581 0.9474646275599747
Ni 2.8199795080498404 1.1679574562523818 12.191102033880195 -3.098729268315702 1.0610240835463856 -0.9235266286871386
Ni 4.988482473752796 -0.044799000928191314 1.129107759691278 -1.114992310232725 1.4527092815707885 -3.82880609514769
Ni 0.17301482428416526 8.406311642393398 1.8775819821523665 -1.1038584051030926 -1.2798699568771377 -0.5266010081994028
Ni 3.2015294598657675 7.691748454824708 6.02092974216434 -0.1432513266238888 0.9024438398749103 -1.363990024556509
Ni 3.661556648635748 1.560565354228874 2.9606944134068542 -0.7069099017972212 -1.0407439931411109 0.2648825038748406
Ni 1.4386785191056515 2.460000403589736 10.661626413994485 -0.5469644023471032 -0.6073788988794185 0.48118709884097777
Ni 7.590508662031362 9.332832655114974 8.953257798444518 1.9327296137971746 0.542557017308027 -0.6934463200931477
Ni 6.355834006805211 3.0714854263634477 8.72447194093901 -0.22054408696878144 -0.6023349086976079 -0.27150052341199044
Ni 3.7685609847909918 2.423741056321383 0.5330715283664492 -0.22783624975482053 -0.4873189227703284 0.5133873377226061
Ni 3.440083631715622 4.562746927545906 11.453122236513844 0.10642233072099737 -0.6748225343443733 0.8028832692707527
Ni 4.918458052786143 3.9374972098856085 2.9304887604735206 -0.17883873681019524 1.3061952250352278 -1.301556697821952
Ni 4.9492946645521965 7.241679884234418 -0.31436807891410734 -0.917493020898549 -1.0449703725176325 -0.46866531222488317
P 0.2974144090779592 5.272672613884349 4.807841638979453 -1.9847823686283559 1.105442975981393 -1.308709249706333
P 8.329432588134228 2.653186510615417 10.464452240671799 -0.3293588291813554 0.12432646469492781 0.6481933617926192
P 4.038256624065462 3.9205453876595127 7.975459140147795 -0.27244900336818884 0.30419467121090193 0.6319501604608793
P 5.361773608636772 -0.27429156927854836 2.9733902658784204 1.3274999000502752 -1.0743724798288334 4.4414128180849515
P 0.8783491996436602 0.4104853728385859 9.274660652631198 0.20633102869319303 -0.3945674046682044 3.7101687104177397
P 3.6737139227771882 2.0858039397803334 10.238736187267504 0.046984082059022304 0.06981470680029267 0.44047702271612527
P 1.299054627484279 6.431456686229094 10.064303322268515 0.07558091986010854 -0.028255395301267465 0.6841970335807378
P 2.2229150817311343 9.268628205811774 3.6974982069751756 0.09033365268925088 -0.7700579952106157 1.9233407163831067
Ni 0.583012428069052 3.2159500563207737 3.9227006247850427 0.6064990673776264 1.828224554703548 0.6767791438501117
Ni 0.26245855070121504 2.04515651863874 12.97704024536347 0.30940346910535105 -0.06024608927525108 -0.8383071572960015
Ni 7.14521616342521 4.36170847779969 4.9475246541224855 0.29589540731658714 -2.0786502597231102 -3.994300035219863
Ni 2.773133355184154 8.199896647396178 1.9262572689694242 0.7211689828193967 -1.293528685311153 -0.26061627239931895
Ni 1.100076262945921 5.643035286836079 8.063681596320544 -1.244406473863205 0.25029586430991735 0.16777682256907878
Ni 6.205798832541435 7.553122272631356 9.938897713801465 0.06958459306735758 -0.5349282971181756 0.12519189801901665
Ni 7.593409409812831 8.529177710844122 6.447660226384174 -0.7536031920887022 1.6903324355090437 -1.2233172572930737
Ni 5.475798862989201 3.1995525171102446 11.331664046922661 -1.3592741071380783 -1.5389286549813497 0.3549101952878984
Ni 8.07675343743767 7.2794727478458405 8.084964216508272 1.051573736766763 -1.374819253961529 2.0646302912949346
Ni 2.4499032146561537 4.252089773421021 9.520956310598475 0.2120789869205638 0.20714401151279163 -1.4437194193673524
Ni 1.985524904213971 3.7524036348872087 6.853866534342582 0.9361103788894202 -1.5413161813769198 0.6463714780925319
Ni 7.9313003361025824 7.007430643805469 4.057138274990758 0.4292690698154479 -1.4506128040530761 -0.45449262026892695
Ni 5.984473624425461 0.9413018931367026 10.140142172068467 -1.1688795471694837 1.2406092116043022 -0.5987988705198912
Ni 7.618185860608683 2.1144696097354156 6.78265225250251 -0.6241841433622154 -0.6353118778442607 0.21822006682129516
Ni 1.8528018361364098 8.444464789964938 11.076810259195028 -2.1094140232685286 0.3342076726332245 0.37034966977142025
Ni 7.634333972462208 9.227158598197091 3.379880181979793 -1.659359384166297 -0.24151811811728732 -1.0714558204026707
Ni 2.191219331290951 5.557250752126798 5.553230352653885 0.48054432305065625 1.1097413462464305 -0.6001556416581019
Ni 5.944768484410332 7.826660940813759 4.853636501725613 0.5650680539263494 0.2644083924518995 -3.814272163197573
Ni 0.33938379521168005 4.6805782586052285 0.18267320583042335 0.22993658392727498 -0.08599723009742609 0.27089759972066896
Ni 4.362170380312662 0.4090664083187339 5.299769662905376 0.951042317608904 0.13671558238790005 -2.339847087216248
Ni 9.153706860584181 5.015429866359621 11.035774839942539 1.5837563528190015 0.4845752985869203 0.06670598596798188
Ni 3.7125506860679285 3.716957236041688 4.812452349863945 1.1241228117790834 0.11865306845923437 3.2116922283686944
Ni 3.976869780091397 0.2029498023448967 7.572038104342612 -0.31884044614853474 -0.8495241090577433 1.312292339071901
Ni 7.376878749781512 1.2099259185810767 11.995955612589459 0.8160799704666849 0.5020017215934839 -1.124650145037463
P 8.968012812318916 -0.028516937345905425 13.22833830754624 1.4242690239522244 -2.1625021613427595 -0.7367663230370215
P 6.033564623504193 2.5982016354711526 0.18684788074267017 -1.036895051708666 -0.4143952380274089 -0.9563907264050109
P 8.251657442999894 2.6504058574873213 2.3072196807888505 0.2689425328768271 0.6818812409633677 -0.6924667297886977
P 5.90392706421329 1.0959468544799456 7.744644606805309 0.8803274675918451 -0.37566131179232076 0.4869599967690129
P 3.7823441557780955 6.099718301412137 1.6976746485696235 -0.5902561231562029 -0.8864322949380024 -0.5745502823851717
P 1.916064004313144 3.4318155767334115 12.771064057753577 1.1689391967628255 0.43596062290301046 0.10884405278861255
P 5.63100734539827 2.2534468378386268 4.645321239790026 -0.6632507703463738 0.8991047481993483 0.719275879561742
P 4.40714120897568 7.4570927401843425 8.69185977591309 0.049625633446927435 0.9942101112456296 1.633878209176057
Ni 0.2138497778460253 0.5393811166936555 7.429933796226577 -0.5940826959911446 -0.7943369223626384 -1.986367967947921
Ni 2.1796348162655974 7.950395385988872 8.709341862224077 0.11554023386186553 -0.07915552458524432 -0.6517273430878067
Ni 6.892019681914122 4.2852636119027165 1.2427958252092364 0.33089326354801074 -1.0408995448823688 1.8437393625096956
Ni 7.869904254078259 3.7029800659991348 12.467007490539071 -1.1461293979571616 -2.374136090306105 -0.1107996338530866
Ni 4.077084149305943 7.001943241951353 3.6027038018478508 -2.8730640580702715 0.7872532760429796 2.627669230606397
Ni 4.536954291221513 4.538986662278592 0.10765561869853539 2.449146482374724 -0.12238399625657632 1.1759547088487101
Ni 1.3507599947864375 6.2165981132947365 1.8484581049044149 0.15846300136732064 -0.4022855992480685 -0.6025169428014268
Ni 1.7309150010131873 0.4729281259573065 0.6947272460515911 -0.2851307126009154 1.2375431710844687 -0.5643242337817894
Ni 5.808932193395335 6.3376073336433105 2.6259194814696154 2.8013094539347887 -0.9584069855040914 -1.7217605721113383
Ni 3.94845353749332 9.094851242381205 10.149647201980416 -0.10405974402609176 1.2465805986963887 -0.6552836929804972
Ni 6.867852942435393 7.698067281202174 0.6076152035200273 1.590999664644976 2.8201037038231562 0.7990867783427981
Ni 7.3882692657514175 5.753189798129796 13.131893986642575 -1.1876766252713287 0.39684745895163265 -2.2758600428413254
Ni 5.955650907615968 4.407815586644619 6.766386817410692 -2.5115605258355713 -1.144506517641758 1.6427307744706805
Ni 4.243701623785437 2.3327554993160304 6.657976450005958 1.2401561832272834 0.3134467859367892 0.052293667197393805
Ni 5.925331626664443 1.911620502138347 2.5138582366023465 1.9824138683961794 -0.6415956539704434 -1.2277552384597694
Ni 2.8244414863251563 5.83636920266591 13.23371947182237 -2.634320674484644 1.8628624564923917 0.7364531626719769
Ni 0.9712516520778491 7.304794243607001 3.935721656625742 2.147597733427101 -0.7266760286805549 0.5235046286622661
Ni 0.00906067969447149 6.99795240423927 13.220955257778884 1.106928559387984 1.4611553554556127 -0.21628839701622105
Ni 7.636763579680443 1.148141838445855 0.7056032026220451 -1.2441689039311024 0.4313334085436443 3.4317727454374958
Ni 8.91896800349148 4.037092629732771 6.459842443261315 -0.4151264597664786 1.5013252428062789 0.6086711353282808
Ni 3.696199337108697 7.097741823141881 11.146794032740539 0.5727260846922395 -2.3569860608893793 -0.1838855552054833
Ni 4.900665567986437 1.1323724866529687 12.31120684910837 2.547708179400722 -0.5615626118762522 0.7879194488720689
Ni 0.02823055778786238 -0.236501477082204 5.020739897648754 0.8650132058322779 1.7706534411572992 0.32692913669394014
Ni 6.96063068119108 4.501572558727808 10.421929495327534 1.745230373098504 2.348223741315717 -1.1594232868525904
P 7.916759644994204 6.251268515918463 1.7154809904447192 1.5987723666118594 -0.18862152722857192 1.0002447474754839
P 6.200736380999254 8.637863372146585 11.821022969071432 0.14590136265222614 -0.9869176913492744 0.211745514840545
P 4.4580428659052656 5.7144361772913905 5.525175317820952 0.3586948591413113 1.0865211993762256 -0.3779053706314911
P 2.667514726567828 3.437811071351797 3.1945916841209185 -1.9365176200846972 0.37058981080668435 -3.139223885995639
P 5.5112637379352405 5.358678861799856 11.832772845196429 -0.3870772669387463 1.033228658600672 -0.41959400861952895
P 3.1780370980559787 8.489241619572505 13.017737551976465 -0.14168192525423987 -0.591620093383265 0.21914746373157096
P 7.441637482100277 5.316405543812599 8.396456490376613 -0.09591834586587998 -1.1263331891668409 -0.45379816530506356
P 0.47036456701030827 2.1216013845357136 5.992521813811496 -0.8445335978216876 0.5065898551847985 -0.8943667192937308
