# total energy = -340894.8613736056 ev
CRYSTAL
PRIMVEC
9.03461635909635 0.00000000000000 0.00000000000000
0.00000000000000 9.03461635909635 0.00000000000000
0.00000000000000 0.00000000000000 13.22307427455948
PRIMCOORD
 96 1
Ni 6.4696889104072035 1.9001153794055174 11.47787952291553 -0.040583577849317196 -0.22000621218744043 0.20364062634522345
Ni 4.4845848931296 0.39230473361718443 5.989391528915545 -0.27662267512990424 -0.6026526970483427 0.6747554285518638
Ni 2.6528615609965063 1.6642667144059644 4.759407990457887 0.2808117735105874 -1.387529502439346 -0.19629189928963614
Ni 3.212709644659687 4.328466719170884 4.802131788654263 0.5278284528486006 -0.633898799546818 -0.038190137916476165
Ni 5.00312670993287 4.578409385986155 2.5003247090376304 0.04401317235615646 -0.5622287847053414 0.7607997098371413
Ni 7.221116037982107 6.192506874698095 2.6429749801074425 0.14567587690498138 0.038491728317295 -0.17935424299403305
Ni 5.362957417827994 4.384553618704201 11.70132365939394 -0.5056254343890002 1.3834077669614884 -0.7381704024733997
Ni 5.72407104127301 8.149585511442137 12.58293238374002 -0.6075776451537859 -0.5789175582149321 -0.6427305389058351
Ni 1.7508093063243981 6.6230966994013585 0.46073291935580213 0.18607407821636984 -0.4731282330922432 -0.3054012899244934
Ni 2.656692238413086 1.641860865365593 0.3531776162687812 0.5175191005027926 -0.8823036174816095 0.2103992852252957
Ni 0.5483081679457339 0.048301770453442305 4.718429680178688 -0.512531160369898 -0.1532223217936716 0.39799417096156614
Ni 8.610721374696002 2.204175399346523 1.3575071510402554 0.3001192155899477 1.3274687897020236 0.5134043070034706
Ni 6.6370461473523 0.6919233360629298 4.763533196373949 0.2081475130766415 0.05966347729890369 0.3152774113876248
Ni 0.8445189130293712 7.613146119256215 2.7635961456469573 -0.07402128868247251 -0.658524311404982 -0.5301049075876032
Ni 7.62892055974996 4.022717225935302 3.645601489659518 -0.13404137798984656 -1.0531004578239347 0.628234402172189
Ni 7.604201848873164 3.8865023122330125 12.582693869863139 1.2253720829395736 -0.9162750893310477 0.11988616953538708
Ni 7.794579288783932 8.985468234512762 6.8823856770360905 0.3194024892995918 -0.40840970986793534 0.12493273082035902
Ni 7.438832227568747 0.4651192256901167 0.2670903690243935 -1.27538363897101 -0.0841249527753777 0.3926768725137108
Ni 1.907379211110541 6.4708363067088674 9.269996316937485 0.6723529897579582 -0.04495805276792902 -0.8349647231863296
Ni 0.0033129938883484453 4.774451530472855 1.607740732508389 -0.6788979899653276 -0.8002401752209508 -1.557750672783859
Ni 6.340249959116317 2.0972778163442363 7.055449177793242 -0.10914178653468946 -0.06815917347474067 -0.5610746164962402
Ni 3.6146597349040888 4.445609557339213 0.41263262085139224 -1.370539909859885 0.3001752656388637 0.13484716172059358
Ni 5.970887730762486 5.67368498478182 4.627943478136818 0.13277999477891972 -0.49872510772474105 1.4223211561972344
Ni 5.399764445646732 2.8229472521392602 9.369672530932528 -0.3927043833175366 0.5656563223296516 0.19656546466599695
P 0.10053450256715298 5.50376191673694 12.664293623067868 1.1002511473678083 -0.03188296475152573 -0.6633533573625092
P 4.072886451629327 6.317292998466485 12.625391467671523 -0.09446721524165021 -1.2282352634199816 -0.05725435363677881
P 2.4591864860455233 8.579046009076833 1.4313976659441183 -0.4753121281174394 -0.3367746620294522 -0.6077085143046953
P 6.201396937381855 7.728003199437764 5.855785812472472 1.0546760298411706 -0.32709882950258506 -0.8387581287904909
P 4.645256513828779 1.1291825147023236 12.582139144407058 0.03931499554953874 -0.4982808210984709 -0.819375610498821
P 3.858413689383612 6.1291651780763035 8.093976543124237 1.1347489240343618 0.19094940403080018 1.572576424942782
P 4.578472628301995 0.9442890870365179 3.864100077039261 1.2454035476691518 1.1739302222195136 -1.373701852527634
P 0.23436698788559315 5.593566005229396 3.555235448017743 -0.22536490539619253 0.6057508763576923 1.0606867548116248
Ni 1.3801551278041275 1.031843556008388 2.5490249060808634 -0.2746848346772431 0.7873494353012118 0.4142265736600285
Ni 1.7539714221163862 6.479337880881041 4.896941054714608 0.7933660738089369 0.5747420866810038 -0.4150238727503433
Ni 5.848107291867872 5.426046145186427 9.014685280969074 -0.025434123802388454 1.3390354114937002 1.1160279505860908
Ni 8.56030821435517 2.2477041818773738 10.245397009520545 0.4750830428257689 0.9914433471337699 -0.35329451406134643
Ni 2.359579838597905 5.16527097312946 6.934273286797647 -0.7994732151479393 -0.6866123278904498 -0.018911749302838395
Ni 0.7147998886254798 8.930501627431463 9.167768727229136 0.3007689333588046 0.14293688070726351 -0.23348136385573984
Ni 1.5415675870602858 0.9177453836169169 11.261113774989795 0.4123864351274962 0.9585800207468459 0.0462204644201204
Ni 3.954505870993849 6.727988597529871 1.6916542510111987 0.718962462086381 1.306045329720925 -0.24663924139393656
Ni 5.544779075867297 7.896480728834878 7.863444749963499 -0.21393840872680572 -0.11612670249295484 1.3834481332811206
Ni 5.199503135231867 2.8756642396999728 4.7042670152772015 0.13574961893020493 0.2948042311349375 0.26117625866784694
Ni 0.6892246960998818 7.492353296002278 6.967753768803214 0.05463182841226719 -0.12290978685305927 0.0027940178053693816
Ni 4.892371345664358 4.339687712924167 7.151302845526598 0.25366426656151797 0.3014829287066937 -0.9844365767986336
Ni 8.209069426797702 7.1398225582783725 9.038037957823732 -0.49170959563885636 -0.037009487344813685 0.5433144642993417
Ni 4.613526940510318 0.35716820639826996 10.3941700402253 0.23010113452959727 -0.16253614299542973 0.11366975631203005
Ni 8.19482183650066 7.120109024969465 4.812934479661347 -0.5697569747615864 0.14540513974209796 0.19146311044242512
Ni 7.383450028126215 6.018798302319378 6.9721301370593265 -0.6719372423767782 0.6983208745766296 -0.572795247367278
Ni 2.1780021152054125 5.333567810195603 2.4079484652138063 0.7973559116946204 -0.6710473835726573 1.2883530546474844
Ni 2.6451550330806044 5.194344369182651 11.279586855446588 -0.3355392469604544 -0.4720763947889612 1.0733872330974288
Ni 1.1367264195203517 3.442550289654463 3.7696874306453965 -1.1166164760997093 -0.37880062875225085 -0.2328588997803925
Ni 3.5007603240766856 2.6268418653367207 2.650195445653033 0.7523765187704526 0.15669691060583335 -0.13894781415252844
Ni 1.0450250615527032 3.224834100067823 8.318318720487575 -0.4463771902506442 0.7639367128042263 -0.773461621575526
Ni 3.443625409023739 2.5527038019394275 7.146490105291193 -0.8130748650917738 0.20826475538079617 -1.0070041776865044
Ni 4.092103081028065 6.800111941436841 6.089530315277872 0.14589570622527132 0.5394297845329549 -1.411277239678247
Ni 0.9474240989788603 7.057354578423328 11.374091654929247 -0.3853679975571234 1.268925799160808 -0.012616917433062143
P 0.43141107134752593 5.51561533364862 7.900588768979498 -1.4751974353709754 -0.01955323954157923 0.7100816146569835
P 8.390077969347638 1.768743020173244 7.9870283662692785 -0.4548374052028553 -0.6400105688715106 0.5745284280083008
P 1.7432834707394669 3.0654273256854396 10.415405906422635 -1.010834092955556 2.445143531862918 1.7837023039214572
P 3.9649769915736033 6.049118475456266 3.884000626910723 -0.7002659141181424 0.9805117878229306 -1.0916086412014618
P 7.000472632633741 4.068694389550806 10.37356840410967 0.5646556489792791 -0.312010824821211 -0.3376640066129411
P 6.40592258680763 7.758567307221464 10.364325087918862 0.16009899430884683 0.1595598339759252 -0.8034280860306292
P 2.321661552943696 8.57616396639785 5.686980326494647 0.7777450794422283 -0.6230605712807334 1.033406064718801
P 6.845745789623499 3.993571552949722 1.412674326608931 0.8441877844464944 -0.8930400300625071 1.9933495414720765
Ni 5.284627292352179 2.886523848791314 0.3329771171279078 0.442679943904715 -0.4845308185022301 1.0233833903754763
Ni 1.217902449208955 1.0506807315120872 7.0435749812635 0.6852015635858522 0.27845458613232044 -0.457580000944999
Ni 6.793625086754991 0.6314971102013511 9.195682981979152 0.036317089263479395 0.028112956186132226 -0.32196922158550356
Ni 2.763138090587947 1.756329457035554 9.339205997007552 1.408913881652393 -2.8733952161574448 -1.7067556140620737
Ni 6.437706367825383 2.0540200723098416 2.526069752354341 -0.08974615561689706 0.05590709558026501 0.423540909082419
Ni 4.317598075462995 6.783271416190367 10.435597370946962 0.32253332161908965 0.5163962997522591 -0.23764655097702295
Ni 8.1640047594536 7.064952690940648 0.5245127948801978 0.2108605411324304 0.8907813159353174 0.1959553418858238
Ni 7.587523946724565 4.004928065951233 8.170537690679847 1.1419503268788074 -1.0933431073940654 0.35024184327795166
Ni 3.1343614499507755 8.286983959912284 12.503104318840458 0.4552891480282933 0.6519348311129224 -0.3842205142162415
Ni 0.24509017426705149 4.987451650221159 10.284524126868947 -0.4239476576025344 -1.516617650188975 -0.3865517334525794
Ni 8.56257590310885 2.3923032197367053 5.718212995902938 -0.6394644665600536 -0.2264527391437326 0.01077446490768467
Ni 3.692312264138763 2.8319095917554087 11.505198396434995 -0.5587935337715473 -0.7577331550966757 -0.2206541301840845
Ni 1.3569361632743877 3.4834138603034948 12.706038972292037 -1.1540687074088964 0.7159815250811863 -0.6110877151895734
Ni 2.97687904889323 8.28707430607777 7.90622185239751 0.4388011776755991 0.6959330910707433 0.06321108544084597
Ni 5.463142280734718 7.822667911633332 3.6547255489118853 0.193040482231874 0.33475737448910736 -0.0701594917342211
Ni 3.1581947684058154 8.356631818884955 3.482495039800509 -0.7597280740395174 -0.26765389597239064 0.8807445005246058
Ni 3.251395872720521 4.232763026072234 9.131352898306949 0.6254858928927745 0.0987514444393009 0.07805534954253009
Ni 7.3733583614415 6.090379569233435 11.493879828822987 -0.8255632273667717 0.42668356847645866 -0.6762101587205194
Ni 0.742016670977947 -0.11286946454087027 -0.043901912194304886 -0.04767776569193724 -0.5628173102189598 1.2245490728176458
Ni 4.774442495856306 0.6146800749579047 1.5124155898431222 -0.4543956896797465 -1.315454795960283 0.19848350762431624
Ni 5.96518688772036 5.684147070745026 0.5201815997068292 -0.27360497134950296 1.5230258677081643 -1.0690379549897975
Ni 8.179146776788949 8.911908386574575 11.11662586291401 -0.0807992308362544 -0.5561391268678357 0.37549264742494043
Ni 9.155319025625253 4.7417733224167975 5.764400666084023 -0.36875635714237137 0.28280797800500973 -0.11856307984858935
Ni 7.729340322686947 8.732236967273824 2.6302280396191122 0.6445295397877868 0.09827656168541138 0.35827268400222817
P 8.39234565810132 1.462379173012361 3.661165423587682 -0.3315434955375 1.9474314387837235 -0.8140855657444754
P 1.671873861539832 3.184187360215956 1.6587953506241704 0.6624658125512333 0.1736880458471912 -0.47972696935568343
P 4.6663433088530635 1.16439945000852 8.183483392732247 0.6773602131645625 -1.5746813871009266 0.3236882611591393
P 8.810946546644676 1.7392359625257228 12.439554826038052 -0.5499882767750914 -0.2528309720269452 -0.5665680355106435
P 6.2134671850907 7.80458964391971 1.5138168588698002 -0.484948622765939 -0.5487968275701516 -0.8158953652597046
P 1.6705096344410033 3.103851549866367 5.903282598591441 -0.3787798028166444 0.6258391624671351 1.3742957773578912
P 6.702791051976002 4.036088458427137 5.980915251669708 1.0947266180051534 0.026381832427638433 -0.7045316313730318
P 2.687933942437926 8.343829767235677 10.18639554268867 -1.6120112338996369 0.5346639877131953 0.08004306939652021
