# total energy = -340865.3931411008 ev
CRYSTAL
PRIMVEC
9.29451050278557 0.00000000000000 0.00000000000000

0.00000000000000 9.29451050278557 0.00000000000000

0.00000000000000 0.00000000000000 13.60345562434658

PRIMCOORD
 96 1
Ni 3.6376017876942597 8.463618250410846 11.856595033363156 -0.13996134301870733 0.14007652844033294 -0.055191557570479145
Ni 6.921751937984528 3.5928022480843076 3.7351960046677886 1.0505728063060746 -0.03712055900138123 0.7300554866757492
Ni 1.3312620037080838 9.282483196202536 10.934456924809206 -0.1651956921054639 -1.780249569486166 1.3333604725961101
Ni 6.74420820237679 1.7798522484663202 11.446790780055611 0.9490250300685591 -0.8010019930876399 1.4118557378895362
Ni 3.169734728589334 0.8740827019885287 10.004742860915822 1.6522358857476385 1.1197604210453296 -1.430886529268742
Ni 0.3097191075756207 2.118841627855148 10.978247080601388 -0.4803453196659728 0.7751217828867684 1.1026188762690365
Ni 1.9481479463329991 7.184080196480642 5.922767747783043 1.2258284537507018 0.1867255957574397 3.3619657519466877
Ni 7.595752646356985 3.7267547304201214 10.81519627489278 0.33352890139864494 2.920406551909977 1.6711247522323416
Ni 4.485000880083989 5.367923590811734 9.024763155909454 -0.3523856290938318 -1.1999168760912624 -0.1958051894612047
Ni 2.7793002347314024 3.324218784161327 10.852591807603709 1.43069806740702 0.32999903386851553 2.756441646887821
Ni 1.9591805300502214 0.0660049648423383 7.812355632018012 0.42713813951537405 0.800346361781512 -0.3005573315686308
Ni 0.4601535450131618 0.3003028391982676 0.9483188851459236 1.2476902868207997 -0.31925027999244376 1.5206833356179166
Ni 1.2244494914264317 6.172744531551426 0.007219975595230359 1.1172790493843725 -0.5259389491353716 -0.8327309487598045
Ni 7.229139982378784 6.580132212182916 11.530914463262189 -0.16266186994001666 -1.2791202231953067 -0.8570942080955175
Ni 9.20031972521665 6.991265580462293 1.7132598705734945 0.3440200307379559 1.5786863944952618 1.4043347469221428
Ni 4.6770068737068895 3.9162697952846255 3.04407201998342 -0.386054996321819 0.09342386157880038 -0.18740025322696113
Ni 4.725914586866135 1.5294023741240477 2.3595601499211507 0.9079115478577008 -0.8105904081070233 1.7114633039503881
Ni 3.439721663566486 0.08864360356183183 0.7285511187302924 -0.046575019546061726 -0.6808348019767242 1.8364970791249857
Ni 7.899636660370962 1.8548961245681352 1.5227437869504856 0.08615869537595484 0.3201370534727712 2.015762104839322
Ni 0.21278665973491862 2.6954172793413997 4.658557270776235 -0.6686174339749259 -0.21496145067468142 -0.31193883393269506
Ni 8.73759253030349 -0.17725467633763983 7.487150940844023 -2.2749259610628307 0.7847891307732032 -0.1924108190676751
Ni 9.079091427471297 7.759010719645117 12.939171260782487 -1.8894929145957267 1.483080180553162 1.2191484706273648
Ni 5.289942649457482 3.7024309969845937 11.834747357469556 -1.1241701200772511 0.39915039605319647 -1.3898895180310902
Ni 6.183461101918702 0.3731448458117845 7.594087999563595 0.7398825000685 -1.2665755537610766 0.2761632189949825
P 3.751329415633547 1.3209079192422153 7.3643258462304155 0.24553340992426748 -0.4897123627031695 0.8090793707791356
P 5.057012927016612 8.07113896428856 0.7785899737921381 1.0277974602827717 1.3884700119757443 0.057777830240416626
P 7.549019848606188 7.6045731366245874 9.045848681959066 0.08709123449255324 2.78471349724932 0.08126717161160843
P 3.2743537364419515 5.656862032275337 3.219434334025503 -0.338347662943527 0.27025096727560555 1.0133139219546161
P 1.7685315349300295 8.50824119432524 13.222572033013806 0.870383726115572 -1.1587015781952175 -1.1071555877971258
P 6.88072596955334 0.4649588068343952 3.353972370509745 -0.15880135854334587 0.09606027076038295 -0.01914212014608961
P 4.7668661992149834 1.1536717955488838 11.506060942739989 -0.8252827200118754 -0.5638511508001127 0.2511445854634578
P 4.8927138685757185 5.952148624268731 11.873462710642023 0.5850874344710698 -0.05246747377109674 -0.22357027538961496
Ni 3.8207687020289716 4.052518021662692 5.423942533795788 0.26923306753405246 0.5514396645096373 -0.1549616730822815
Ni 7.31767948742534 7.486551444930155 3.2107690620797853 1.87992661106353 1.1049845482877356 -0.3723384180666749
Ni 1.3478062320287714 6.554590897899069 4.029438823155333 -1.1852926984201844 -1.6802783937071515 -2.682529630089703
Ni 0.03853968692793857 0.45507781294241606 3.50801865464696 -0.15229209666991836 -1.1364952173015073 0.26775185500283566
Ni 7.540757028956137 8.731504626061888 1.4147731786863853 -0.18802708817768263 0.4101236072352485 -0.8219513416457973
Ni 2.7691785130228466 9.172157359030312 5.027374592595821 -1.177721828051462 1.4306438171303169 -2.4649654516848516
Ni 7.174283782632325 6.507727977004177 6.43636565642923 -0.5246994203013158 0.9194581150447196 0.7223540042664334
Ni 5.126861171864909 4.896357316610386 0.3789855160796047 -0.6569068304062171 -1.1164416410847418 -0.03257227750906648
Ni 9.358456523333604 6.389446039021554 7.32185551089977 -0.4446177843573762 -0.07370530010395049 0.8323895062599859
Ni 2.2930858123090405 3.7399715240560862 3.6225725645512528 -1.487304760157471 -0.7613015891742243 -0.5651408161458138
Ni 7.172787366475229 5.414340375212585 2.010413729684656 0.12980728530384095 -1.670983855779103 0.9162424363208994
Ni 4.619882813449055 2.42529092670986 0.2841545570160416 -0.26417107963011277 1.117255652345605 -1.4344187107917168
Ni 0.19031160439657344 4.752710660039473 1.7756316113424864 0.7821105554997756 -2.259186438840387 0.904664758785629
Ni 2.645691649276412 4.7786051657144375 1.329393807139287 0.3302191202991216 -0.12005611945434809 -0.5062448131405538
Ni 0.2829853076212424 6.501491360597895 11.216878985106721 0.2731627416057618 -0.9277568647184021 -1.7540754821939595
Ni 4.635451118189028 7.506915716981068 10.013992757558938 0.884497796919451 -0.13939775720575348 -0.33590794315378275
Ni 8.76723272362634 4.626091546324459 9.05660893652472 0.8470627920014445 0.36012824915372815 -0.7288722650009254
Ni 0.1991813555687263 3.141888375752941 7.200104861675978 -0.6755612122826107 -0.5223910838831132 0.07964866217157895
Ni 0.4180503428390707 4.23913319931593 12.292218506812295 -0.23113780332422776 2.091687809633359 -1.6211587047268599
Ni 7.631434271369973 2.2570881739461064 9.160838504396079 -0.1895116431430091 -1.2183018063563533 -1.9130539897451182
Ni 5.5791971042710315 2.0454057020339396 6.309990058883879 -2.473323850951876 0.3227811759638376 -2.403268488895687
Ni 6.110276127875391 8.457957893642702 12.048294308146403 -1.1860110646434479 0.42147091392726765 0.7259170390273434
Ni 7.898214600296205 1.110312905034273 5.570642436997795 -0.2212740231562705 0.3117094915307083 -0.2071884915974819
Ni 7.151698122621498 3.280534585786478 13.354199028874431 1.2807675289907425 0.9769788349690077 -0.9950796583347765
P 8.312517396585331 5.498186152561417 0.05870598590962151 1.444418759427222 -0.5697366630466123 -1.5414334236810743
P 2.582916526760725 8.08795273340773 9.461747345665419 0.6529352473529787 -1.211025070189282 0.9567421962071586
P 0.821632850956803 0.24298917093046582 5.954273349321602 0.8121050449793369 2.371042024761813 -1.728930864607532
P 6.273348310957673 3.403333655771266 1.6461953315578086 -1.0192472567199158 -0.8006991171352404 0.7355365643949784
P 1.27001118088037 4.736612568212827 10.184403885968196 0.14406122411969383 1.1334093792873319 0.6859762369683476
P 1.5126350775563397 4.978771739374171 6.537589379671989 0.25114201436029654 -1.0022360668738997 -0.0928556477801562
P 0.17881987187090043 1.0331498805857633 9.176469082355013 0.792890419724099 0.19135409566838657 -0.343750322016337
P 2.8329574426501263 3.5020227660572547 13.102725828948952 -0.46196373183499145 -0.0639991285597801 -0.14467288956176375
Ni 6.163803212650021 0.8093538734093535 0.13240680527416726 -0.3296048837538904 -0.3947540667577137 -0.24823923889120475
Ni 6.230351906344471 0.19065085402225046 9.916306524933512 -0.4720347429177484 -1.2010129373689187 -1.0804328270903005
Ni 4.942188546862807 6.481387334835173 2.199623934611566 -0.09834392458823708 0.22886649079154775 -0.3555221178402845
Ni 2.3788276697575474 6.1421377091581535 8.26973104790474 -0.49490907641276055 -0.025412526535833653 0.7107791549446405
Ni 4.888865941314614 8.487124066940632 3.7343251090533798 -0.9581416476578467 0.6269629916589331 -1.4574025732813998
Ni 9.058550559724827 7.885183696866091 5.5064880091546975 -1.9503956636183701 -1.4110741225285053 -2.1686008180413294
Ni 4.1487533812314545 6.595895701639033 5.057029657135139 -0.7917853595853783 0.0010166141899724426 -0.039703746347525166
Ni 6.592233664583779 6.654971609058295 0.28358573298613926 -0.1306259245503944 2.3307788063663923 -1.4986538666217029
Ni 1.6464853202789353 3.0043389179339224 9.04149606278908 -0.7478428925661573 -1.4457912142947162 -2.2853368719835094
Ni 2.56748763967514 2.2846649859840165 1.438130283051491 -1.1254865248958295 0.011838387395824773 0.5117827122396477
Ni 6.7270598308870895 5.837593784913409 9.189814140233013 -0.4282100324233142 -2.1406747810550226 -0.09116951832698493
Ni 6.050484543163604 4.500838725622445 6.398656898721442 -0.6220377864431739 -0.24378737376743823 -0.11753181037059757
Ni 6.581228964397433 8.434089591211507 5.117578744435767 0.13517960535934784 0.48764185332738597 2.4024364799126947
Ni 2.0685211491314393 2.3388798645202917 5.977317228689849 1.0864078137268127 -1.0209323577318223 0.4007326529386518
Ni 3.5632364108437984 6.7255169421785315 13.47785505270819 -0.004613587512611409 0.44437661488084756 0.5916902844995681
Ni 8.549629648657836 4.59663724320746 5.644713177871983 -0.3554964068086716 0.6945130707947652 0.31976552906596545
Ni 6.154796832176568 6.015267643665242 4.145013270289745 -0.5857680054778622 -2.40387064125606 2.168948945409368
Ni 2.727594873974107 1.1984248626073728 12.520470302222941 -0.7202791240152756 2.8097393298696964 -0.4766766125651339
Ni 4.178244862389624 8.541022932126962 6.523142922324324 1.8768153191280583 -0.44749921967022926 1.805530198429826
Ni 0.4373568996186954 2.6466489838365415 0.0618791317234882 0.700933115388496 -1.7707611703797568 1.395931353349796
Ni 3.72642012804959 3.446432299997686 7.656840815254579 0.2538779252342208 0.018259203320504038 0.9766399635723503
Ni 2.6805925354248283 6.288712136471211 11.163376066058852 0.3440758236765558 -0.3693199429553253 -0.9079020347760041
Ni 8.29986756807721 9.045779902582902 11.165321407063077 -0.5597463846031199 0.37767088602318183 -0.7213026801837835
Ni 0.34196548158449325 8.051137178139054 9.169000943334972 0.8765695432113096 -1.6891422718556843 1.3575190721201846
P 0.6031495858635982 2.3544109912190945 2.595443667732985 0.5242741598384391 0.6727931626191703 -1.3794793784413597
P 8.357939668384882 0.9665640088501425 13.070539869256981 -0.8303161686707249 0.17720094409645612 -1.1803852338162382
P 4.879664376125019 6.389195087243657 7.093304432257707 0.4865036259578847 -0.1216887699617646 0.4850054441458034
P 1.6999380489712241 8.243886732585356 2.79965893007614 -0.36815703299547564 1.1961090723093981 -0.2867926736843706
P 8.483164605556018 5.634350728346851 3.813307069166136 0.10830694933821994 0.34816079237920683 -0.7615594708213013
P 7.310875905891214 2.789840209403121 6.974042852890252 2.034514959966793 0.6496470635200102 0.31465571864322583
P 3.6815276433367137 2.108078584936409 4.298963820970947 0.30091574334931404 -0.09458394332517257 -0.15494496091173315
P 5.83380162471406 3.552668552641202 9.53649844469302 -0.7048992991250956 0.9733497228568526 0.3280820193514608
