# total energy = -340884.84238220676 ev
CRYSTAL
PRIMVEC
9.21271678915775 0.00000000000000 0.00000000000000
0.00000000000000 9.21271678915775 0.00000000000000
0.00000000000000 0.00000000000000 13.48374225661809
PRIMCOORD
 96 1
Ni 4.947809408128579 3.161601780541109 9.783735896420795 1.8547118023607991 0.6448817809208829 -0.05056151499763551
Ni 5.024293384321845 0.8690374332818507 6.436410348345584 -0.9539738894334022 -1.7051157644658053 -0.9691703946681826
Ni 2.5188857946164 1.9582459040790423 4.91841070704085 1.1347242414440135 -0.15975806602966033 0.543718898826612
Ni 3.8475346217202877 2.9735149511070333 2.9440407057402402 -0.08861924110130544 -0.4789715792468977 -0.5079301712627768
Ni 5.452122747178871 3.034199117715686 0.7963472539322843 -0.5870550997204018 1.2240729045121759 1.23325482812176
Ni 4.906868093962972 5.163092178025498 2.7354740065064025 1.1429831390186962 -1.0929718400975759 -0.8720639420314723
Ni 5.759818280891091 4.108530893167553 12.311290857695576 -1.7342589616886648 0.7199502799209472 -2.1121046827268146
Ni 5.97952315492831 7.856245726637537 12.540959285123904 -0.642188807469752 -0.09552445286157098 0.7074218084366333
Ni 2.2688158054824576 5.693062933806486 11.920963701763377 -0.5072436867187134 -0.5104904757907853 -0.6108789416128769
Ni 0.692895812656759 7.946557990986197 11.873891324461585 0.5445663344285718 -0.31409264705090423 -0.5745963051317587
Ni 7.615922792046173 0.12552142602240382 7.028063929253575 0.5237213726587625 -0.03127952683957194 0.16295009060439677
Ni 8.562492608711217 2.165412270335119 1.6739792308651464 0.4699963723314809 1.049336105685496 0.8662511920044372
Ni 1.698576263873867 1.2934470356037118 2.7566973425647525 -1.0793030843612315 0.4972030146532599 -0.27915521174377084
Ni 1.636206170061725 6.851608154980184 0.5806775499230898 1.1275485496311808 0.6560887053802958 0.34019628611649155
Ni 7.818878946652006 3.9128435722423376 4.270220524699128 -0.9125207644949381 -0.9346497351834935 -0.23365979841513307
Ni 7.8162993859034975 3.8712113043048086 13.305366049359485 1.3680922196503407 0.11359288032750758 0.7208568508956166
Ni 6.94707954082586 0.8221769484701134 9.521396410840914 0.2865417340158291 -0.36534578879892565 -0.19000760894282115
Ni 6.6362701087815115 1.020888804372955 0.7146866520797811 0.9497128001642031 -1.165127022105587 -0.6763867935076996
Ni 1.6784004137337503 6.828539511714953 9.662436658580681 0.8199844477274137 0.9083985147964485 -0.0642896632170054
Ni 0.030645181692276154 5.206953923467095 1.7776425646307277 0.6715070968178951 -1.1100586203765335 -1.1182049036327517
Ni 6.500179853863791 2.4232025162806674 7.466730211069423 1.0026582420129828 0.28515796629442497 0.5007411097135054
Ni 3.440083788776476 4.6117939824845235 0.6261542846475915 -0.05037433868749389 -0.35437592005098323 0.11725181723633356
Ni 6.111596665251923 5.596384682039186 4.727291972455582 -0.27865796039237817 1.0553650854883954 1.1490157183660212
Ni 6.88398164237396 2.1021116921101224 11.603084430724724 -0.7874597356268309 1.0286281837141833 0.47264306592570854
P 0.1213692544890017 5.822768775871649 12.857436380641404 0.13818959583026524 -1.171065756187525 -0.7311965422587278
P 4.151526643215008 6.184017833266289 12.82943064235787 0.6263058176909084 1.1973005215143377 -0.8213972689145402
P 2.5630515597176418 8.79902911663245 1.6800605453297544 -0.8196964841733496 -0.49188134533003036 -1.368062909074302
P 6.44769500534861 7.927156009070632 5.708882090096711 -0.6339203968133728 0.43736547367033707 2.6768089255558416
P 4.957372208331978 1.5430195380218699 12.865472633644702 -0.5780541817733721 -0.5262397682052421 -0.2316304266899301
P 4.096204277876469 6.609829611109303 8.281863116152719 -0.6643694573318494 0.542781217503691 1.7483347230554407
P 4.645623079157815 1.3700047135326485 4.257720710329215 -0.12461931334499828 -0.7164175841773404 -1.3513044586690404
P -0.04223754344173234 5.553398144708691 3.882940014265258 0.9267402505284298 2.4013404186350384 1.2145413108726566
Ni 0.8695072818467574 0.12885550828985054 5.0238262995720255 -2.000427531364781 -0.001076520893630404 -1.2268635798834355
Ni 1.7346071999003496 6.795779090208901 4.998248112207176 0.5863467607994676 -0.17187644655974918 1.0761100313452305
Ni 8.755664857906638 8.339056584305622 9.343842480706016 -0.3709307390858708 -0.5669480445578816 0.11292233662304424
Ni 8.88935059369807 2.7705403710672822 10.298275351295532 -0.6252658064621683 -0.7174951335122353 0.07850657814733575
Ni 3.5852946334835636 4.417138485858711 4.815476099186723 -0.6596016036295608 0.764945870795031 1.3611409851434881
Ni 1.7278911292372696 1.4359493415248663 7.202543575739271 -0.623127677073243 0.051556789031369274 0.9163151985403639
Ni 1.6803535097290492 1.2133793125134125 12.346186786992716 -0.2605054578530675 -0.049819494625288396 -2.2144055350802705
Ni 4.273005529035822 7.078121226850071 1.3861693467088354 -0.6543143870886925 1.2999196764391612 0.3104259968325944
Ni 5.664217917007989 8.376920851006938 8.062185880266377 -0.27538443184742895 -1.0626099399762667 0.7830261253355095
Ni 6.818267332305716 1.011362855037393 4.947899692754778 1.142848670323361 -0.6053040186282608 -0.5545594410855417
Ni 0.14659459479432319 7.686621181989213 7.042140960766862 2.3258541153712655 1.1814604691582877 -1.226912945064132
Ni 4.996599957143219 5.177906226895502 6.993545721351754 -0.17411099231722274 -0.7332732222820983 0.032751997620040364
Ni 1.0566525716076278 0.9483294456042058 9.702118594338 -1.1646361985120974 -0.12678161110363972 -0.5935088257655456
Ni 4.806550818996885 1.0064801150491454 10.7163530532515 -1.2008550716348156 -1.6082062583312497 0.987338580936777
Ni 8.277368231548444 7.429973312946575 4.844937446749773 1.1145876185951387 -0.44760463489984204 -0.19671484575966766
Ni 7.364277428312248 6.516854871559505 7.216417927479461 -1.7530737804023229 0.09947366731730611 -0.471604083138233
Ni 2.525288632902875 5.49790995046489 2.876014924986994 -0.6590565297593682 -0.4783198045955117 -0.41103737729876955
Ni 3.1914694089220492 4.757732631831368 9.450458490256944 0.20161948215013664 0.45753372108809587 -0.10955367726112746
Ni 0.9408487194335323 3.6866990090508085 4.112784404587504 1.6659547779956276 -0.6656753206274665 -0.6532702620948944
Ni 0.4026031012800089 9.366477205002479 0.5002302628940813 1.040576357214995 -1.1515389990085072 1.8726856132304008
Ni 2.2008167416083926 5.803422070257838 7.300030704055567 -0.06057750447274083 -0.3843220727911123 -0.010630997351284916
Ni 5.591852025295379 3.0637074501352273 5.204616657174607 -0.4794305211611873 0.8773352177327406 0.06029262624247036
Ni 4.1271037305568115 7.398014397815952 6.1625291709595205 0.15782176823889593 0.5631872919638689 -0.5135308052790059
Ni 1.0185303488314619 7.3341242057055815 2.902362374217917 -0.8857941471333713 1.512129018290002 -0.9761121160933381
P -0.00023308173906162416 6.176804275887425 8.424952272144157 0.942984223191118 -0.6008089589713846 0.7454345402349808
P 8.639805729430789 1.6107053695193305 8.24475613478543 0.3433636281008796 0.7472649085755001 0.11454136028370596
P 1.735408706275779 3.674096012250955 10.759797462614857 0.29881978005223375 -0.6345042943413007 -0.21464623342710776
P 4.164977209975086 6.695461815242814 4.010874250859213 -1.2508116060586008 -0.8788210582496477 0.09237382304773123
P 6.956504150274873 3.986674285951423 10.491228337827328 1.1069329302633582 0.32345866164683645 0.06883331672362983
P 6.975860068605643 7.8271059028963546 10.531612282616917 -0.8613347285394262 0.41104483349793725 -0.5603372241095833
P 2.4243725313344546 8.869276083444502 6.244644881029796 0.6257625435929287 -0.9948328324312931 0.27138045289435847
P 7.158704862090072 4.288271001036814 2.0713320047502455 -1.094019821746116 -0.23971191814648393 -0.9232209245212617
Ni 3.038307989479381 1.8717937681361854 0.6039977003612989 0.35709666141625596 -0.05137886869260829 0.5068991588951012
Ni 1.0118142781683819 3.677255974167877 8.369534094549245 0.10760298129265984 0.028474710400925154 0.060828187030966215
Ni 7.826276758370049 9.341602869213292 12.017951500820498 0.8146193267607583 -1.8840591451746649 -0.4301447875521818
Ni 2.8672278355515406 2.246852688252303 9.292658467825438 0.18139672734535855 -0.088578360561041 0.2901510486336422
Ni 6.32009887546705 2.293736204856438 2.876473718291551 0.4219517102184281 -0.01979055236336592 0.5088292860382785
Ni 4.300164618630828 7.635011541585133 10.445019192104589 0.05441816973956435 -0.5202827792908588 0.02930106295696244
Ni 7.344875446396685 6.035020561889069 11.764241567216072 0.3041417064857794 -0.7273691980928377 -0.06871118932346876
Ni 7.827538900593425 4.52548925001301 8.396676601253725 0.021035994734692802 -1.42384427770998 1.0475659011589507
Ni 3.707418409491504 8.77534322133097 12.925933852502949 -0.7262803359040331 0.17705182011310155 -0.30816908247761765
Ni 0.11935627583346949 5.095848556942067 10.510752848878445 -0.25419777046748476 1.0291483178837115 0.2826421418511068
Ni 8.997756634154122 2.472269446804075 6.016675278608698 -0.4701323836887129 -0.6887430010802074 0.5424942823908915
Ni 3.549282122890999 3.0249679753228107 11.788202001482928 -0.5116310171531316 0.2873945689344276 0.5731698570978774
Ni 1.2166774651847192 3.523394388236328 13.306768224880637 -0.4876950751628246 0.4068333665197509 -0.520943038582677
Ni 3.1837030885256485 8.934188887137317 8.44542108668357 -0.10284335512048741 -0.5418463643942475 -0.2370937637973465
Ni 5.8776765689470345 8.190952946473422 3.744691219764054 -1.6859882996077353 0.2324529225912255 -0.9971532530343536
Ni 3.1766645727690044 8.777241041024515 3.8357874863259216 0.4583562169893913 -0.38567267328173577 1.0288328435258216
Ni 3.9683501919200563 2.805686886265705 7.147893738738735 -0.9936483252048885 1.3879123397000612 -0.09947418153793837
Ni 5.783946386606601 5.434121098241068 9.512039054225701 -0.7359978203021131 1.6946125509416363 -0.27599995394424076
Ni 8.038546969821388 -0.3432833380529776 2.865038894002093 0.7667808671212407 1.233788846248359 -0.7118705882366063
Ni 4.578453159810056 0.4418630946006062 1.9165519109378886 0.4583706151670945 -0.03770599919120603 0.3457169588244046
Ni 5.962065056291085 5.670712882464056 0.5017466761055257 1.3233239142957145 0.3422405702400299 0.8224228819655771
Ni 8.368104280877215 7.386240545542404 0.42601169380102394 -1.4111998494730922 0.40270751727683546 0.39264319106229795
Ni -0.0340151935558628 4.99932692136307 6.2747271657158805 0.3161284465340104 0.19003357708475013 -0.5234388084213372
Ni 7.40051104411183 6.502031609972542 2.7523692081374347 -0.6219467693912644 -0.9807694123596914 -0.858772881349521
P 8.617732059597127 1.637698630209076 3.829045620055356 0.40115714207058006 0.05481386251608624 0.3998327668322017
P 1.9456613327131065 3.3863828616227125 1.883894671861776 -0.36966832743367944 0.3975146602219864 0.43465861626213526
P 4.822811264429445 1.2806689971816378 8.56895901474471 0.5898370333409132 0.4274381872542961 -0.06210036887517047
P 8.74706939298393 1.754036819966791 13.023811600018306 -0.022219216409516573 1.9564806934701853 -0.9291491170802385
P 6.362403671742582 8.135087030834304 1.4488149007580502 0.2844462849393811 -0.22714693699727978 -0.13062129656470406
P 1.87537751503322 3.5687854446931118 6.32512901892664 0.2898970236413072 0.6763132599572869 -0.33957433626177647
P 6.906792329564339 4.331395729121694 6.424653078962563 1.0664491112166987 0.25478321065730963 -0.34956178649179154
P 2.4942049258833525 8.981975250003428 10.600284796100683 0.5305561361924089 -1.3106838569342008 1.8582352421330255
