# total energy = -340896.9890230024 ev
CRYSTAL
PRIMVEC
9.04477605806292 0.00000000000000 0.00000000000000
0.00000000000000 9.04477605806292 0.00000000000000
0.00000000000000 0.00000000000000 13.23794402095658
PRIMCOORD
 96 1
Ni 6.120111651349005 2.0307150677571073 11.210023291039548 0.5218758348095917 0.016295908946546128 1.1595402720464287
Ni 4.634290082295606 0.381575592377877 6.106028030294102 -0.5536150748944014 -0.576222270770956 -1.3126546075073264
Ni 2.6851317617301076 1.444984404412153 4.769935495770962 0.7643488606409804 -0.5186709547190488 0.35812304579824134
Ni 3.385477829357205 4.2367631225730324 4.990585525133664 -0.12644633925140802 1.0114318744405548 -0.9222757869991729
Ni 5.089061430725698 4.646509574971203 2.6134880892775465 -0.11755906406410722 -1.1232185547972593 -0.4261279530833048
Ni 7.051425124574965 6.042163769869877 2.5825504322110167 0.8547460195783152 0.12826950850307586 -0.4654666027819274
Ni 5.160207640486061 4.768080412167879 11.229748139023961 -2.272889904469408 -0.28240328636742335 0.5432697271043353
Ni 5.635049347352239 7.852204387368485 12.246448822171446 -0.45405090474581805 0.6113818493912245 0.16239730342472034
Ni 1.8299029460815923 6.504261387039595 0.2964054570856742 0.174587417733009 -0.043850935746679316 0.575288446102777
Ni 2.8449800918972716 1.7067311834936651 0.42852973917789966 -0.5330048548432176 -1.5392397584638653 0.046206066242417194
Ni 0.39636651493332115 -0.049364579663121626 4.9577032411794555 0.7264034917454586 0.5741479047404306 -0.414969365363324
Ni 8.694661978991874 2.437820445498524 1.3792614424743563 0.3999554084529951 -0.7149898505918783 0.29275763301855384
Ni 6.842988256544506 0.7915762029878792 4.848820416066664 -0.4043738492356649 -0.5251568195537084 -0.20309272426155345
Ni 0.9181804581519645 7.605010653227784 2.73465462497711 0.11564950574622018 -0.9307329166275907 -0.4074324335563305
Ni 7.621978653419807 3.8919581634470983 3.785668475677086 0.14251007758249004 -0.10271351441084246 0.05936085845682035
Ni 7.600244056158917 3.649395354731939 12.593230064901835 0.01857056391333576 0.3124440557038877 -0.10075536224320712
Ni 7.919859313507249 8.915716309851689 6.999284703089385 -0.43656766035939004 -0.4426043534717732 -0.4216832870483899
Ni 6.877693062907399 0.7779882356699291 0.43610835717411234 -0.08435995160431922 -0.12727294891776145 -1.1105921242825003
Ni 1.8564312747400145 6.475625625521503 9.387767703253452 0.43851809921754153 0.2713280023898682 -1.2141389332279153
Ni 0.047495024418083835 4.874049010382019 1.454559204520508 -0.03779907312564458 -0.7106886521133631 0.03519454562326197
Ni 6.297687742910818 2.0396693962166497 6.984657490983554 0.94144464661814 0.3099721971246275 0.2227459797161067
Ni 3.332448306369026 4.192633659387066 0.482312692025351 -0.1386246264851548 1.2428329587284983 -0.5693111454734195
Ni 5.846905140794522 5.695984004758236 4.791513618403214 0.18805074232676647 0.19872287732863195 0.22122620063747062
Ni 5.294603970365193 3.1546099162967813 9.188987038317345 -0.07226651077489489 -0.7842723390377848 -0.31554403478545007
P 0.1413933687642851 5.456360748315149 12.512372478912168 0.558109106110013 0.24998501793771785 -1.3659923996985184
P 3.9425908207365103 6.07861421804357 12.574035240804015 -0.404709892418845 0.1859234115711185 -0.4264927926218913
P 2.547687342264243 8.42678284163201 1.436793455065727 -1.1117023266275434 0.26448578265705414 -0.8123464715661816
P 6.310504190817052 7.824916297507435 5.691402825601914 0.2844951358994455 -0.9068954478883606 0.1511512981972558
P 4.645324709286153 1.0509487283111794 12.586730488708877 0.8884475255958183 -0.3953737026195836 -0.6294034827796258
P 3.905154491954646 6.168338398163429 8.216752284031276 0.33694769727220675 -0.3815208558968913 0.7892685067007955
P 4.925812264699151 1.083935027191938 3.6363835396593154 -1.3357055757895189 -0.936552094412529 1.5272884996392602
P 0.2502092625330351 5.501982599577706 3.5541366760419852 0.11108476919367319 0.0027438812937243067 0.017126632377957602
Ni 1.469595240511562 1.0253520116035986 2.720053642722323 -0.36338609396939353 0.6188527038469729 -0.4445594203156151
Ni 1.8766011257145392 6.471881088165694 4.765448382287347 0.4305787897658069 0.019210768600495944 0.03221078040458969
Ni 6.069515173164479 5.7160181840894335 9.09131702228667 -0.10160485472769598 0.5039840421308353 0.11362553333765592
Ni 8.472413737670788 2.221378950511808 10.184149395847953 0.6502332750407833 1.4701349332464035 0.7728833804745529
Ni 2.389277131516338 5.019326206055928 7.078791903989144 -0.8954046736399418 0.21430350537570833 -0.1980325361298267
Ni 0.5557779824089742 0.22125512489193702 9.245724015078823 0.4635506167061372 -0.6493958667411526 0.11174502848549141
Ni 1.6112545256967665 1.0338812355807183 11.620254543443204 -0.8023741908448182 0.8494297495717241 -0.9463626527450476
Ni 4.287070167918461 6.774121330392026 1.4513953417981362 -0.5344043062939055 0.5504055668181681 0.09692159031941372
Ni 5.739561736594675 8.067298210698159 7.862610402411619 -0.09438905370554712 -0.585961609545907 0.3907701424093012
Ni 5.282881940381792 2.9609341230602344 4.907279518220765 0.5404168310365726 -0.7014154543415533 -0.6271990189291392
Ni 0.6673145448652297 7.456748681400694 6.935199750125348 0.9755732128707328 -0.7010182189031346 0.12571691728455123
Ni 4.972736563737643 4.620994261249618 7.146570743562146 0.6253701932505166 -0.034055804033128446 -0.6596720518561799
Ni 8.492402693120878 7.071631154654376 9.247180224050526 -1.3818656192853491 0.6915879267281703 -0.5356914005364452
Ni 4.569846051715565 0.29423651974769616 10.405222720737832 0.22283236878232593 -0.2800576689533822 0.0210305954180541
Ni 8.28618179526475 7.00540530315865 4.645062410775721 -1.1917595370914509 0.286061709055617 0.5506037988719034
Ni 7.248465574566006 6.098775024241872 6.9655015594234895 0.2439159289255025 0.2460337465994537 -0.2992949199164394
Ni 2.3042652798080163 5.239693133922888 2.4760382429459487 0.13633377356844908 -0.3306554365055918 0.7821606920114207
Ni 2.2573048016646386 5.163092924100803 11.347380880653683 0.693327020906464 0.12639131764375652 1.0355202828483263
Ni 1.1013281318663823 3.417650098378005 4.0081184155079175 0.2710652356467848 -0.24672125958478153 -1.0859434724958847
Ni 3.7104928181099277 2.6645368062731603 2.8442248530827543 -0.4299157022605112 0.3467911657251898 -0.3948813363641973
Ni 1.0424195043340596 3.3018679179632553 8.4452260448258 -0.5535248291734403 -0.2977478871442936 -1.592734902168528
Ni 3.759217027616549 2.5899988054296363 7.045471852865802 -0.626670914339811 0.6206712451129504 -0.6225229536097086
Ni 3.97275514943608 6.811829002460542 6.120325108067838 0.6191910610229981 0.3247264726156665 -0.5014031687775365
Ni 0.6431839863831962 7.523851876189932 11.352476707577024 0.4434918982830492 -0.5149523682168808 0.8027292601913918
P 0.3168367020930078 5.496031136823788 8.008558720481183 -0.34606020109643626 -0.017379886039344265 0.12311598932659441
P 8.564163947664321 1.6431825857595794 7.947174537696964 -0.381138275746492 1.1710832396890218 -0.045860509977540376
P 1.712836407443353 3.091043229010252 10.472511333439616 0.2341789041433967 -0.04312177089013864 0.7773262467372548
P 3.9748444927433066 6.175411413168845 3.6602653667952505 -0.365084564717739 0.21127860250645547 0.9282001229034079
P 6.873577689726498 4.027620761997277 10.463654688563269 2.0710343950490655 -0.3394601792814154 -1.1453974048871434
P 6.3535844599612945 7.7403114607290915 10.02271280297625 0.2692932313480265 0.19476620667372907 0.22839109381702602
P 2.475591431000594 8.385945676990762 5.824285059941523 -0.6641023197133917 0.9196478624580225 -0.0033483476469426204
P 6.943032526333393 3.9106084920163675 1.5309152053846058 -0.4859181857680599 0.5564751700510159 -0.010096722114369709
Ni 5.147192207502949 2.8096511959750776 0.612573750215894 1.2231210821218674 -0.07887964521603834 -0.13410308446571742
Ni 1.5156602858089854 1.0378699818945143 7.010338324109998 -0.05086901893572529 0.06778507796477358 0.2551423937689412
Ni 6.8921466153097715 0.8119151912777509 9.140615575083373 -1.262957240282199 -0.3546083477767635 -0.49991192894399067
Ni 2.947647346790469 1.654280526183679 9.235358701528687 -1.0662843035040603 -0.3178590560718719 0.3596068294326194
Ni 6.52017114841367 1.9049745887222003 2.5543804766683453 0.56412960127248 0.656324989760818 -0.10086000614187146
Ni 4.162505509792383 6.877765421117173 10.300801683735235 -0.15859001386348817 -0.033785323980561166 0.41085508608463434
Ni 8.214755197441512 6.933815899363419 0.46824716052289206 0.6215996704644908 1.0360429881210156 -0.10437778948714281
Ni 7.570830443885753 3.8758675065485875 8.27072336822414 0.7879420745798882 -0.2351386969535047 -0.33744649128549625
Ni 3.034549556729139 8.26937660104472 12.370964638505928 0.9724953452763573 0.02105296401555729 0.522982437610209
Ni 9.186326969630525 4.920783369119852 10.227358100814545 -1.050789293192255 -1.231921196912001 0.3323554499158341
Ni 8.556439708770938 2.417768176614883 5.688384583776712 0.25752683484071776 -0.17173092212082036 0.8240992412267356
Ni 3.675932728166583 2.7866955539242504 11.59680957899878 -0.3350887896865971 0.2712349284554297 -0.7017005896821399
Ni 1.0628516538190154 3.381018754679877 12.600312124683473 -0.03907614006585529 -0.34584140021741083 0.38933006752866495
Ni 3.300746365711757 8.289844929634562 8.193400480781936 -0.7797963055443021 0.4833321702084386 -0.3687758975263971
Ni 5.708945169084018 7.984882209765481 3.3991336324968175 -0.3659754519631246 -0.23145199213053685 0.7565910710724325
Ni 3.244306962087975 8.332825706240367 3.471240397491933 0.3045952490834303 -0.10238287054430109 1.077012745665158
Ni 3.144850602753502 4.181508584634301 9.210789471399899 1.0477358510779118 0.7138739918198802 0.30493026382534577
Ni 7.270209216603117 6.18546015955122 11.354780412080705 0.8052188593824648 -0.39802271020665647 -0.0508448505660092
Ni 0.5887724215883325 0.009000456818273357 0.5067806206604561 -0.06739118496046458 0.006000954778441278 -0.33102181870607505
Ni 4.61488903729993 0.30870544826964563 1.5011434199730607 0.15127676803152657 -0.25510048478741226 -0.09946595400782224
Ni 6.016322844204308 5.583693107965085 0.12498614469801249 0.05347560332063694 -0.3578677352543256 1.1295090157916612
Ni 7.821388834780948 9.038562460495633 11.163042009910859 -0.025572963373097893 -0.6398727577420658 0.6468561310384343
Ni 9.194648163754545 4.873244025298282 5.8950685741753945 -0.34212255660492685 -0.4783540002675568 -0.22553331265325674
Ni 7.847455879852061 8.629394873775654 2.458339424835209 0.5331004998808174 0.5781572830101398 0.26065149651262853
P 8.481096722843677 1.4869069422000105 3.58361721965919 0.6979966584679914 0.48579605836789874 -0.27517257294693903
P 1.881801872042051 3.0758932288388037 1.7001230699860472 -1.4350018369886963 1.0798185905450695 0.5872895843287111
P 4.726899546030206 1.0991121616920512 8.174509561165168 1.1488190289741826 -0.6416216221123724 1.179397158871356
P 8.534533260761835 1.6130273018362316 12.3916952656062 0.41332154534725596 -0.3466487266100546 0.81649803184071
P 6.366011982489994 7.719336624670831 1.121194078359856 -0.7516064733736475 -0.06243204118297635 0.774797309667814
P 1.880029095902586 3.0182780043061928 6.054201462543417 -1.0484940694001748 0.6540719320605832 0.10228079774879804
P 6.870601958349539 4.02234765745999 6.043241002717888 0.36960404985464734 0.45604273836486625 -0.40774250859758165
P 2.3966124450321855 8.474910095907994 10.241799895007828 -0.22719604506766036 0.2565068782166357 0.08415503468236474
