# total energy = -340890.116218745 ev
CRYSTAL
PRIMVEC
9.08105002941033 0.00000000000000 0.00000000000000

0.00000000000000 9.08105002941033 0.00000000000000

0.00000000000000 0.00000000000000 13.29103464464841

PRIMCOORD
 96 1
Ni 6.426595327889901 2.0017267113443866 11.110693406291064 0.6669235912122707 1.0895129350146977 1.0646164288833342
Ni 4.869767405008847 0.675977904255188 5.661741189908989 -1.5393325752879876 -1.9708217926832055 1.9989077522861447
Ni 2.9638639304350582 1.721757948111112 4.566453987229878 -0.8887637712846564 0.24425171499836645 0.7926250818778543
Ni 3.3801392501435665 4.4940571344525635 4.838042757770592 0.400699228597555 -0.007687084231612568 -0.7927001580901639
Ni 3.55641150648872 2.963972903031841 2.5164714857153556 0.4054393143857018 -0.39429538195374025 0.6112103568103667
Ni 5.0993545043297575 4.663209847807938 2.392466119206901 0.17281104255887658 0.16752331179737598 0.1712185012607761
Ni 5.22267515968843 4.594675165481584 11.647345305035175 0.6676206172792953 0.40149909879103113 -0.6213399890452008
Ni 5.638505507960077 7.860402270053433 12.416896161937405 0.21222991067613128 1.1110001583541962 -0.6075493630190117
Ni 1.9473403045002708 6.594458532183351 0.05161032994108557 0.8400542218940952 -0.4561311843136145 -0.01254286966201711
Ni 2.9974910575921396 1.6791405817194884 0.23583486153642996 -0.17368958850908797 -0.5875155842965882 0.3749362607008382
Ni 8.329102489863974 8.861524435642984 6.928030915773855 -1.0807837826718159 -0.38561148102649717 -0.8588793250203982
Ni 8.843898118113442 2.627129525327921 1.1960559791336793 0.46432580430926484 -0.3171219207955313 -0.3447078008335999
Ni 6.869805041103109 0.9345943952539376 4.74061944003724 1.062190593050661 -0.5952936855801102 -1.4277220154978314
Ni 0.8659498322258272 7.352871481589454 2.124478892989844 -0.4014913854815472 0.12370888571558694 0.8479976451108879
Ni 7.912936142752248 3.740793140244426 3.8846633030413265 -1.529619975985914 0.8263566698023446 -0.5911588374761303
Ni 7.845591077940768 4.065395262909797 12.719174340046944 -0.7483200893128918 0.011447579715309316 -1.2128896342018465
Ni 8.564310758968904 7.253070745036301 9.088661467746238 -0.32387466613833255 1.2552254188555803 0.49389117667120747
Ni 6.979767472306213 0.6658843174782245 0.04209883845193437 1.0511227652722737 0.10577621249656623 0.40210716468867524
Ni 2.1612081067353293 6.704157612944232 8.992952652202263 -1.4396781594184431 -0.18782885612394748 -0.3950242896999648
Ni 9.368101713885117 5.166917514334803 1.1566187963581536 0.21019565385492187 -1.0091973286830813 0.20216944111633567
Ni 6.398198885378371 2.2845923294421246 6.916800381570463 0.6961140967332979 -0.8551334848247208 0.16168407940777962
Ni 3.5529243833916855 4.080996506349134 0.3207099847502955 0.25511051208974134 2.0219196398002857 -0.6926924726462587
Ni 6.064443064583284 5.701709614093829 4.422830828985685 -0.36221649914132453 0.17144964343497568 1.2369854988087858
Ni 5.358582149975462 3.0135645156175337 9.034141569471062 -0.2490825607281065 0.1925352604606813 1.1412772120711827
P 0.21025899307161666 5.858375884067895 12.26984399931446 1.2780059070852055 -2.9578233019955382 -1.3492997695341857
P 4.11928221201866 6.363509275402662 12.559123562837813 -1.2452227991169136 -1.5815192359583665 -0.5873057822786273
P 2.4801618164674832 8.627387730406411 1.4525774719592885 0.444531395291157 0.2746760929264947 -1.080567552895952
P 6.515716749958385 7.972871070982531 5.7338719679291605 0.272237401578015 -0.21746750492598674 -0.7038212355695685
P 4.960405362382552 0.9926767893389205 12.491605049976453 -0.8498017881991623 -0.1872282464254711 -1.1684969670190846
P 4.275585240003451 6.3565441102583256 8.309222255790983 -0.6703094769653681 0.48212478016389876 -1.398262572586134
P 4.850933307864969 1.403812234899195 3.5900277363861233 1.1620866926173663 -0.7248392325821323 -1.7084476570525158
P 0.295606330871539 5.689032468668151 3.5402799297450422 0.38527749472584616 -0.6918388663967118 0.6137850595160784
Ni 0.9575149647771547 0.02751194826764606 4.459421102670272 0.1218836595813901 -0.28665331989302895 0.16430711885292348
Ni 1.747638939846916 6.496337789830593 4.982994473590556 0.36173236041605444 0.7398958698049387 -1.3625147255625631
Ni 6.172189719651815 5.989143000206693 9.305305346884326 -0.11087188185191874 -0.9129061728588149 -0.7664545941300737
Ni 8.58843910810646 2.448432628704361 9.960314199203674 0.8383104997301112 -0.5464589234655944 0.5786326799846616
Ni 2.4075406617617903 5.203514144754203 6.953111867028281 -0.5653421335233425 0.8295669492095261 0.06616039787715702
Ni 0.6797238372695806 0.5565039815629321 8.981774788087314 -0.11729938264481733 -1.2118210837280163 0.517847944597121
Ni 1.6215031590713667 1.3553920777289123 11.642772996495184 -0.6847829879911949 -0.07951213659371467 -1.8699962393236955
Ni 4.0649684535723996 7.079758910903734 1.489552782152507 1.2375501130630042 0.974915524682076 -0.3222877812671869
Ni 5.825983779674346 7.9728075036344075 7.810781598108598 -0.14874885940335028 0.7004944851891807 0.25062188019076836
Ni 5.2716220177431605 3.0422424706707507 4.940703116884307 0.1910640752317935 0.6770287979670727 -1.2951839615263887
Ni 1.3303465425684395 7.837390890032896 6.996825316122541 -0.5418707898742797 -1.0129966478245134 0.4417247790802973
Ni 5.188021873911648 4.634313947561156 7.235519800219533 0.7765454027071722 1.6451098162258182 -0.6826906242385403
Ni 0.9642621847279276 7.415630616286345 11.07653503772467 -0.08645848600456078 0.9474975376804393 0.11514402686471137
Ni 4.5337504028305275 0.6999300810279446 10.247613185780505 0.39335152998323225 -0.8344021658146404 0.17577141073878116
Ni 8.247146016033929 7.443155278023616 4.43913857809416 -0.06326302172470395 0.13528116393421863 0.13815462882727175
Ni 7.472559717055382 6.307733467949572 7.005916355009107 -0.35065219134249287 0.264601482299312 -1.4682333453483167
Ni 2.539987772100983 5.524592820123613 2.2300760635868433 -1.6128129038653256 -1.64857643461818 0.7652484896371143
Ni 2.2164027270055806 5.191745104301711 10.935650724079606 1.3180912051418654 2.750038314464638 1.2007555699424741
Ni 1.0595223964151492 3.151560147342894 3.724107619467104 1.4940626477065948 1.0134265362730805 -0.06769328958191569
Ni 1.704649250416286 1.3745076874144797 2.235910638039564 -0.9095076887002271 -0.775745018293064 0.9359856803860978
Ni 1.1299913423343906 3.346003584201501 8.00374119144102 -1.1389187391413353 0.11325786558559203 0.34984949293553935
Ni 3.8186449795956703 2.895901354241811 6.917398822747791 -0.87189142100935 -1.102375392799663 -0.06385308990021907
Ni 4.19452779009686 6.822374718353599 5.962863350387661 0.2524869584239652 0.5085675477364596 0.10872706759477405
Ni 0.6154409024276831 0.08476978303697599 0.20294329940762942 0.3512638567845628 0.03931088178448069 -0.11041988191616467
P 0.19875965979616106 5.60861069224279 8.01194137934889 2.3623612091583635 0.3093559036968673 -1.6928135500596846
P 8.396538365172773 1.7646931512433508 7.731593936341796 0.6029717709506582 0.5922834379988767 0.7028532152293443
P 1.9282337758644355 3.3024962749361553 10.239665451055181 -0.9256555021046833 -0.5220910361441912 0.18794069911146344
P 3.913705408188791 6.244020823030835 3.6545159029519607 1.3800949005381717 0.6343456572762495 0.7271095166735477
P 7.064439180006085 4.046851759357336 10.070922293042713 -2.378726795000581 -0.09176575715008711 1.9052015835802352
P 6.60719016390742 7.846989559599474 10.289958120680174 -0.5914362595072331 1.8691300346686583 -0.9392921190515114
P 2.8369562604323013 8.663666524085198 5.787487393651041 -0.5330449640525335 0.31923433915284377 -0.49525206157447604
P 7.029958434174209 4.074303772696752 1.4714106609981952 0.027034121299656665 -0.47410036719752535 0.15846274425700452
Ni 5.39785769006576 2.6292635720149082 0.45688304979447064 0.5415419457799512 1.8540158047350395 -0.04173363229336038
Ni 1.582618104119538 1.1963193295759031 6.729316661226353 0.2715288055467646 0.33778047758614727 0.12345563205420029
Ni 7.133881967305626 0.7093698322242141 9.145626892714201 -1.4239350376515736 -1.0588841543852472 -0.4094944582916819
Ni 2.747426191125884 1.839557325232813 9.055846186435184 0.8712026224724415 -0.7495387922113413 -0.5091840982745359
Ni 6.86234949927325 2.03272941512896 2.3241230470298886 -1.4077964802184981 -0.38320621401911426 0.9259187830683988
Ni 4.0594471753354275 7.2764181238969154 10.300258755391022 1.2569323742443579 -0.4810662569923973 0.9899130265321725
Ni 8.228602512481467 7.138286276425578 0.09352300687351679 -0.6436389096527173 2.4140185283233393 1.758912498571287
Ni 7.623123521609637 4.174949046874968 7.97540468385772 0.3958917799065827 -1.325778289373478 -0.20280090405274748
Ni 3.0491349874172333 8.394976424618893 12.33637903448986 0.6593064409866451 1.199759524577792 -0.13338548957340254
Ni -0.031258789387011904 4.728738702673047 9.950651962288973 1.2046104249121898 1.6837195581782163 1.396675430604672
Ni 8.613303022272296 2.1395588841745727 5.637844407539596 1.014079339365731 0.6583260793512468 0.24161376315488708
Ni 3.78756054636351 2.794965486472176 11.558122175209695 -0.35960502966040647 -0.3961728014821112 -1.17946529310513
Ni 1.3029126913284876 3.715565984089316 12.379601198793626 -1.169106061357993 -0.7998915336322805 1.5301951317630935
Ni 3.4336902004123506 8.640010389533698 8.128357712596427 0.20359486070895258 -0.3213012489842015 -0.938767356896293
Ni 5.8048703390477705 8.037183065183571 3.458220840053027 0.24233624314320848 0.04783871674983374 -0.1537835936137803
Ni 3.3971843804902693 8.529675635291587 3.6547556426648815 -0.1339778717417628 -0.5591151787770242 -0.6856268240487289
Ni 3.36644502714792 4.530481224927057 8.934618713039706 0.65636072809476 -1.4816498758645384 0.9402886786368257
Ni 7.294743682255811 6.222126412127319 11.389033937307417 0.6484209044223929 -1.4591990030601902 0.21255541233635006
Ni 8.207761503346848 -0.12709201531231415 2.2191506526544416 -0.4055961516785402 -0.43809438141656165 -0.1009924179546777
Ni 4.887057723698311 0.5096720999907518 1.3986151501376511 -0.28336436472911203 -1.2165262025131693 1.3800193101052296
Ni 6.017203443878143 5.800384300480231 0.3865321575217435 0.11322341280323081 -0.3896252301715806 0.034183587860244356
Ni 8.221655509436594 -0.018449968740221978 11.226830043206862 0.25878693250006396 0.049026823520663954 0.19587820879098522
Ni 9.360292011115718 4.572735349329406 5.720155042309185 -1.1322950631772306 1.1130133321294833 0.461948819436656
Ni 7.517311130133993 5.923632307441047 2.504216609102209 -0.9179216237955352 1.0497783354292372 -0.2058314633489552
P 8.743779544819676 1.5042940501822368 3.442989195337776 -0.46209537231684933 0.7074704022863816 0.2808657666769743
P 1.8011535659167728 3.4819014934388006 1.4124119889952675 -0.3148547220279094 -0.0148756315602518 -0.2339351635637068
P 4.780991062830174 1.215997964344846 7.979059806374794 0.640177176356362 -0.3050354219446424 0.41848509182606636
P 8.55749997167001 1.9635136540727154 12.265537765531612 0.417574664196655 -0.8450437046888866 0.38054949312255754
P 6.478529851306414 7.8209451089684965 1.272528407030654 -0.30847607219507517 0.004368047160708606 0.8947107328967107
P 1.9413649737767065 3.265772509820509 5.92711034948835 -0.2544286555313683 -0.8265872977559119 -0.7612136574461084
P 6.902914548425473 4.174685696432744 5.867140913269087 0.7150358733384653 0.8057065976521607 -0.7220197608554662
P 2.4140880986184623 8.79865632834931 10.04961633416182 -0.11582356943023922 0.21117652971095247 1.1982482301395878
