# total energy = -340891.713075541 ev
CRYSTAL
PRIMVEC
9.10047838247702 0.00000000000000 0.00000000000000
0.00000000000000 9.10047838247702 0.00000000000000
0.00000000000000 0.00000000000000 13.31947000321006
PRIMCOORD
 96 1
Ni 6.337536806729056 2.149587618208955 11.723544875223462 0.11378751283681693 -1.2882538100654588 -0.24491197429018466
Ni 4.70672196387721 0.276983982901922 6.023411041035011 -0.23074828119529292 -0.7942860145200449 -0.7458616004700703
Ni 2.789305752473108 1.5559634074108797 4.859248713229333 -0.7425829297187985 0.0569278235352955 0.9750849603804045
Ni 3.4806873030288545 4.511107179098663 5.1039806004227115 -0.985935015721031 0.2648583355051245 -0.0628156497746402
Ni 5.155102538245157 4.658680538017897 2.9253151333966168 0.8200908913982909 -0.7074575467705752 -0.7585980742001321
Ni 7.384392146921221 5.979796997952843 2.982069357346043 0.17603006371680652 1.2778760663755604 -1.8487776962645515
Ni 4.967095753470093 4.341046537872486 11.701141317318468 0.9466621862633373 0.9111778773137985 -0.23705134059518526
Ni 5.400642547926943 7.720008692529411 12.529799035401176 0.1409573883833895 0.6307371139893847 0.9963968344843033
Ni 1.7525974457784101 6.344626079459574 0.46359839447060713 0.8614260027016519 1.0380240231067865 -0.3872117356340815
Ni 2.852162757286573 1.6472048045818364 0.4068805724350725 -0.3347632880263783 -0.9374532660705597 -0.004162358907805735
Ni 0.6700591294933539 0.1206596038829888 4.6151301982850415 -0.05245179004181289 0.006031808016376709 -0.0749024057358452
Ni 8.781424798278483 2.4160041255079534 1.2565858771302851 -0.012806407736048912 -0.1298625640218086 -0.007084931871239411
Ni 7.13758717073168 0.6803080883497203 4.645591319830086 -0.5537228041168593 0.5579941777987035 0.9062143626609361
Ni 0.8103539257298292 7.389897936397427 2.5461500681512654 0.19263373371175854 0.22122568641683837 -0.11322778367860499
Ni 7.81707439592313 3.80126985819954 3.703398762460955 0.22563692811065655 -1.0460479218525276 0.46570005894897215
Ni 7.637558357563436 3.9364392649599846 12.72404965845661 0.6041827605396239 -0.38009209387016474 0.13590748466430788
Ni 8.012652778787785 8.831604836578967 7.135733403266717 0.2065904530021668 -0.3095075987833831 -0.39006745991532177
Ni 6.97224057735455 0.6002994117580688 0.5109172423391595 0.6076408942915535 0.10976399349972064 -1.7244872270138816
Ni 2.1019466134024563 6.447279476635755 9.195136189855436 -1.3340199605569798 0.9933223093240376 0.8679339790234988
Ni 9.1750113917601 4.834556384988365 1.2577398178006698 0.10593047868624338 0.44721794098438467 0.8109246515179904
Ni 6.232644691848501 1.9085068429789718 6.8689574270680325 2.155058560580521 0.7110187817592722 0.689731847356038
Ni 3.385478097243641 4.198260030630085 0.3694675953844521 -0.05919296542038839 0.42088598795807514 -0.3440413708941946
Ni 6.028530060176109 5.82542558161423 4.931254429051771 0.6836316479955711 0.534857077560608 0.11320850040489536
Ni 5.130667753544976 2.8728754462912702 9.54763594312686 0.7769449521384362 -0.6458749980720877 -0.8392502379355611
P 0.1211592201511601 5.5173015814731725 12.308362553003152 1.0002313777390452 0.37006530576178204 1.806638086782024
P 3.9863371884278034 6.007353246769286 12.688353941693856 -0.8501206049911617 1.1798180484588583 0.15427158899379237
P 2.3307417426938004 8.554731879514415 1.2880016388671551 1.0377969946976449 -0.8393327703470385 0.538606260190395
P 6.687140787750348 7.918098807452632 5.691129820787199 -1.2766028560900917 -0.6009565402928424 0.12744984081525793
P 4.671366605009351 1.1178754741959704 12.763901563738012 1.0038237230759939 -0.6877127600434801 -0.08161992696533685
P 4.102322786567026 6.098540041069405 8.138809071668506 0.06781747386460578 0.7355301366370752 0.06298662813486572
P 4.702344633731666 1.2677603546473624 3.843333179749896 1.5985563939463114 -1.5376140499349844 -0.3471320940043764
P 0.3963149169278432 5.493003303950086 3.5872266045130345 -0.05710111588836618 0.1961494601745009 -1.1058942045861986
Ni 1.621787168206564 1.1113231296953632 2.55681855906524 -0.8127156819801424 1.0022514934928675 -0.25933534880436626
Ni 1.8053438190082989 6.637370270981151 4.773737887352866 1.9326002873081616 -0.21297810169606549 0.009921115768453882
Ni 6.139810710944757 5.591761696339795 9.299281155453356 -0.7291481443701313 -0.10623643996243638 0.01013117489673094
Ni 8.673684233635857 2.3912599245396873 10.071477684993466 -0.6931113053512321 -0.9081005239400555 0.6166060739046413
Ni 2.0788860009517074 5.394554327828462 7.157949491315165 0.8457065350838661 -1.4233681094045099 -1.4977372683447046
Ni 0.35493959155005 -0.05484767370931962 9.338213912408976 0.7800724420238243 0.48315219298714857 -0.24549715736969338
Ni 1.4742957135935884 1.3108602206958015 11.473205273194981 -0.10466318193804555 -0.8630725371661394 -0.7490579959201809
Ni 4.0913840114424005 7.086042060660236 1.6470591969262673 0.22893693901816703 0.2832206400623961 -0.3750475894677219
Ni 5.7868122514530125 7.805953611229043 7.901269292612391 -0.750113947988521 0.023001860211811997 -0.05823960036818357
Ni 5.1332249879959075 2.985239053998212 5.104234503772109 1.3579579594298161 -0.27484372885261055 -1.1045657155827622
Ni 1.0030456368228275 7.551176615897097 6.980800487406315 -1.4118143431286396 -0.48780126172338567 1.2267216549889324
Ni 5.352200701014814 4.597179504496919 7.08771654869928 -0.42061910744993364 -0.5946411395977759 0.17028184837911964
Ni 7.886911467725436 7.34475956317102 9.31530436790088 0.3189237498909604 -0.5851792228539278 -0.3414211596625281
Ni 4.373990269944983 0.24624620681129533 10.691445050827525 0.4280601371090112 0.5365802308993017 -0.9865965605644297
Ni 8.621674999162288 7.152657563083077 4.925593021393677 -1.2250064720700387 0.4513587026256356 -0.3309724535253784
Ni 7.428793381391309 6.177978117660795 6.952549872082377 0.5085410653738983 0.04002050625699559 0.2822423353095268
Ni 2.7317179246955483 5.204272423435132 2.45515165375554 -1.2341043206062488 -0.16501005845721906 1.36065273265316
Ni 2.1500608430895545 5.4494666149349404 11.567107650271462 0.7889908275593767 -0.35892214466076894 -1.1598647452653832
Ni 1.191207129731934 3.4511380494268105 3.9971858688155453 0.8418449952459307 -0.6706768876071159 -1.2402274027848512
Ni 3.6215354083564923 2.8289474367017817 2.9610381515947886 -0.6768447069807246 0.6682759914751072 -1.1573720607505162
Ni 0.964323100919933 3.458837054215024 8.331901203814319 0.2992815501800007 -0.15535068099058408 -1.2217190595680185
Ni 3.7228419347186597 2.456464852799203 7.047758167819743 -0.7709648232956012 1.6381632097046561 -0.4065011799913128
Ni 4.0718634851176745 6.771456720803301 6.0295110917555075 -0.47909319242642645 1.123668497850484 0.7987391651953921
Ni 0.6121182031510392 7.568085304900052 11.520383063647202 -0.46731059796920166 -0.4537313166228702 -0.32047489642816424
P 0.14517538284158046 5.731344835159677 8.185054063077237 -0.06637739898396955 -0.001741665281455065 -0.018077426327001125
P 8.512669468011907 1.6326076371110392 7.939057209376102 -0.49773934677270415 0.8230525451297761 0.9646833054311064
P 1.8500271683110514 3.339429676169929 10.433580263149667 -0.4999983180102099 -0.325295200634943 -0.49424933134157456
P 4.171841341622774 6.295183179915408 3.9259673443810277 -1.2181609099031148 0.7379225481286517 -1.6585538575458663
P 6.817678050968002 3.8894807960389657 10.56990543067619 0.9700826220698067 1.1110106998771576 -1.0791850707261286
P 6.1169594094988895 7.825656147123231 10.500963845955633 1.5992305371952005 0.3814018138205238 -0.9814237581142388
P 2.4286719915424606 8.513342903418913 5.855731995025233 1.7567103487136455 0.8586425264192439 -0.7942225082719612
P 7.081974146782775 4.129897236340415 1.6246155969159928 -0.8616710288329225 -0.9184355873174762 0.10407979863074979
Ni 5.180720385146837 2.8754417812206747 0.7822352673437508 0.7963742645076414 -0.03608517575833141 -0.4508090007697526
Ni 1.311333445576401 0.9855272157621761 6.960782164909112 0.38621080517339296 0.40589902763093966 0.19340789287362173
Ni 6.806775677757269 0.6693765936078738 9.150529284571858 -0.42729651947010927 0.1836112184981741 0.7212967666465127
Ni 2.373668699651251 1.543923474391014 9.016788652931686 0.95942385680438 0.022530834112664423 1.4461005180050193
Ni 6.524042012556064 2.0279415224594857 2.5230940059397535 0.3124211728857523 0.36886691457830667 0.9674654961619339
Ni 4.24725700672907 6.867384864387887 10.309056596107014 -0.8343988233805307 -0.24593347357616355 0.5402995887324179
Ni 8.405848051695061 7.18211581190039 0.32773371115482014 -0.7002155204961812 0.02082387872388672 0.25792844115451063
Ni 7.6172460896115535 4.0111723941808 8.098210927152312 0.2767512302879685 -0.8932521460733133 0.13176955123653436
Ni 2.850652077860044 8.25421587937684 12.284147999882016 0.8431611429541931 -0.20670666686505693 2.209337376528743
Ni 0.02872293015668994 4.7204545858930675 10.224025365446078 -0.20861931050673746 0.8467272630388967 0.0899670133784515
Ni 8.678862405887033 2.1229687186752377 5.767517416994418 -0.04095124560138109 1.613735415679595 -0.29305330988210176
Ni 3.6264132648180554 2.5596733791622412 11.355940147782446 -0.5194697964712601 -0.49686414325660233 0.5089038480299557
Ni 1.3036071393527682 3.3820563173377685 12.729470813483013 -1.3712374501475417 0.34017468884993673 -0.4803987986117275
Ni 3.284098767053689 8.50983011872831 8.08278743623616 0.1701977733057456 -0.30404349034501826 0.083895610373391
Ni 5.801582328014798 8.240838176021434 3.527368207356445 -1.6401735552664658 -1.465133366266754 0.5393205126486001
Ni 3.1751842406880395 8.689946788667225 3.5277012848685594 0.46241238933663587 -1.558153821759549 0.028006255404938864
Ni 3.5053678006478086 4.508504442255367 9.470569451225549 -0.2476697395409799 -0.48678747574689063 0.030820842035598532
Ni 7.3949851038638705 6.050516816167037 11.447271639690287 -1.4148580150509695 0.6507680644983308 -0.14095327461833146
Ni 0.6522877151311511 9.242172922891326 13.521925918152018 -0.8293913428636103 -0.16895438781694772 0.03904245861444244
Ni 4.979035581226755 0.46108302222065173 1.6508149643921015 -1.921711665420116 -0.46597465276659744 -0.19042952697158816
Ni 5.871692414171296 5.535802854208915 0.45726446145335337 0.054412513312609524 0.4094157825349465 0.2814982580546507
Ni 7.841254367226066 -0.07494062013000137 11.445940239689676 -0.3409858718973224 -0.05174833621688508 -0.20942560845811675
Ni 9.204860961151757 4.862048930455496 5.615928016925022 0.049687854143430556 -0.4761212542822962 1.7921332082976298
Ni 7.851173888761707 8.654809841282718 2.4738522269698424 1.2187237243851206 -0.5755702390092539 0.3414777239320764
P 8.561448032627538 1.4198566513677093 3.2018404521834958 0.764853825301857 0.9104433131406192 0.9138947620243294
P 1.8163007950898702 3.210767111517726 1.5683145767945246 0.08096583832110572 0.3780478097466264 1.1081295216746205
P 4.781418691184133 1.1667723450317524 8.233590554965485 -0.1504589001159215 -2.283200799477113 1.413568863925901
P 8.603164625948072 1.7317664505535628 12.40815202960386 -0.7250204953550029 0.2269710735410478 0.2975735663499585
P 6.402896443122614 7.560968730734116 1.3219318628061332 -0.5843646973724322 0.23888042338412407 0.027921409000616425
P 1.8412816084984354 3.1807537335135554 6.106057946336004 -0.4998772190513132 0.45248561714122715 0.369231497006577
P 7.138943142024167 4.131107599977333 5.807382062945683 -0.7783996823070917 -1.0648288020044565 0.802090083945496
P 2.24916505366124 8.329895458358855 10.303649091798318 0.2866376361637451 1.294608548638893 -1.7676853596679105
