# total energy = -340862.0016442862 ev
CRYSTAL
PRIMVEC
9.32726451538678 0.00000000000000 0.00000000000000
0.00000000000000 9.32726451538678 0.00000000000000
0.00000000000000 0.00000000000000 13.65139443261380
PRIMCOORD
 96 1
Ni 0.48574806553086836 1.9278802285937093 6.781343631192067 -0.48541090711433826 0.8556849864528167 -1.4711646600624986
Ni 7.58444626630083 3.1032740869570477 6.357809350901835 -0.9541767494728278 -1.3577502142943843 0.5391505627296392
Ni 5.133064004691728 7.255343074679922 7.6449167858540745 0.23094831302124094 0.45938954334991206 0.9717242714382878
Ni 9.358603852872541 9.169120479735177 11.24585451841499 -0.1527171000224789 0.5992953505403357 0.5708088130648685
Ni 4.795799456856437 8.347407154278347 0.6448889153527927 -0.9007361131551842 0.6507156139938407 -1.1428885224223606
Ni 7.6375463816476685 4.84898351758148 4.3064687891290605 1.845733510121589 1.1161079118944068 1.0453390687109612
Ni 1.0263348484638444 5.6402526525426 8.27597989741649 0.08145049126700811 1.1410954350776799 2.5597360570995336
Ni 8.132674876829743 0.41690352813845466 2.3235353160556085 -1.8793375713292795 0.6639593663776242 -0.08046293054275819
Ni 6.72268166817593 2.864822576533385 3.366147173353418 -0.04969736722512731 -1.090902873383689 -0.6617212210757248
Ni 2.2754140943627563 1.4898159360626022 12.35695554433748 -2.0475766782467573 -2.5518173164730893 1.5484126832123848
Ni 7.4905673516748115 5.218595017818464 7.540607191622862 -0.9366883628800772 1.8811653685666376 0.9656217580849756
Ni 3.3874291921812563 1.9161465301734877 10.481144768391536 0.4148608648099178 -0.5516129568627081 -1.651247039471808
Ni 8.800413724129958 1.0001625449923484 4.492605539855315 0.45354773985715446 1.4246454334550367 1.128716858907669
Ni 0.7507664227035914 9.602605085521985 1.0318164816606366 -0.32113566994061465 -0.4630777908347767 -0.4032039972972798
Ni 4.4244717399983715 6.480835033567084 2.182762647711381 -0.7213728713000866 0.8048360221217494 -1.1589010958005332
Ni 2.2867560476846878 6.27608292886064 10.38267683975697 -2.506413948637625 3.2233745498026294 0.7627928290077702
Ni 2.9448878128125444 4.269974935044037 10.106878030569865 0.4840225114072437 -2.307746607137277 0.01219988450030157
Ni 6.881655559967869 0.30603593441657595 6.026913459093037 0.2169489134183554 -0.9136001136020458 -1.9493394544397138
Ni 0.9264799556360482 1.8361372574797978 10.083356535596803 0.7160823123251087 1.81258093462902 1.2592682214663862
Ni 7.209257062045332 8.637662290318792 8.185361794370527 -0.7625781418938028 -0.4945892311794966 -0.4175402114142938
Ni 3.662611469201766 1.8337681323615653 3.5391651269190674 2.6288197992710725 1.4854659071765193 -0.26918010280892996
Ni 5.880243161566689 5.63597143825414 11.27378501119667 1.1531438816017816 1.1912394029219227 0.33180446250837053
Ni 7.475485165390632 4.960323070874156 1.7223007955487326 -0.20276722260133465 -2.3230467278294573 1.9172243190727236
Ni 7.642685704246669 3.1693111178117133 10.587161251979584 0.3492817933575275 -1.3339759946929217 -0.19339658001971208
P 2.5824489787799725 9.061866268181815 0.23760272937736718 4.212308500250985 2.700925101877755 -3.1226757518289707
P 6.537274309513635 6.282416141283001 5.876187667072959 1.0482696120941948 1.7096722734882364 -0.6887748827594073
P 4.3480721185675 0.6136948128117836 7.506669940667396 0.5320388913855224 0.3784062215273096 0.9502180219353958
P 6.022614523002512 0.3675063366968853 3.3143948476899845 0.4301447875521818 1.0238117361621464 0.0484444686546327
P 1.2111732440071938 4.271812406100304 2.3562171172436965 0.05628350508307726 -0.4583508176727526 -0.3686234311089329
P 8.994831220052934 -0.11090490277885871 6.921161187677606 -2.2732660568619045 1.0482125336040142 -0.47543836928265854
P 6.455483529349149 8.53994054282383 12.747480636464624 0.393862922402012 -0.09858123741002377 0.7275923698472373
P 2.148796482236755 9.21167145922091 10.367087250297862 -0.29452012423561535 0.27775961694782486 -0.7524112286631299
Ni 6.463887394433902 1.425588394471468 7.839094571085952 -2.151312206164211 2.7682568943551935 1.4587855696718555
Ni 0.19158853667746273 4.630958715854388 6.47970270368774 0.4098348723502361 0.0909435183591079 -3.4813837235964042
Ni 9.010407751342099 6.721562396466529 2.1344772661678166 0.009118931582132683 0.4654594036930758 -0.008246299169192249
Ni 1.4945541862990668 7.792733404156134 12.943350387430545 -3.679299788753025 -1.4811436256520814 -1.3040645518454703
Ni 2.062677851462584 6.097801600081532 1.6504258300031154 -0.5805023862035485 0.7446837781118852 -0.8536507296316073
Ni 2.788143137175163 8.679457761400679 2.0893734144582248 -0.2807652365433681 -1.4955394893624374 5.210907741703244
Ni 2.680058799103995 5.463986012840414 3.8835482428261505 -1.035273971165475 1.8598966889958484 -1.1752432846039824
Ni 8.618438798709827 1.0495224273769375 8.84434234054468 0.36750217302029614 2.023564117382244 -1.0528135227111353
Ni 2.733214878036303 4.510245261995477 6.138417172236425 -0.41628474174063795 -1.1035928101465315 0.09983207909798936
Ni 5.1873300280691925 3.536684074629895 10.76596677300926 0.11380731033115883 -0.7432876690953071 -0.9252492678052001
Ni 9.219646270150392 5.3610130155755105 -0.07800111270173936 1.6079038965994827 -0.24082469159468847 -0.20027685207931314
Ni 8.184254648104645 8.072094295558408 4.608942641330468 -0.13279285029472612 -0.9556368789581218 0.22589635241963033
Ni 0.4236900456031234 6.227385282237446 4.430505547238468 0.4011674264832252 -0.14649503037216705 0.49350319720416946
Ni 4.064681849011382 4.976888292173292 12.616058550526018 1.8437056810582828 0.5978053962583704 -1.4760893510576256
Ni 3.5808020345087894 5.21475218494952 8.03304010743813 0.9627230963809419 1.6628038910714718 1.2731388088008913
Ni 6.875424947452203 7.870233642767916 10.506617527044655 -0.4537750253766121 0.15808144965818582 1.266333870063916
Ni 2.8650464308752652 4.060988252370358 0.5217102655539263 -0.1617414150082763 -1.5813027490721863 3.604934229357256
Ni 8.087251099956548 0.887681334556083 13.581853857681205 -1.274202217068399 0.31189461095832094 -1.6151865463038249
Ni 4.698693308801644 0.692297534057326 12.200564372014984 0.8932832564215648 -0.48055743567677883 1.0899374241466262
Ni 3.1610751434833704 2.0044384135167457 5.983774861959869 -1.5222604502970492 0.8515581087686366 1.4837334978664445
Ni 4.320640634422928 8.845147283449023 10.043657833517193 -0.1539211476329091 -0.7112800058404589 -0.7830587783456578
Ni 0.6207275700525207 4.555407875469812 10.547503589862654 -2.040671723596808 -0.680176599567435 -1.2112600690182236
Ni 4.424527703583841 6.376864019027964 5.591133413575531 -2.728398110487043 0.0049038650595205876 0.5320592031004966
Ni 3.629742190002353 7.5307118969853315 12.367575567406847 1.622739161840102 -0.35434583814399623 -1.41433865221239
P 7.447223554728254 2.605282121651755 1.171820583431075 -1.384544708779409 1.0482151047071755 1.3368317189741623
P 1.6521383157184992 6.363171595116292 6.423377220364978 0.1620275787901274 0.4534616079012513 -1.2594327720687084
P 4.2631287230882 6.419760107290763 10.10932177380206 2.19678165135092 0.5144818563383655 -1.203422832361992
P 4.021599215463684 4.104070885918056 4.489028534017354 2.768457440401774 -2.748270166820622 0.4773098752737587
P 7.179316543818851 0.6991596023623794 10.265234457468784 -0.9205312935042406 0.13360583311432475 0.3000176570150769
P 6.193154222458262 3.6418489789923756 8.697071367200955 0.41940323276496155 -0.35987705237487055 -0.2977777119409646
P 1.8079689194598698 3.4637821772909025 8.334067300955136 0.20348738859681084 -0.7028619569800928 -0.008447102326088678
P 8.888211262468232 3.333293750503222 4.799870807699383 1.6046344818195915 -1.9418264338921203 -1.2068025474675022
Ni 5.745706702096675 7.782333504522948 4.305322468353349 0.6640799511158886 1.5652310403213043 -0.2735584343822837
Ni 5.776309456084551 5.572891150165143 3.7148040417375645 -1.463423582664499 -1.4091062001688572 -0.4208345658948494
Ni 4.163812013407341 2.7725945876787326 8.339459392415176 0.06261227551458248 -0.1787551759574534 -0.4432293886502819
Ni 2.9872429197491317 1.5945890953267916 1.4442354611500907 0.07514434654332221 1.1083156695434977 -1.9854246301980454
Ni 4.485742538823838 3.921480361057754 2.290294811739244 0.11669337362970225 -0.7326001074744738 0.38516256641453667
Ni 0.8698942416408503 1.9178814013230594 2.627033301871117 0.5297940612154037 -0.260966456649886 1.9165038959669318
Ni 5.230505934259342 2.096778329542338 5.359591540504572 2.2332653480992506 -0.03703956925180072 -0.2763534806289176
Ni 1.629846154172927 3.9025273601118955 12.396571233765307 -1.3747097249668583 -3.072663938687218 -1.394046220511941
Ni 1.7114503890525135 3.179850926408574 4.337170412117933 -0.4178875674513835 0.4597518117853373 0.26177969657980077
Ni 5.6287521357285035 4.423781522444241 6.263409974930945 -1.560091919322526 -1.5169099846184135 0.28410407110861396
Ni 8.88100128720684 3.7161499659681194 8.337970761041671 0.28367238288783403 -2.519265607789313 2.858822717659909
Ni 7.121571450877999 6.124235066951888 -0.06465006666143303 -2.0487740409889685 1.849768342312595 -2.307485640166407
Ni 6.614821184446643 7.922074577441678 1.8391154529532292 1.1297488997166092 -0.6298742517684571 0.7521888282396787
Ni 0.4281857869692179 8.41105640548629 8.804834847382093 0.7903483700285356 -1.368505395928359 0.9023371390937169
Ni 2.0802783990929163 1.040978653328509 8.078007781089743 1.555370859697773 -0.5760952582747885 1.0165846222860881
Ni 0.10906090263762036 2.744416922394559 0.7817376036291448 1.493093856035422 1.8054607786444712 -2.0921351815834224
Ni 5.7125109686486875 1.36753550181053 1.0749979842093316 -0.4847172234814233 -0.866607032681959 1.0340791795264257
Ni 9.395726364567677 6.773655167274907 11.267314687989908 -1.3634374944871486 -0.590994286873808 -0.5092416909853488
Ni 1.2897927543283774 8.435158056295395 6.010435914077803 0.19942401716071462 -0.04605565670748197 -1.159890456296996
Ni 6.138925508137778 3.07546018497843 13.012112844897603 -0.22757296879110483 0.7697908575921582 0.026555381891025232
Ni 2.5691109909096093 7.850263970019351 7.889632486944686 1.25246996759763 -0.8894597689104166 0.5509120741409416
Ni 3.6481448823577565 9.005501610349224 5.781146575322013 1.4871435519892582 -1.5716670257546352 -0.5312061110715819
Ni 2.1411201437631124 0.6929112680446476 4.4319661968192365 -3.279783267609661 -1.7578210652793211 -1.1805078754370315
Ni 8.573528021370107 7.928892807604779 -0.060426681411292815 -0.6168490431533828 0.05362421308335926 -0.11563047958282667
P 0.15360325303966232 2.018681146018875 12.20956145110572 -0.5756008351368732 0.26667224878541174 -0.4684976762987673
P 0.4376613547157229 8.621759304781051 3.1391243598091654 1.0855500937122078 -0.220331199627027 0.31057049283025867
P 3.5935244229389816 7.57468994790055 3.8337481135691966 -0.35538739203463315 0.5693833934722516 1.238063562364313
P 2.107700555973244 5.784144358050359 12.86082834974925 -0.17238192544125797 2.091196214708921 0.5461136243110336
P 8.069650552326216 6.942170850389489 8.932720967445416 1.081011582411906 -2.4544342131362247 0.7539454059194692
P 7.897786381347673 4.927780245923318 11.726042601729407 1.034430135107941 1.0653857029491909 0.47179203077932297
P 5.411324278913091 5.206264374486562 0.7865551356116921 -0.31628888337127464 -0.5073339324396746 -0.3876300541184227
P 3.847188701346255 2.7758684574287305 12.481702107255932 1.7533995391728574 1.1360162207825597 0.3275947953023971
