# total energy = -340894.765265855 ev
CRYSTAL
PRIMVEC
9.04641457835468 0.00000000000000 0.00000000000000
0.00000000000000 9.04641457835468 0.00000000000000
0.00000000000000 0.00000000000000 13.24034216102472
PRIMCOORD
 96 1
Ni 6.554208762391648 2.211296527262259 11.599811199089837 0.8417100123299632 -0.649108674518037 -0.7403226729297121
Ni 4.503458954226273 0.22655931074177502 5.867431204024032 -0.2855166351854244 0.5902887761663511 0.5272270718191758
Ni 2.5098824860446878 1.4389136526078394 4.759903095448498 0.14390438682685538 0.25141352285412827 0.719513963714477
Ni 3.4401433875024447 4.430771013281693 4.785443837659928 0.16898704082709604 -0.1467552260120892 0.2290580379770636
Ni 4.828161911827246 4.419001627946423 2.472633874116958 1.0777038581949117 1.0531061142508895 -0.15296212615374946
Ni 7.338424347283219 6.205605177537958 2.5022654049898856 0.5897030788662102 -1.690643024770927 0.7709100587982659
Ni 5.068814631803317 4.317591320791632 11.445070468853965 0.1259557727682347 0.9031992299836961 -0.3244721905130154
Ni 5.887768448583772 7.744572175117429 12.409961045225954 -0.9217661943526061 0.5152459881978997 0.8637407668777576
Ni 1.922344999980263 6.272286299218418 0.3667244578476028 0.9132614993157046 1.3342274485820955 -0.510013793264683
Ni 2.8731412624765014 1.278158865976204 0.6002576495693625 0.27452954004630137 0.4108527720917892 -0.8784788444188806
Ni 0.26001204712247983 -0.06859262907580471 4.770826641022934 1.0699149582781124 0.741554231343968 0.4801527440391924
Ni 8.531492637960765 2.3330250815062255 1.5943889517055287 0.10691855363112554 0.8712460741158672 -0.92682458271212
Ni 6.7611635881525896 0.7084129634159118 4.900065528629961 0.12369243065535472 0.12291055818400769 -1.0826899985555933
Ni 0.6562603835098129 7.648101210309338 2.4653252757984605 0.06862660002946246 -0.9865309974338171 0.2832918596199637
Ni 7.821783323339207 3.7956674794902483 3.922795838581735 -0.5943241225779893 0.28399737032742056 -0.7251734759930994
Ni 7.7254480547494335 4.0368629843395825 12.842059417850907 1.0148465565490585 -1.1514004165481138 -1.1362923572620818
Ni 7.631736246380434 8.704288202364301 6.915537033957553 1.1190739365012663 0.10088134629811013 0.8800045370347875
Ni 7.069022121853275 0.5690800864490885 0.3489464439653017 -0.30514700782184223 0.3115256576546764 0.1643927365881943
Ni 1.8109745904010812 6.423017658523783 9.18320991208136 -0.026338380784212703 -0.043292749250364145 -0.5375803900290419
Ni 0.3163965397571257 4.816220644615442 1.3155024652567548 -0.9519396326121927 -0.45813484500720447 1.307537083775103
Ni 6.431702216496004 1.9394698627317366 6.9979580123212095 -0.05815603951544177 -0.2782710093666046 -0.12568889226009322
Ni 3.335458278278962 4.225516913456978 0.32296604600652884 0.7104081447584668 0.14301041425767627 -0.16120431155788367
Ni 5.940680927312441 5.520592574649905 4.528329357119222 -0.06539523757635834 -0.05429244279497747 0.8424468904959879
Ni 5.190986460360449 2.9076442875869715 9.380067129916682 -0.22120974557723838 -0.5980874462751634 -0.4293487740134477
P 0.28526239942671283 5.666529334241439 12.490726529726155 -1.2359159198936907 -1.3495766773446565 -1.7457019134182838
P 4.203606497406229 6.006231247173602 12.532248667889382 -0.8947171606546138 0.5169593713445806 -0.1495091346081425
P 2.304845500169279 8.294232323442593 1.2822252293184053 0.373606229035505 0.6606058765243591 0.8298567125358031
P 6.0391782889807155 7.689217164459073 6.039635132915713 0.5898632585931582 -0.9533599099984872 -2.214901500880082
P 5.059551103299614 1.0939738656486802 12.769502649917365 -0.877909859289288 -1.0314679671558238 0.2199619892130663
P 3.9725610696869285 6.151978032059493 8.150277633279929 -0.22893668190785085 0.9066198256294709 0.9040816325886495
P 4.557158471021174 1.0011666987351209 3.6956575573084782 0.7616823695524108 0.4616845100316759 0.9736034907388718
P 0.15528170582622527 5.712195634912034 3.5574419125391232 1.503412721462927 -1.0882577224513579 -0.8984516879963818
Ni 1.2633860710088736 1.0954574776356014 2.581310261441841 1.0348057732798048 -0.45368735075881217 0.07131571682585136
Ni 1.7384132992602623 6.7491409032097955 4.764100631801739 0.030710798820295496 -0.5398784420345993 -0.30182668519935757
Ni 5.8684724463392435 5.722427129773058 9.249742672563128 0.37310640658095096 -0.9592569922092123 -0.04284537730030041
Ni 8.54940453877847 2.31315915514477 10.132754150803269 1.067895356744922 0.28343121341130545 0.35348040481990733
Ni 2.3310620095479218 5.405802620369161 6.9498419425892815 -1.0697717478320286 -0.7660401323004742 -0.43735493214737575
Ni 0.7969475087354294 9.175054569360569 9.252549774999357 -0.2743960997922307 0.23834614814720884 0.012725160876152277
Ni 1.4800024675139107 1.0680920736085502 11.405402845674388 0.24784483166626345 0.8097756255152118 0.3050467347985521
Ni 4.037107237532552 6.882756446178241 1.4268059313682344 0.614868008167612 0.18324740740085216 0.26014807451364874
Ni 5.522266161342468 7.884474976201179 8.156805526022382 -0.5805764339745937 0.4856099104990217 0.4851792507195063
Ni 5.18617376781751 2.7525254172227256 4.9549465071656655 -0.4109841554633309 -0.14279984090876696 -0.5513676736211214
Ni 0.7253207122180799 7.649575775881705 7.169565782493755 -0.23710867619568202 -0.5201861058119944 -0.5508223426406127
Ni 5.035496686999473 4.788430059104334 6.8353532339131995 -0.4626036794118355 -0.9386647698801576 0.19118748818353523
Ni 8.360976770024935 7.472003704593446 9.256640563660856 -1.1398106548279854 -1.084734796899764 -0.14170557940332368
Ni 4.99576483427656 0.31754905297135594 10.680706336060563 -1.1309310929501684 0.14899311420367245 -0.13419410151762695
Ni 8.101914596430666 7.066072990708541 4.707603963626619 -1.938516652792597 0.6801159215328287 1.0391373107756234
Ni 7.122748777891839 5.997492410714054 7.127925136299865 0.5269550491047118 0.586515425166848 -0.6446354692380317
Ni 2.388262488775374 5.257106704338537 2.443280068170851 -0.48411070024567593 -0.32037770872866755 1.067565227099013
Ni 2.2459804806638175 5.229858903700693 11.231279267614267 0.5711086036934745 -0.9032185132574058 0.7119006701435934
Ni 1.2466140184250216 3.5721939007529784 3.944959554240008 -0.21777140931965078 -0.3423619263092426 -0.765799734154894
Ni 3.4125699159406424 2.661446115489056 2.7723551579259635 1.2632482891600567 -0.4354967958927145 1.0241138407835975
Ni 1.0940462369651154 3.074740610821239 8.285461824532105 0.03576455919411905 1.6651304823221194 0.16150384507617346
Ni 3.7614901253037365 2.599062040721934 7.067218266791128 0.14866427010934397 -0.033290129511697505 0.037673860401689956
Ni 3.987388143141585 6.845828981967191 5.8492786685791796 0.21000950598604476 0.5084816728908726 0.05585258819324575
Ni 0.9687353025576074 7.293554131093409 11.2166086971314 -0.670354985491323 1.064017618957071 0.5538693569970526
P 0.14166051943166966 5.6259833042086305 7.839447352398124 0.4464293836448183 0.015104459741606244 1.2176168644741867
P 8.512585631542075 1.4853217592718964 7.8554549829521285 -0.08792067237238406 0.22786273211738176 0.7025878773830997
P 1.9624748949435682 3.1401461880495303 10.361839220488632 -1.0508502283371772 0.21296241796678161 0.7916637464058495
P 3.902198057282828 6.178194541438135 3.6732550163059696 0.5689110818215234 0.6524909607267085 -0.37374275461336925
P 6.912781496084284 3.8701375641020452 10.154693515380593 0.4793199637252519 1.1215172558354363 0.8355882157029416
P 6.445172327767501 7.697015173804964 10.31058585418924 0.4878331434025857 0.016884691570480597 -0.5807139879937225
P 2.2589439927202686 8.542185499964063 5.887529623239536 0.4042748617639554 0.45044853210654034 -0.5932568576557395
P 7.086336959310391 4.080095799495046 1.606464105852738 -0.9942558768819006 0.13485436080944516 1.3703735594853497
Ni 5.420720157969361 3.0702445427877043 0.26720032812740374 0.1046924925140842 0.17036463790091305 1.2334551170580241
Ni 1.5261301353267813 1.1529203028851314 7.202692847950501 0.44677056903432094 -0.9485771438978631 -1.923394709549494
Ni 6.859669996235419 0.8029036680780444 9.266981520137985 0.4116439005345169 -0.6030357914193744 -0.39378604641748954
Ni 2.933969353940267 1.4925317516717507 9.257607625376721 0.728523623412255 0.04444588901820088 0.18825257392492742
Ni 6.247399612779272 2.320857653930562 2.5876264680837204 -0.2503290315406979 -0.9247216774365041 0.6145880150333479
Ni 4.145600887283435 6.939839322016485 10.471230274563313 -0.29763244461235194 -0.0947999159907206 -0.06589248892775103
Ni 8.275551477387763 7.230509668063816 0.2997538509014015 -0.8659035788570313 -0.24526910051928724 0.08380407910084922
Ni 7.695821047083784 3.706433646325676 8.061461744467769 0.41694114437771423 0.6296333394022446 -0.053760738661223544
Ni 3.129190980024155 8.270259324873441 12.475408235961195 0.831718191224574 -0.4587606515166615 -0.3942478165452565
Ni -0.15257140002572792 5.000532294746728 9.9988020812134 0.37785420567858147 -0.3533909304298946 0.047598061493937374
Ni 8.831263677049819 2.4884967620380936 5.78798920997314 -0.12752723102041263 -0.31174548697496635 0.502350106071838
Ni 3.721984432944685 2.402284431334689 11.606404226017082 -0.6431092624014924 -0.04229670388568199 -0.08864546635355056
Ni 1.247672448927886 3.3366071729273705 12.71757351645076 -0.5278636769619103 -0.007138925037626415 -1.3435669808154669
Ni 2.929020965179012 8.267943442747516 8.096773519039402 1.5061432330202125 0.028316844666822202 -0.46994340760635844
Ni 5.544619851706384 7.860574348948462 3.635545941877421 -0.3499482232969328 -0.07893672370621889 0.6550844324854976
Ni 3.0729946528122407 8.399324521321024 3.524711080039859 -0.10545919547677965 -0.5617130214111875 -0.5326081336254311
Ni 3.2219529148649424 4.271219399785792 9.023981255585051 0.5947370417456919 -0.048917037415677045 -0.13360943265875055
Ni 7.100150834334955 5.8627008338535385 11.452935421667558 0.7340106146687553 0.29147053877601414 -0.43187925374478525
Ni 0.5351225601362484 9.121590259344083 0.242995741345659 0.40989169373010054 -0.08743241988205587 0.5921669670256705
Ni 4.856558607113499 0.2987397478298536 1.6707461183933725 -0.020277262191797332 0.16626192858644914 -0.5508256850747223
Ni 6.0732561326071295 5.635111136494017 0.45892732426892835 -0.6596460837142509 0.37377360785130465 -0.03682822457194303
Ni 8.117031155151064 8.931036583170265 11.408236182712827 -0.10708387556439622 -0.03621424513702795 -0.4824266276750337
Ni 9.137602413105368 5.107307125732277 5.6986965751139635 -0.09483873964845602 -1.1253800812249521 0.6464182721700674
Ni 7.67380207405838 8.880729471833263 2.610214460584595 0.23009599232327468 0.4076615188480011 0.3508565940438151
P 8.51679221430987 1.611401638916528 3.6529702409506455 -0.815648539356221 0.6720082048240298 1.0348836777055919
P 1.8929893847512447 3.030259390457269 1.5009648193193597 -2.064187804440877 0.6693031471880408 0.18894728599910685
P 4.896570898687597 1.0213221103623176 8.220226319897437 -0.9849523400927875 -0.39707294469887744 0.100361212128582
P 8.701140050099372 1.80438880060548 12.542019700249586 -1.1983986396745232 0.14089671034878312 -0.6673822760162442
P 6.228881602186422 7.658830257970854 1.5379583223566555 0.12471881503734006 0.24707555760040673 -1.8146748410435714
P 2.0121306644326538 3.3098750179191274 6.035265714685939 -1.197784660239608 -0.22778097103685288 0.263993673511984
P 6.8042697535042915 3.8310299139833863 5.972056606911456 0.8264772545406089 1.06557570747281 -0.6747004069442123
P 2.649495801862698 8.580298044481736 10.307924399027335 -0.10594384842268205 -0.09955054330182855 0.16898652660646382
