# total energy = -381173.21357486193 ev
CRYSTAL
PRIMVEC
9.18999188244772 0.00000000000000 0.00000000000000
0.00000000000000 9.18999188244772 0.00000000000000
0.00000000000000 0.00000000000000 13.45048205857706
PRIMCOORD
 96 1
Ni 8.375970053936436 3.439244215962362 7.062148583505175 -0.46726123278850495 -2.232176743020762 0.2049418616551503
Ni 6.223480944046686 4.6553099037792585 11.592903769077829 0.17515537442133705 -2.4028938791650876 -1.547385013278819
Ni 1.7142643426609676 0.04750950150241457 3.5895566436706705 0.783840907927321 0.44175537520791663 0.18146511868944876
Ni 3.015410976163175 0.7093019604540615 8.942257359307886 -1.132295834508179 -0.499326745864482 -1.1905531754881755
Ni 0.7677484714034504 4.268944261253674 0.4437314104189577 1.3471084183098219 -2.277438700182355 -0.5930254583712238
Ni 1.814848804804598 5.586145810732576 9.667305452008353 0.47963955184819973 -0.28908635481455375 0.973370548792459
Ni 3.1073200858843673 4.437847123724007 1.2727523153034705 -0.7473875501962934 -0.3421001880074237 1.5348274883287825
Ni 4.141718012380543 0.3574860927506771 4.429109279356152 -1.6081157554999723 0.7238388163420759 0.272149469849899
Ni 6.693153863806807 5.616629014106758 9.404173925842862 -0.3456503672525273 0.29193847955136815 0.2220042164540757
Ni 3.0816064883441316 6.951861327836533 3.833683266436158 -0.5102590765062696 -0.21677407840338797 1.9698216335534655
Ni 1.3664966664216553 0.17399595602172574 10.621522536539178 -2.8260568360827976 -0.9498284998064611 -0.37360700036645333
Ni 3.815059747703032 4.54806269745526 10.539232591416043 0.9681450387274616 -0.5707267948740236 0.9905547738812294
Ni 3.224694663362526 7.104994164081331 11.046948401947272 0.7963758071695382 0.22939768070466945 -1.1866163023276144
Ni 2.3413802049011876 3.787361111896645 4.610905700564494 1.1324886672452754 -0.25830176533352933 -0.33057341831474685
Ni 7.378920254818216 1.6252408904192728 10.558413023662728 0.7817328604453827 -1.1303531089595114 0.8185189189254807
Ni 6.48570817500204 3.214751092047825 9.218099563371126 0.9078380143072882 0.12206543657489302 0.4380154485495102
Ni 4.286396056010252 5.164031099432325 5.152368999618687 0.06244206848530536 0.6085204686830294 0.31602174575281705
Ni 4.950814095668564 2.780174751632292 5.289953288444499 -2.524880125762613 -2.3751609320261933 -0.5393575365341227
Ni 8.4278751285995 1.04359710846107 7.920034334177438 -0.32235694394222547 -0.8849181722863211 0.21184938740826093
Ni 0.07702591772104526 7.147626536843716 6.726371089792933 1.4685411063967224 0.08828345502844151 0.09920370148537108
Ni 2.9832551942499212 3.7722527650931617 12.505344069098951 -0.6343911658022042 -1.124631890205018 1.0336140669645488
Ni 3.7917814980356206 8.541748319135975 2.2251801083971685 0.5680453913871185 1.1868407596335948 -0.6267876424233334
Ni 5.9385728129021595 0.9241639727809764 8.387908772508458 1.741085240581879 0.4737072455241649 2.611911453551508
Ni 3.4003429799409832 1.934870099970959 2.3263012660720177 1.060561284977354 0.13296897086127424 0.04876302833631602
P 4.523176199192586 5.33876041681349 12.553254254251383 -0.738956902930437 1.0544425736741259 1.086716088995851
Ni 5.236457426170923 3.385317343065256 0.7083700952680071 -0.4891192092038608 0.7308080485710575 0.25663543337469996
P 8.552482229760347 4.431855248957661 9.178017413381225 -0.12018981681873495 0.3799838504270746 0.1516212958551389
Ni 5.993492204932341 1.196298015083141 3.096125756662151 -0.3926593890122141 0.7280099170006301 -0.10456136625285863
P 2.217554253058038 3.559862860606963 8.802574076315459 -0.6969011114109676 0.15084713669327568 0.9406175227311542
P 2.09099887359893 5.89193360363958 5.7769548570687625 -0.036501437360143586 0.44735446656224886 -0.473853541294042
P 2.6698672779813104 1.571874607032515 12.876281553100393 -0.48508746233664846 0.40093319898523205 0.0038124317675547244
Ni 0.36803987953238065 7.287286844856211 4.470954069806457 1.2924596206166903 -0.5402157707693599 -0.36063604202808214
Ni 3.438159796909557 0.37346932678998296 11.174136052854118 2.7587386704521135 -0.24257715550942094 1.0442221814976984
Ni 4.7360531732533495 1.1460379489832309 13.557816871807468 -1.1744544701540998 0.8281093908273932 0.24306232267595557
Ni 7.10152953710754 8.137636802110679 7.4558579486163215 0.15412657877549585 -0.26166348271691064 -0.5403425261552114
Ni 0.7163378183085305 2.117567140392647 5.075580183690543 -0.28539913577095366 -0.9890401370089161 -1.009892554977893
Ni 6.208868856809739 9.00054947839213 1.3118097811883886 -0.6997928311364657 0.6196381758627458 -0.5565983258924414
Ni 8.110296575991235 6.295751040921743 11.19542834525618 0.5444673469568623 0.830828332420453 -0.12148539570170691
Ni 2.388763803513574 2.4700125225461766 10.654974107320614 -0.5854669292976755 -0.19173256205372785 0.07029755997398215
Ni 1.9674026715551025 8.575190699925438 6.004779353073483 0.5810544020522767 0.8722076666981882 -0.13904757295518633
Ni 6.2351981838121615 9.361477223136665 5.489558995097166 -0.028784271221543978 0.5970091256093203 1.0872009990520697
Ni 4.035518465141457 5.8546314262214905 8.835567985496644 1.6168575062483446 -0.7116790410510904 -1.2693618582569623
Ni 2.605583284130721 8.57057732395503 13.38161531771224 0.3638782031144636 0.24301012928178145 0.138878908587806
Ni 7.588488831768728 1.977943592348044 4.633610494732795 -0.7418136556529418 -0.8114692111675508 3.1258063270381524
Ni 6.5353984615996294 4.191160169194863 5.305851974557654 3.472585151468168 1.9707857972389475 -1.4037662760131824
Ni 8.140375419718609 2.777123674297282 1.1720538972593757 1.7274627647024376 -0.5100454178335667 -0.3929555800963942
Ni 0.4955188531847674 2.0683639233696227 12.323990605503704 -0.1250553724411524 -0.1570003007788651 0.009547020258486784
Ni 1.9777230325406938 6.91171944289881 1.8704372282504085 -0.06398730148523818 1.1263031072598537 -1.3615559611937196
Ni 6.612281934445094 6.814912067456051 5.330008787457676 0.5168092189199616 -1.141751323494124 0.9814967774440192
Ni 1.3391840102781314 2.1666049375601584 7.334709041434883 0.37868158667588325 -0.49521118103421163 0.730278915540465
Ni 5.243147740327211 2.2004149180285384 11.34619475856795 -1.8032696845304235 0.7069081020250084 -0.9701602693852777
Ni 1.4392538328712785 1.027946552131184 1.199745181072184 -0.5205380898347745 -0.6150395007484698 -0.48327637726983863
Ni 5.593773504070102 4.096475681897847 7.3148963377404606 -1.159994585975028 1.1784425082675705 0.7699870327633642
Ni 0.5855293105643541 4.674737546810015 11.512375545415905 0.6119505774105009 -1.1170926444051794 -0.23560226685348454
Ni 9.106969585438566 6.006358193694433 1.2024001697531612 -1.2493897860104097 2.2531587445890677 0.4220355281814861
Ni 4.402015345021583 0.6983042970600658 6.975904184836091 -2.590925081107828 0.2330923559474373 -1.9810221302549755
P 5.810611364671194 6.461051426538691 7.674993307210645 -0.8604119596148407 -0.0353917492357326 -1.1104591982490617
Ni 1.2550955837258957 2.907676700264611 2.524454034993766 -0.4410781466352339 0.30229796840882134 0.49971755354499736
P 5.723159401056869 0.13922837838976743 10.794886221113167 -0.4578497096666179 0.7919709932336232 -0.02958722673881356
Ni 0.4246722860663149 8.179340985683798 13.459494066688373 -1.1053614720111802 -0.526031508849178 -0.6485085790401928
P 1.1642341330896162 6.9289874378159295 11.536720753151371 -1.8244697156468062 0.7851729964751832 -0.5194970501647698
P 5.114101873043441 7.67706197440375 4.1570331340034175 0.036163337294434494 -0.2805505494294007 -1.0107389621385883
P 8.003802949009016 4.507718632694132 12.822330786224157 0.12728888975736144 -0.4425128221992314 0.8134289059970831
Ni 0.12679156225281218 2.390583421924212 9.581733760751687 1.0065223529540794 1.0325321467542796 0.5810582587070187
Ni 7.803727633766533 5.579207366793019 7.192497591650705 -1.2798177634829635 0.31051084323691686 0.08681946888840532
Ni 7.393311782247811 8.444821473797568 9.725639845055673 0.7437808066816417 -0.03636902554733737 -0.4713158624738528
Ni 2.4760687272563318 6.149859918351607 13.035440267081837 -0.09821536943017278 -0.6996182532318145 1.3889420665161565
Ni 7.673055137903556 3.4859293751848055 3.156613364828726 0.2738083456095607 1.7686541513390828 0.5108350036143976
Ni 4.38369969101955 6.297497139396599 1.709959750420851 0.48429401990107557 0.5663443495356117 -1.2675479449766751
Ni 6.922655533346587 7.080282275666144 1.8459302766562173 0.033058730227181775 -0.017679676667950197 0.1823500923975634
Ni 8.719050834269558 9.139143747335766 5.804098417359985 0.012947304189287379 1.0802731615839847 -0.6001942082055212
Ni 4.337565931315482 7.464350420198498 6.343516024201006 0.08069638670980296 -0.0558998964914134 -0.3880188049164092
Ni 7.5244713476853535 8.533541656304156 12.100081046079445 -0.31424331369615555 1.0038232088553616 1.1280082628764185
Ni 5.784557737427961 5.412822562123268 3.2995646089667243 -0.8712087931200286 -0.26877284006818225 0.65671271211754
Ni 9.243845325883266 6.910873963637301 9.083513968926077 -0.4537860811202056 0.6304604632892303 0.35675033382043075
Ni 3.027982885182132 4.083719973039432 6.9341274003263855 1.7742193041316863 -0.5479355080111208 -0.6539940276347962
Ni 6.856505971125495 2.1952041925798915 12.948415638094252 0.4329331489305963 -0.2996633589994517 -1.1871891441119489
Ni 4.7238304839293646 8.184459811212717 12.854356989250594 1.4553804006450484 -1.3078229904466379 0.62253015269856
Ni 5.679185289466438 7.246446520528545 10.999199041654364 0.06897369895623605 -1.9194413813287008 -0.7982357431964123
Ni 1.0024810843742173 4.990570000943423 7.56163199922706 -0.9215260533173419 0.2870297293958412 -0.5759628464619823
Ni -0.023516270459509957 8.24659334694164 2.346019312849119 0.08273655706828331 -1.2343076948663065 -1.3485605773753164
Ni 0.09184386077818461 4.403320323881738 5.118338459342957 -0.7031985143839051 1.2789299615613716 -0.2812280351123995
Ni 8.907078070035542 1.1760248927908752 2.952125015440845 -1.0377237182575483 0.7803948583602495 -0.1955755899489019
Ni 7.452890500208264 8.44505122359689 3.8559166140162486 -0.10314134597688043 0.30162433938056443 -1.2007229169323257
Ni 8.04048939696492 5.894433281456215 3.3983450756860702 0.9577590675074474 -0.4260230520743244 0.9869871111346292
Ni 7.008195978630544 4.904165696414011 1.4211376016950572 0.1679359738547624 -1.1923501194875983 -1.2070012937418697
Ni 1.279982081988568 5.123089685192958 3.058370512639796 -0.5994087361897483 0.6926600767464264 -0.1569722757544071
Ni 4.71142399476592 8.125800092449555 8.938463730621464 0.24276973113620123 0.39220841751772456 0.1455961727069815
P 2.7690548613450567 1.8456812278737513 5.6485973201837645 0.9949467323013381 -0.9509551572117364 0.2163717007586467
Ni 2.53896503231901 7.269384740492959 7.990823923345658 -0.7747577146791301 0.21964394375201526 -0.46366965878250466
P 6.572884438857178 2.1457712257575445 6.766856680430443 0.22964579215973352 0.021898599845304224 -0.662151366634608
Ni 4.162211694480159 2.797488696509277 8.915100933027901 1.052453311158239 -0.3929555800963942 -0.23611391638258045
P 4.165134111927547 3.8828543184872775 3.1633386009545106 0.06501497141880416 -0.2093729008433104 -0.02313427202461822
P 8.008692024738611 0.5797708615941212 0.6173533337673855 1.6078257350633791 0.11240245956383221 -0.3987901845003003
P 1.057124776645211 8.76114099750554 8.138765333124953 -0.9128076996077376 1.3780238769417559 0.27405671417494093
Ni 6.574823527163464 6.380096787249221 13.013543273207954 -0.35727895263039117 0.7938437847763038 1.787781359086837
