# total energy = -340889.39802596945 ev
CRYSTAL
PRIMVEC
9.10290019172550 0.00000000000000 0.00000000000000
0.00000000000000 9.10290019172550 0.00000000000000
0.00000000000000 0.00000000000000 13.32301456584161
PRIMCOORD
 96 1
Ni 6.487327322827425 2.039386404605085 11.398944478317045 0.33196232824247346 0.8613966921256132 -0.09875118732898477
Ni 4.879409274752182 0.503959300584051 6.087458773315824 0.2436919858401545 -1.0902858086249803 -2.0274716799667662
Ni 2.5785329650926383 1.562622017735098 4.819879949990846 1.3015695533377585 0.3090077763288291 -1.5515391446565086
Ni 3.4509366941398145 4.4048933041792235 4.729377097730439 -0.029088175615207965 0.009427721071803117 -0.7374839179293364
Ni 3.8619872459966382 2.55842465901921 2.673955934796543 -0.7304339530610904 0.13523308430510259 0.010799147498033014
Ni 4.95613761875079 4.608789161009789 2.3584803710734237 0.4467384302448048 0.40759672704833677 0.35453892799140874
Ni 4.999667686493269 4.5040420908482055 11.358442945400567 1.3913632743631392 1.1212912558675592 0.14400774517393908
Ni 5.564557248146804 7.837442140343337 12.20758512381848 -0.08491968076253117 0.7705292784200795 1.3716794227809668
Ni 1.8725848652255026 6.465389333856414 0.30863018293216554 1.7674331344477883 0.29256377184019294 -1.4101233285794619
Ni 3.032503690392746 1.4766360244487227 0.19322088601467133 -1.5026239070130445 0.8240627315618453 0.7202742389192692
Ni 8.056840235853416 8.867799389981787 7.17569590223779 -1.0086599681223725 0.9528372047257976 -0.6386142027446163
Ni 8.694516585810769 2.3446612586016844 1.2670836255656324 0.0952269762258102 -0.208298436832209 0.6891757177422517
Ni 7.0047634668436665 0.692847206204448 4.596412858186143 0.35996369855140586 0.6658987494921822 0.5685015050879305
Ni 1.1137034019283143 7.536891691440494 2.239158647741099 -0.8031527208820555 0.895682867001993 1.1426080150674645
Ni 7.803206133488578 3.535320577028307 3.8058651367008 -0.07634813704343626 0.538640198752124 -1.0822886493521169
Ni 7.6142754442382365 4.00770646900408 12.829170277467096 1.4801282970136895 0.11388110099188774 -1.9411926569628635
Ni 8.426108476765453 7.55759168601314 9.251407429244873 -0.13821659241345874 -0.06263464411208568 0.22058111085430399
Ni 6.758402581569216 0.8772137014008199 0.2032477303514215 0.1996657008578755 -0.8002643435906669 0.3950759688735067
Ni 2.2480157694293954 6.767441761257272 8.931535164827563 -1.004006014290129 -0.489317441257596 -0.14688532383205025
Ni 0.2538789703745157 4.777529618086809 1.2252803779508727 -1.0631935803938786 -0.36911245493020944 -0.35506523280852403
Ni 6.513871379192349 2.3991967324296195 6.864962949408404 0.284054191707285 -0.8104065742309914 0.20891421603933696
Ni 3.6376098641931383 4.167835582692479 0.11656900637596174 -0.9681059579594101 1.422182573736841 0.24187704411860284
Ni 5.855212844762722 5.83736205788631 4.497116604537356 2.005089198506508 -0.7563262474468201 -0.5844207474213483
Ni 5.376327482195537 3.074185869437666 9.259387941664329 1.3160212099867141 -0.661399576070248 -0.26258239498675423
P 0.3740709309456899 5.488484312947329 12.322948906236034 -0.7760952025436312 0.8575120123592264 0.2809092183204001
P 3.985440775633503 6.228941506668864 12.495441578688096 1.3084495682870434 0.06594391099097675 1.1264288342044406
P 2.619723587538208 8.59342888144435 1.0331400061647735 -1.1134254799662373 -0.22060605055496843 0.5955731644937421
P 6.489939855123971 7.90957351984802 5.4902275182950255 -1.8367374772705656 0.42866151813843595 1.222871942225539
P 4.796673016761513 0.9427418372542288 12.462960610951018 1.58623232516332 -0.05494858832173762 0.3152020780649991
P 4.248104954786409 6.348253216811202 7.9827908753212675 0.5323229982848445 -0.2497129952232538 -0.8068625656334749
P 4.983227849114992 1.001300792876847 3.7780867270975076 -1.8494834640823246 0.46746794948267234 0.6025539666869494
P 0.30146984180162745 5.716166047446463 3.4155409778265877 -0.7047427189425733 -0.25536479419239244 0.46165751344848227
Ni 0.6000649877870536 -0.02428380629791055 4.914273381706111 0.36837326277133975 1.1854716472002098 -0.8625475179006049
Ni 1.84253619236521 6.693489801754994 4.6562735285070405 0.4704548000251381 0.34181942354221134 -0.34985514936249423
Ni 6.367706114085495 5.6333751720558665 8.6944929182708 -0.42500232411929384 0.6394436406244471 1.7304868962407423
Ni 8.672269098240168 2.5755745225965483 9.825309772176501 0.2735113831944322 0.3160194317599719 1.0470059148904227
Ni 2.627269891628236 5.2834687994182445 6.937533088692507 0.6791849250781271 0.36805007510396615 0.20844858925682808
Ni 0.8972591974643311 0.6244689523648054 9.098019923287566 -1.1319489926917214 -0.3588087590113562 -0.7781957938264017
Ni 1.6510475882182494 1.1358143459990961 11.292280337417996 -0.1343887340269363 0.30936773077140917 0.09260239411876955
Ni 4.297970640920515 7.008877977638229 1.4179286915563007 -0.4990336401040954 -0.20129860847560813 -0.3782653250740711
Ni 5.562763976849174 8.222030561935128 8.128264320029034 0.7261936897274976 -1.010564641344253 -0.5066659598383726
Ni 5.492780881741652 3.1908577385834915 4.784947571287007 -0.1932759952814478 -1.1696881591137083 -1.0860697136611037
Ni 0.8504866767461379 7.6213210888289264 6.822955796833914 0.9182401834772186 -0.4821903432945115 0.4222851822984469
Ni 5.263733712244322 4.622798524091277 6.727149595040515 -0.7469779734627007 0.6534510106471326 0.6504258506675636
Ni 0.9472022582483346 7.536272694241312 11.460883340705196 -0.6371849264972576 0.7122313140101346 -0.5350563380556075
Ni 4.557303158677824 0.4959096061246881 10.264530158336099 0.9280332583082405 -1.1520640182740416 -0.015947781578508017
Ni 8.285341231351467 7.362552950870872 4.638234311600879 0.8739560168478625 -0.861506221120284 -1.4783969161448798
Ni 7.460463743141489 6.452963875372833 6.663665060234405 -0.04982643660382386 -1.417190005618256 0.9396680143336913
Ni 2.157023181149636 5.343702688638649 2.36340959141691 2.7155179120902653 -0.22692736478730596 0.823110137840589
Ni 2.4578740257520812 5.651653795231712 11.221934946890952 -0.8958358476400894 -1.3446303890829745 -0.31747904702463386
Ni 1.1886384746292926 3.5882994549582987 3.7555443055672955 0.03977573723604118 -0.3417520606393856 -0.3960095364313696
Ni 1.7125922950369221 1.1995983662148098 2.522685763376437 -0.9495307660603839 0.42688565718493576 -0.7635669881696333
Ni 1.3575609897060725 3.614415675023788 8.238978341132732 -0.18788670594507642 -0.14848506421900234 -0.34414215813811694
Ni 3.8017351509762576 2.602273328261267 6.726510571461359 0.5018795941933227 1.0538831016262302 0.3348710172488362
Ni 4.13992609132936 6.813748213496081 5.491066805673917 -0.6972422968004701 2.1435780707447467 2.6591863273780723
Ni 0.6730984646805448 0.3578814233170833 0.1386708475467556 0.05059442511809996 -1.2224510526380368 0.6200644647668869
P 0.11400380915935147 5.910148846190127 7.98569470041743 0.8434804739668248 0.021334499811718095 0.2816229565579731
P 8.649138629370732 1.827625642184913 7.672363779931477 -0.5863629587493837 -0.28809982253156835 0.80089837763024
P 1.8283083596840108 3.608007233432256 10.401050900905696 1.2204890438156593 -0.9015406113343506 -0.700610956162387
P 3.893920219154441 6.27467447620843 3.499889359405127 -0.41689383607954655 -0.23181194657311688 -1.27474009184974
P 7.023697498818646 4.040431394460835 10.449333592731893 0.0572893206397723 0.6730734128637504 -0.6588420997557168
P 6.3555082281016135 7.868146222002763 10.121840380444654 1.399126977468958 0.3217550486921684 -0.09459834150287579
P 2.6157547231434526 8.607866080825271 5.807501815055769 -0.004976370168668849 -0.2637334778720619 -0.34925556810528235
P 7.144310923659264 4.023072164183775 1.5960041725709855 -0.5920402116398191 0.7995580615522617 1.1652735749857803
Ni 5.635832955052618 3.0733848142387243 0.3366989750450745 -0.734491925180548 -0.9526094049857078 -0.08703004223731463
Ni 1.661579643504332 1.2643472938292482 6.88119068921696 -1.322385204531529 0.2909753443071505 1.1351988670875868
Ni 7.084677825838065 0.8350873008364872 9.32678945433526 -0.7228414854258132 -0.18356236753810967 -1.4224939343296727
Ni 3.141938754048135 1.9973401095606467 9.269473954851001 -1.6313682982700095 1.2653442524571368 -0.33839008614568816
Ni 6.304586605568904 2.0389585683056506 2.5236324649751856 1.1283160239248244 0.3241230347037128 -0.8060657807637923
Ni 4.4384192848349215 6.776708513445026 10.146701310601802 0.22213354294308843 0.6868061890688106 0.5826613415280804
Ni 8.677903793332723 7.130465412777559 0.3737705352460869 -1.200179899944662 0.4554089614356092 -0.3215845845525752
Ni 8.003597373823773 4.029043666575884 7.8687988999319005 -0.05540933000824006 0.45727403966880603 -0.4706568887336153
Ni 3.2873120668560336 8.444833142040709 12.05512975481994 -1.407120537197396 -0.5243209539159743 0.6635960695009346
Ni 9.315816818689761 5.1417548524055094 10.087627130839865 -0.8640456997126862 0.02055956931890653 0.07780492409462085
Ni 9.080033503201333 2.526983242460758 5.621192761001964 -0.9739012244849485 -0.07361454016235709 0.17140619179154995
Ni 3.7875346269950225 2.587144308481259 11.616136030870042 -0.7258818149140337 0.5897601573563906 -1.5685174243820599
Ni 1.2006998171133543 3.2079711905608774 12.487075103309152 0.4032806161714861 1.0419408416626894 0.6170261921611954
Ni 3.2941847563469517 9.055482981933775 7.932682141757484 -1.4905268666391944 -1.9258531983923153 -0.0964438793520468
Ni 5.579859223026583 8.034447101883007 3.3674986025600724 0.612114613792191 -0.4891912000923768 -0.12890122854980382
Ni 3.049198408970685 8.532348422525063 3.512599738658331 0.9066553068530966 -0.27400117834665716 0.13092031586236164
Ni 3.7361123449629736 4.5805883768470546 9.214742768673325 -1.2919050336648008 0.08003612741798474 -0.16545923017949568
Ni 7.325221958020202 6.570354873617708 11.630139021921538 1.6454682280065016 -2.1683869022583107 -0.8369439583998877
Ni 8.085195769315947 8.88608711605762 2.2632740503892324 0.7438386565027706 0.4142579411185962 0.446281030992412
Ni 4.535146700107102 0.33588244491615343 1.5845991491760565 1.4115122385071885 0.16933105443007612 0.19793586265096233
Ni 5.980459645697216 5.656378200325468 0.4049652632148651 0.41173440336579414 0.5771180431123479 -0.9711390883587792
Ni 7.8642410779079235 9.05604736173303 11.424578244683174 0.8319976701382059 -0.4848727752226811 0.35024004350573873
Ni 0.5417408869841251 5.187870143744572 5.888532189588693 -1.776547695154547 -0.9604548691720556 -0.3055069622644222
Ni 7.444915989962034 6.290313258387766 2.462146016716436 -0.039616071729725325 -0.7587885929443835 -0.12558142014795146
P 8.73807396225321 1.4775645202474956 3.5005684357442295 1.037604933291497 0.8533031164842014 -0.04528869663447039
P 2.1082134314141348 3.3278017660025294 1.3794652979471274 -0.8736174025615212 -0.8606449015612533 0.803895512585351
P 4.873210199860374 1.2663681376265778 8.074399729930212 2.608475431286766 1.3461859064955528 1.2512543500229742
P 8.681399306928103 1.8163926635997567 12.348862131631792 -1.3196631776146757 -0.4124831086063606 -0.5441791262924821
P 6.5706643722173 7.9584560927834245 1.138529741065508 -1.2356662657767299 -1.2079484881464873 -0.3928475937636202
P 1.9436603083315809 3.3998148078073687 5.973453143576475 -0.13012713053710492 0.07606197326158513 -0.3532860294209142
P 7.109082700705816 4.4669204646972585 5.634369208734552 0.8196075240039691 -0.8431395456876383 1.1024000753900112
P 2.4784101681249444 8.614766079016153 9.944337471839214 0.1341838171049818 0.01706672567429964 1.5340420163130097
