# total energy = -340863.89365112607 ev
CRYSTAL
PRIMVEC
9.37762733794527 0.00000000000000 0.00000000000000
0.00000000000000 9.37762733794527 0.00000000000000
0.00000000000000 0.00000000000000 13.72510551418426
PRIMCOORD
 96 1
Ni 8.802365941565679 2.6479980742504887 8.976452211018199 -0.4247249020881911 -1.2706170708203022 0.3007280528185402
Ni 7.299685597709754 1.978163548247251 6.786199559502635 0.5663687750156439 0.8134579594628054 1.5596314347463398
Ni 4.102880652786465 3.6518167893590654 7.57782226639398 -1.6966678908087682 -0.12999831826872452 0.6745003751182642
Ni 0.5584461335671252 2.8783782391740007 2.097937414834648 -1.0035131338141106 -0.8334580567338162 -1.5632232658626561
Ni 2.8920039313478054 6.19848022518551 9.71736071056203 0.7384462818426055 -0.26308607409605017 -1.7942823934301484
Ni 1.1709092747457788 1.4300412443526254 10.507034746542352 -0.5547103648411091 0.14522979050649826 -0.27353503734351603
Ni 0.21734057444334975 6.063554926495419 5.570278612447809 -0.3279897167479706 -0.08258331931987067 -0.2997577184854708
Ni 5.892947756696361 3.483994774808198 1.093162181762046 0.5445596495603525 -0.8990214444569226 0.43788149407480725
Ni 6.704093745443621 1.171087449660646 0.4045227001386223 -0.34994205264934575 0.29665979628643746 -1.2968544072502763
Ni 8.532327791643528 6.436118673483094 11.123250814085738 -0.9701798097693034 -0.11962443123356818 -0.3571943633363848
Ni 7.573306001183448 7.962580679660261 13.434764623846485 0.8832353852672594 2.0742207631968475 1.3833301196460177
Ni 1.5006172658943013 6.523677577699759 11.539148575894577 0.429861194873492 -1.7971093213559821 1.9308565651441776
Ni 0.14894860225286397 6.4550989907300185 8.010740421386203 -0.5651503292275105 0.923065887000636 0.9269382254718488
Ni 3.2731388295033104 2.5296805531514557 3.149472309907417 -0.2078811467891323 1.1542692534554766 -1.014433637381356
Ni 5.504442043641606 8.875230104119334 7.574487582197831 1.1275380081082194 0.1303202203845175 0.9638554102131724
Ni 3.7164473953204302 8.367947366237729 0.7715283275451448 0.9613185027239314 0.9094251562887499 0.04642152468733296
Ni 0.4518440820019766 8.510018416776713 6.7772645564033915 -1.377996109027614 0.8487859453401382 -0.4876367111210635
Ni 1.5515940468005662 8.834334272343723 12.562725951299235 -0.9357146861128981 0.3002745102208893 0.9738217773972649
Ni 7.597415880453132 4.973021293609022 1.788161570083525 1.079384074110812 -0.2375678752202876 -0.039977311723885994
Ni 2.314154549551623 7.267032700153534 7.11475128922994 -0.31582479925066254 -0.9504689616039373 0.601885479865015
Ni 6.174248436763548 3.5701845454685146 12.448203555886879 0.775071132154491 1.4371476796871054 0.5143620429310496
Ni 5.042003118543989 5.462383386105808 0.41284159313750884 -1.7127910216228759 1.3158240063742437 -2.398784227872088
Ni 5.408330743511306 5.42812691431578 2.5878274677370676 -2.0535866318862634 1.0934009572151944 1.269283182500227
Ni 6.185604743179569 3.0769870034885307 8.700372055956624 0.43010390701191736 -0.5846745153033672 0.06099659428803043
P 0.6668449384843048 7.947098217320997 10.310683177070377 -0.9521445495341474 1.4121814966600712 -0.8800407895893617
P 8.269744855264513 3.0179360856506445 0.5174790318255672 -0.47784055096624806 0.612986474874183 -0.3487359481563865
P 8.97725868694865 4.822444735291896 3.6943865275717203 0.5659239741687414 0.46599959246726197 -0.04067125246711705
P 6.0363504302833 3.6690059798302177 3.336408741772714 0.732062746913765 -0.8757079665419627 0.836910791169107
P 6.118948569764975 7.253763357809464 1.5110517515665605 -0.47833240300100205 -0.9675541992209982 -1.0813684515306923
P 0.6229735856304087 7.579982871677426 0.4811529177349495 -0.1765118884492315 0.4105925764518671 -2.1186429980659645
P 2.644050093242112 3.1841451483406074 10.503136466957596 -1.6592580827017422 0.41789682342276413 -0.5713150632773257
P 1.849436861069124 5.2605768509507635 7.79849471174535 1.177999764303197 -0.8967814993828104 0.09527634140650687
Ni 7.800535283401937 9.154711524529455 11.124746545607913 0.4117017503556458 -0.4342133011946006 -0.0012349008483656153
Ni 4.028553580405476 2.333950720356098 0.40378186759785795 -0.8194116059430792 -2.2832257391777775 -0.6393896474580602
Ni 3.3897027343349646 6.616816170039904 3.2651612821308014 -1.388807340710505 0.3051583206757519 1.0422087506120954
Ni 4.21212063085436 7.988031559605001 5.862074732763395 -0.8630450263623135 -0.2306935166979575 -0.699875106437627
Ni 8.881400582750004 1.9347263795280056 12.341381130084919 -1.8491047405866672 0.42825862627306244 -0.3103318944568913
Ni 1.083988049171796 3.7689714846979117 11.967165982965238 -1.2442496365703666 -1.678233852473297 -0.761282820121147
Ni 7.596900110962727 5.094677249955043 8.913728076645913 -0.723167244196348 0.8279877776478644 0.359078210622659
Ni 7.505880862346794 2.2904760411284593 2.443192573949413 1.132335686607179 -1.1503886874541476 -0.09380284218477393
Ni 4.6826524481377945 2.880206876458166 10.621350834158548 -0.0486954083231742 1.3880807469571257 -0.03416276192463794
Ni 5.24814211741844 0.7766682049577136 9.80949777232808 0.6141295873396907 -1.4023822511814623 -0.7695581727560618
Ni 4.9997569084662254 1.6954093359798303 7.023808937156214 1.4482548453438606 0.05288193560069602 -0.9060228154754203
Ni 6.987213685167875 2.072774428041826 10.883912201995237 0.6743646208713483 -0.5348233961091952 -1.1268204132159043
Ni 4.851018365060363 9.005747918073233 11.978160312975264 0.6566762024526497 -1.2447592292169336 0.8083756598438916
Ni 1.1656671811978385 0.3786432626354914 4.841997087791815 1.8189094479502093 -0.4695109480546301 -0.5375657347410225
Ni 7.0689303277023114 5.889543678059685 13.174453886513385 -0.1100576134807395 -2.245239489741991 -0.6145898148055609
Ni 1.8103602889505799 4.57357188973057 3.08223284808731 0.514954682209726 1.791499945589005 -1.90815063890623
Ni 6.071966658002579 1.9412813408697052 4.529161323318522 0.19177087149083102 0.12070892254699855 2.211231765337979
Ni 2.9540181793487488 0.9631854568917178 6.781286620665845 -2.673642869123034 -1.2578088633120403 -1.115750528554988
Ni 8.995263730977353 7.931831440404993 4.052007963540991 0.556915342912228 0.8201687958240779 0.04342438973222199
Ni 1.336227462861405 8.77516144535356 2.1157520930332554 1.0198990313713017 0.26655937735663127 0.9878188630073053
Ni 8.169104161245743 8.130824687430552 8.90545232073168 0.0832911440201727 0.5419057568772732 -0.07148720940670913
Ni 8.158338645336913 2.977865485059682 4.574330539762821 0.3359089715950473 1.0811640488293703 0.5933267916617265
Ni 7.153769720060474 6.430088859258897 3.778192505423653 2.1539213616522837 -0.08784970992513258 0.5470286799261354
Ni 5.304895516617248 1.3057314195377896 2.5129021027472076 0.9281381593172209 -0.5252192973605276 -1.872394564352543
P 8.22624204315558 3.8839693258041526 10.723465691157168 -0.11727187184099158 0.7284765722244034 1.0678282509524124
P 3.6091204531805845 8.386280627214873 8.35517128707903 2.452586875514841 -0.27926062697338355 0.815050500760906
P 0.41784361943173287 1.351156645201871 7.180042080139024 0.45154330783261587 -0.2884080978006065 -0.5104560230084241
P 9.13141749881732 0.778374933089601 3.124383406368671 0.0765625670470875 0.003137517187717177 0.03390333761566419
P 5.2486672645359445 5.001454258971015 8.975587593799736 0.15861418223320425 0.8086106586728332 0.5814475237256373
P 1.981511361121338 7.526127159251987 5.051016893710859 -0.34554932289828877 0.5236707219264853 -1.8326334824045212
P 7.275331900135514 5.732646599078317 6.331171773100792 0.4319558726189916 -0.0026464364839115712 -0.14239746326402572
P 5.984032648701981 9.158593862148145 5.135137959833295 1.7201459193260507 -0.5048278781883694 1.1436999625800626
Ni 3.3200550978760193 1.8266679824744936 8.859816098457886 -0.04256435572477186 -0.4657748780509656 1.7070510338153053
Ni 5.891634888902601 4.050394073917377 6.26859861852479 1.1720839130393943 -0.10236821525628176 -0.7290206176533316
Ni 2.7378920076146267 6.362823140082916 0.866080128289 -1.425349658610913 0.6998709926725688 1.6475163687847818
Ni 4.147396248622013 0.5769510051201665 4.476745076652672 -2.303223522455943 0.13374647245724708 -0.3794171792903272
Ni 2.326354842406489 4.446364378142365 5.276877042372998 0.9944780201950357 0.6655562785510989 2.0621460914205003
Ni 7.351478232173569 7.927686529227552 6.434219703995692 0.6555737134170904 -0.7342936931268128 -0.5866699484668412
Ni 6.001109307647955 7.233151333447438 9.563282546286406 -0.4745397687277892 -0.3328323895522526 0.12107479052684954
Ni 9.18324764378953 4.258089758890143 7.465949050636887 -1.4083014448793745 0.6062920935731428 -2.84399336595656
Ni 4.1293630717120156 5.790197096580477 7.131359066820998 0.27693120750925854 1.3158898266151724 0.5186334166128939
Ni 8.351367721527966 0.686284759459045 5.357334269588135 -0.5294857859463655 -0.8618054975282576 -0.912588641618396
Ni -0.09564804535164456 4.9716146495442795 13.630758905726013 0.2999796046882898 0.3535878769320491 0.5155113260441444
Ni 1.8167745858858053 9.207001173229479 8.734272177916917 -2.7041873175687945 0.6907464046634814 0.41297907440617265
Ni 5.342415402637477 7.929215082444572 3.450120910203781 -0.38546544236693614 0.7349953471795277 -0.2811814981451803
Ni 3.0637176611444605 1.2786019443424574 11.763870280626985 1.0744115605968851 0.5225936868122225 0.7519152628633179
Ni 1.1380313141391996 2.748976362844797 4.2631546152859245 -0.38271590464625704 -1.2083403242682673 1.57461145309494
Ni 1.7032115217256016 3.1480319063851203 7.730981423213973 0.666637941651052 -1.5395228369219227 -0.28377754100713065
Ni 7.412807913396339 8.7514548040491 2.1061306476304176 0.928814102338323 1.111507179897602 0.7590798989325571
Ni 2.4968776135616624 4.722319810763532 13.229052307005006 1.3606954129656372 -0.6295587774105673 -0.6265598426832435
Ni 0.8143681414182299 4.604668101188476 9.856642854801985 0.4196508299993934 0.4311272060701091 -1.0101177836148216
Ni 2.948738575292416 8.419346140363418 10.760400413246465 0.5386918779256658 -0.23433754120844805 -1.0852474748701246
Ni 5.1555286721958 5.976314861600094 5.010747487425412 0.3244009709554478 -0.3642132178563792 -0.09358661240890978
Ni 9.018510868553996 0.3468456046706343 0.46151616659114536 1.203724679873127 0.2465903904338721 0.33236239189436956
Ni 0.17866724029003178 6.4610819168187215 2.145042173512032 -0.14181485128767835 -0.7953717913850561 0.9796142157093257
Ni 4.901610663255599 5.462889777969115 11.180484347791976 0.48003138796997974 0.0716461035820766 0.31672674223964165
P 6.443508243636541 7.446257909255913 11.73502001085912 -0.31178302508112116 -0.7740856283127701 -1.3365409272066207
P 5.277447202100574 1.6485774662510064 12.349163622813785 0.18203616070157036 -0.19178578388916648 0.3534948029976106
P 3.4145065580099225 2.497702844746311 5.279526222028263 -0.23243801019289004 0.47705687872268815 1.5883730256554063
P 1.3727439427821178 1.70720639086947 13.132949446739095 1.4475727316751714 -0.5769105550872322 0.4654069531885856
P 7.522038513837136 0.8694898335019358 8.882943202407672 -1.6406574368814193 -0.4407816984407377 0.5977881698671897
P 3.381966191978882 0.6312887275784561 2.207409020291871 -0.9961512941324004 -1.6559745268544643 -0.6338946857817599
P 3.5462715963678937 6.706907033573106 12.426916342373778 -0.14948959422411673 0.7706192670307244 0.1715879687850529
P 3.3883711112870087 4.037359172250763 1.336320301369678 -0.3182385508984777 2.153865825824 1.62998093100418
