# total energy = -340854.052876196 ev
CRYSTAL
PRIMVEC
9.42569943719938 0.00000000000000 0.00000000000000

0.00000000000000 9.42569943719938 0.00000000000000

0.00000000000000 0.00000000000000 13.79546389064111

PRIMCOORD
 96 1
Ni 9.028405924525991 4.174217994159793 12.270899213778085 1.8446099380401069 -1.4034158346522991 -3.3462853650969526
Ni 5.531792016087604 5.106381936647575 0.04380405162922132 1.2285008583765422 -0.41840924428280846 -0.8323108305032505
Ni 5.498934028873638 6.948606557131818 9.34941978796323 0.6374713473894247 0.5914719978411749 0.05847537052807349
Ni 0.5456188483258223 0.12003439345164023 5.649586863422767 -0.18713183005692285 -1.639714099131544 0.803461510371726
Ni 1.3847294611600078 4.486557386675342 3.3678173850630224 0.3019228444575897 -0.008150911241908542 -0.09179481061580964
Ni 5.173266697769292 2.701226286220789 13.36389951616955 1.622273535057593 -0.6844950244371308 0.943012505325892
Ni 3.823195532359644 2.7113400614016805 3.2882456328942604 -2.3980231813363475 -1.4936325021477115 1.5862148416618231
Ni 2.8583903937381945 4.864047211670217 7.6502056451626315 -0.09705297369095543 1.5369915858596368 -0.8180733467476297
Ni 4.378793368368607 2.9020690835688083 7.485666870635414 0.8636952583518029 -1.0334580010026588 -1.0438565706281635
Ni 9.18268576810551 1.5163782010961715 1.0815094325657195 0.29464970783494415 1.0061845099986866 0.9879952406841694
Ni 0.5336934537695658 0.19011823686263418 13.169535944412718 3.0980736370095743 -0.5069297550227204 -1.5821165032227333
Ni 9.157717091074588 6.309770371987303 2.049371325419381 0.10947140195996631 -1.7500738172337345 0.7225458085622652
Ni 8.130146221857094 4.017289529120974 7.2147930137916045 1.1834026804863231 -0.8012729873608394 0.09350742243154218
Ni 8.542228362708327 3.1237238246255012 3.430227766801357 0.8240673595475356 -1.3311356970306494 -0.40765097732503985
Ni 8.285915325901273 0.4422010198941193 10.266073742510512 0.8447752815188484 -0.5585703620171476 -1.1390670917937413
Ni 5.7409294286818335 0.4683931526738581 9.038429212995105 2.294150099399765 0.37198643404389486 2.090330524274516
Ni 5.728562911405665 5.346379088237366 11.30729962207708 -0.3102154234836851 0.6689683895564414 0.44797667352728016
Ni 7.5988195611424425 4.612145402062285 9.775009898256897 0.4370469139886538 0.7050085710094504 0.9392638369167373
Ni 7.441014506083285 5.291257599646639 12.92341114580979 0.008482326439398296 1.7817194691634735 0.04711289432740274
Ni 1.8107616367435022 7.696724298145158 0.4382639053619123 -0.6980992454841268 -3.074829064659337 -3.6339061911095736
Ni 9.109250146079114 8.078050382691407 7.920940944229033 -1.3990182198052357 -0.1886814339322299 -0.5229279302231898
Ni 6.680492544997202 2.784615446542637 8.759208899559797 0.8193537561219503 -1.9858280362840508 -1.7229929018565424
Ni 1.6429370634948879 1.6132838139896848 10.57415366158315 1.4838358277722636 -1.0819335800055432 0.08670736879057325
Ni 1.1379363804878107 2.713055538645783 5.036682661761633 0.6555474881648452 0.20986243888521922 0.04274896093175218
P 4.079602826158132 9.117742701007337 4.666397841191989 0.6460961129439583 -0.0932701096097555 0.6933015669851672
P 3.798594457595315 7.342987234991704 7.918113234486007 -0.5729687968306648 -0.7447400852711175 -0.5646026842541567
P 2.6099855185124725 1.5936029541782213 8.427441255969828 3.9704314561323812 2.415073451950415 0.8285305375252117
P 8.27987345275034 7.371415143608262 5.797667424675658 -0.22326714232689937 0.1535172273262711 0.7197972992828506
P 6.019590798157938 4.3971452046008475 6.756507980879151 0.41029201449231273 -1.0767366091856359 2.7400230963204812
P 0.8908652416908825 8.88213792521838 11.066596485621446 -1.188327628591766 0.6063460867395299 0.4548800855153327
P 8.770160619394536 1.5025129976561988 5.020334729167284 -3.6132131815365964 2.43052269662595 -0.9481117742256704
P 1.5204501031261295 7.547317541022789 2.380186030825949 -1.1028032243657007 0.3356127805108672 2.8749854434627
Ni 5.580258961083077 6.305858706842783 2.3617974343670487 1.4591624933952998 3.6399009752404283 -1.0459859582663404
Ni 2.2682567960677367 0.22125320627318307 1.1164816040975551 -0.33982347615810504 1.1567151438928078 3.0909982182200317
Ni 1.6177044668879494 3.228179422532895 13.412322160379048 -0.9230288631151136 -0.896230769085663 -2.983030397388785
Ni 6.57226666743244 0.598328300505748 6.149355340835332 1.024584352662113 1.683728814149597 2.0657474356185133
Ni 3.424064302131474 5.634975144610636 10.237971963084318 -0.6931856102325933 0.8018437722626449 0.26749577312797157
Ni 8.963641945711544 5.367568059911777 4.9808655565741216 -0.9515210570175355 0.21910838296351942 0.833845264869906
Ni 9.323590544600513 4.122970467917012 0.6369962886717191 -0.590264607796635 -0.5249413611087926 3.3207687088830875
Ni 8.489793198373475 7.741892248440433 11.952858215850682 0.09726277570891635 0.038332062810979145 0.7256293325835954
Ni 3.409181123184012 3.4465257431902465 9.455148797824899 -1.2982044935202675 -1.7641662907710585 1.2715776349613583
Ni 1.0838517188028598 0.5894803967198186 7.929370346972995 -3.964756774345107 -0.7416835578329808 -0.9124593151293835
Ni 5.239020374993799 4.836948326632881 8.862730410682078 0.3020809673020088 -1.216301230986557 -1.4520037708633315
Ni 5.604548987775672 5.5640184814589615 5.18521848428315 1.2737193638947097 -0.37449145985393567 -2.4841983317725345
Ni 3.5388598919992007 6.406289531215936 5.6230450372048075 -1.0776238968865957 1.142266829677962 2.287006803486764
Ni 4.3647773537423395 -0.007972256335505646 7.457993017950329 -1.2017621568301173 -0.335180578069455 -1.4323101490891461
Ni 5.203513766320531 4.32659384651234 2.90510415869299 0.46309707410848633 -1.3193932117827405 0.4824451396177949
Ni 6.796899929418454 3.00453585895694 5.283069494800748 0.41163515878376844 -0.4732809566200236 -0.5773201318208251
Ni 6.584161899751437 8.174173662556015 7.5672670332598395 0.4384512505353481 0.6440631416743294 0.6981833205575009
Ni 8.817355095005647 0.19651263116153111 3.2321664932705616 0.4509234148604298 0.21043270956639246 -0.20566485586410388
Ni 7.797485021988331 0.5342222354915117 13.17316389601302 -2.3606534824386376 -3.7334063407894416 -0.8040148117720347
Ni 2.013376465530484 -0.01762888510794066 3.94090837611226 0.800692175156705 -0.2982086288307961 -1.592612774768367
Ni 6.429787799180485 0.3061947792439519 4.021819520129302 -0.9146205844467603 0.5859469542578877 -2.260648882318526
Ni 3.6527034862534418 8.067248531473046 2.3787655779650354 0.14468317397440889 -0.43696412446686034 1.2661940020519418
Ni 9.042035485487379 2.033933915362286 11.840853575499322 0.1204394709356958 -1.533618812732662 1.6528321245707407
Ni 4.15283108280337 1.1267952041002867 10.961985363678187 0.6252359816654973 0.4228927339754588 0.6470597624088082
P 7.51985105371886 2.4558564861192487 13.418833433347322 -0.5514286087660438 3.691667823400074 1.220986295167052
P 5.702547981769823 3.3531359160772296 10.468963801712484 -1.5005971063910029 -0.3259186931515548 1.3918921502834158
P 0.038540741227534925 5.991568194604547 13.545613799675909 0.7440572002714799 2.303134305176246 -0.4790525689964783
P 5.991653025896838 2.3512689284238473 3.2471759765865458 0.37225434299330085 -1.0285911598286608 -0.5228744512774349
P 4.499480020200972 7.243442426338033 11.61807057825516 0.6709951901784831 -0.584733907786393 0.5793682725991054
P 6.542029024580344 9.452845156954247 11.363834022969405 -1.4091481091503861 -0.4454029992628329 0.07989574518537854
P 8.027604040875815 0.7325003001026056 8.012322154854587 -1.009828277398861 -0.20266617824709615 0.18418971670946344
P 3.853301215423732 4.828983610856691 0.9774440586028635 -2.5120850308804736 -0.591814211671942 0.9752184006344752
Ni 1.6779441101135544 7.876990794263088 6.580394447803812 1.8424934059177365 -0.7285539624295582 1.6337609668719024
Ni 1.1068692761110943 3.2733567985273124 7.710160632274105 -0.06243101274171183 -0.21412198549252157 -0.2246874197131937
Ni 3.9516112574896147 8.47721931571615 9.845229471735557 -0.6751611486307145 0.7442978555273763 0.7147381395923884
Ni 4.1920608426382895 6.9421970817142915 0.252429648759963 0.00041034806454122875 1.4512003011254297 -0.8141138478792497
Ni 6.784787906019157 7.355504563454168 0.08664102652632763 -0.5551214842365988 0.7087158446577085 0.22111075810552885
Ni 5.087671923847885 0.06676034189302364 13.353774430149688 0.03459599280731461 -0.3670036361173228 -0.966390003709568
Ni 2.7368837060803517 1.1388789504021528 6.095497838499737 0.8116944398044796 0.5230140621790929 -0.1629601179067258
Ni 6.672782323097883 1.0052602393450139 1.4556701006231387 2.526984059479493 0.9553597140373353 0.5608316472474987
Ni 7.158092720594354 3.966183388365344 1.4782663291796623 -0.556647433962822 -0.6798580398857517 -0.08522281382524678
Ni 2.5119959502174654 5.4756714033876746 13.062399677668935 -0.5600698293808096 -0.2917754716109427 -0.21198642720675753
Ni 7.788992467060108 6.999052898947409 9.832123037076629 0.5405597843723401 0.7927721489786798 0.5174545658134443
Ni 3.677012364344325 3.370582885191702 11.853890259984588 1.0287305136200025 0.05063556276868054 0.3596708499013354
Ni 5.921337310286916 7.834603425215124 5.378134268651553 -1.3114909262165284 0.5559653202941328 0.17245083100598044
Ni 9.363536657570332 2.915896584212207 9.924773889376803 -0.6099137494861302 2.200366797599017 -2.366473945775157
Ni 3.1032606317851337 2.781646351312459 1.0399722615804912 1.220932044890349 -0.2950307453234467 1.3155404136955535
Ni 4.522836902678369 0.9213620912694218 1.7635841273908504 -1.6989014081249774 0.19677989466964818 0.8264266038083316
Ni 8.860930102145684 8.24554505647 0.9902959993849184 -0.23711716083611425 1.2138964781998063 -0.121089702925185
Ni 0.12795575101177142 5.696327020335165 8.777860473024798 0.5988022129540009 -0.4543113574960563 -0.2943859126505962
Ni 1.7196151260266193 8.263708378719373 9.233511023026665 0.07717551804073805 -1.3292559635094334 -0.30194932682015097
Ni 2.3904515597630493 7.4082224987633225 11.534510812778818 -0.16348308028973135 0.7385018176708894 0.7985892698810891
Ni 0.660298502094085 5.902193715326627 11.164488969215276 0.006664813614685296 0.1592397316323451 -0.4217287955743447
Ni 7.415951572060928 7.606256437766601 3.6408714061187055 1.2970564959587532 -1.1302479508402148 -0.5614651670664395
Ni 7.425895684657236 6.078105538440297 7.733363875855465 -0.5105714655403658 -0.2208027399468068 -1.001354435599895
Ni 1.4274184525805622 6.824121348544654 4.506136448936056 -0.2623617943355159 0.2070519660196176 -1.1472056617404758
P 7.667975915757723 5.028158059456324 3.401216407407821 -2.083966786840018 1.4861189673794857 -1.9014449447512798
P 1.4115078724264674 4.958370182998432 5.826293272974228 1.3458256949426564 -0.8782140207932682 0.8437452975924372
P 5.6823392828063275 8.498841869551159 1.633244617065708 0.6961130682920333 -1.037489490759555 -0.1515228226040616
P 3.8523115170136726 3.2731023046504397 5.453126073606526 -1.07307767227681 -0.41207378898308383 -0.3388919654827712
P 1.5651467684642328 1.7831726153507084 2.470519103706755 -0.5988590343338653 1.1829298546149627 1.1486832747272668
P 3.8839064605424203 5.952281880574768 3.656074116267129 -0.7029568306867442 0.23040478181294513 -0.6068430809806065
P 1.891964034864076 4.06229724253081 11.16041989489506 -2.020808409013978 0.30245660547387265 -0.6576537358745705
P 2.792212560052234 1.1707566649052032 13.278492313661095 1.7661293280347004 1.6880043015964994 -3.5719642021891387
