# total energy = -340860.7912088693 ev
CRYSTAL
PRIMVEC
9.40915382592495 0.00000000000000 0.00000000000000
0.00000000000000 9.40915382592495 0.00000000000000
0.00000000000000 0.00000000000000 13.77124771608827
PRIMCOORD
 96 1
Ni 7.683261018459344 7.019972124220528 1.0838799549000633 -1.1432078534349923 -1.1339179434926343 1.1342740412804724
Ni 0.4341637651458767 3.2871349568303927 9.831210895661938 0.8182234991722488 -2.1310020338519493 1.839431479162961
Ni 6.697812104221055 2.401648893506978 12.464687227258727 0.2007172820508414 1.3820885339294326 -0.5174288547818314
Ni 2.8431358031245275 2.2674743590523363 9.701830325113653 0.6521813999060897 0.6359240575069629 -0.1969876398050801
Ni 7.402002590414592 5.2046076095262235 2.5787621017332722 0.7065584319950735 0.5356186383169808 0.11678927577761823
Ni 2.6468608530036413 6.15493215229753 7.26292870953004 0.3484739527442514 -0.0800258430053396 1.4382571107012003
Ni 3.9213119289371847 8.959170513245654 6.582077629557732 -0.47962978165618686 -0.5743201686522368 0.2530842256883319
Ni 5.41608775233145 5.831210212752512 1.2556901639946154 0.9252227854426388 0.7330230539445054 1.462767951358371
Ni 8.783576883372406 0.8436557878798658 6.503843337718321 0.5411917615293841 -1.3822042335716904 0.07532792330903801
Ni 2.0876466099291164 1.9497554596883888 4.595754434195814 1.3087683850790428 0.5300213467348613 0.42815449659503035
Ni 7.6893299227176355 0.06911023531341826 4.569465258230438 -0.5761857611060658 0.9864770042674301 -1.9011443827917258
Ni 4.915238490829305 4.224305502465121 6.707464955195601 1.0725511103493786 -0.08579822671274256 -1.839590887558961
Ni 8.848829365591406 8.241854257377208 13.511425488098043 -0.03410876875825093 0.769408791662391 -2.529149185451612
Ni 2.300528716663778 3.0738670747862895 13.459342998577231 -1.5684485188173374 -0.29805899062680924 0.5850437257173279
Ni 1.6245092372133816 5.289017129062871 13.177679035999871 -1.0313399262183915 0.005467193762158326 -1.3359184631312733
Ni 5.072154950233237 0.5967426533601029 9.286352198675594 0.23213179180638085 -1.3518382196853236 -0.9469936014608272
Ni 0.057345970206220585 3.5225049413593448 12.592181262452304 -0.0964806461272532 -0.408453161511361 0.5451772285396933
Ni 3.7492843683878005 6.329039135856344 10.631761467746319 -0.356416861740412 -0.6087729510134677 1.1864941749274533
Ni 5.291397644996743 0.4925513286875902 11.724234802893047 0.29210920080127756 -0.3678983800174503 0.4869335144064518
Ni 3.799792706463012 6.78776361539822 3.5024690890684815 1.8728434789645034 -0.7818724713470405 -1.5795443716201831
Ni 7.823071636093391 4.40886605599442 11.352947708609243 0.41490277379144674 -0.19389023182667897 -0.41090573681691167
Ni 1.7508929922480765 7.467970168329143 12.224874240263471 -0.7353740706751851 0.580015162154485 -0.6148222425313412
Ni 4.3363308886654695 4.691846359200826 8.814824683437193 -0.20748828222608784 -0.6906661862448492 0.7642982099087031
Ni 6.898669312285798 4.340997828994327 0.23699776815171936 -0.5049901147978465 -0.5691908178454713 -1.1085948913468133
P 3.271591034606054 8.571974421566624 10.824944569899339 -0.24359839768508373 0.0004576563627088892 -1.4764436490732507
P 0.9126060675771741 2.063192218972061 1.2990776544067644 1.1298386312169382 -0.15907106726496473 0.629159999310252
P 7.525714145744861 4.954738118854592 5.824356585059892 -0.09334955669743923 -0.5484893236320617 0.5325870505795086
P 6.410277770532457 8.100528765967058 8.26868445969119 -0.20777624578015183 0.9152389347570495 -0.1766144754653668
P 8.00203374305884 4.168735039597722 9.140486790514087 -2.1045276417105048 0.6664785332550522 1.1831399137432397
P 5.290343819761195 2.3412985804640556 10.402786885115601 -0.2413365982341005 1.678582751172283 1.1134118531194825
P 8.652742598548297 5.570077964875956 13.665553074289328 1.471937276562465 -1.7061907426975391 -0.912202719033887
P 1.5532443056594225 2.3408939868468366 11.47047180434222 -1.1879319358152443 0.77076633413155 -0.018823046243774032
Ni 8.808671096793903 3.6689960582544585 1.3561949821734867 1.488273294718327 -0.08071001355655777 -1.0133118650720871
Ni 1.4846986195793335 2.3255288385463855 7.558941631787857 0.04737591818080228 0.2653105925511947 -0.503665482449152
Ni 7.725207026495724 1.4327694992669096 10.282880391617972 -0.09697275527232331 0.6165970750435767 0.44831425937235697
Ni 1.3831550308111362 4.655969255422737 6.031586613053537 -0.30058587081372107 -1.6458271540078173 -0.8831780496667628
Ni 3.448351399561517 3.83928292533441 11.32924793179407 0.6016985606651896 0.8441975546385073 0.6104979041243743
Ni 5.523709654511829 0.990821541108808 2.3314998876042337 -1.3147598267757872 -1.5802635091743944 -0.14987371703641283
Ni 3.755174498722205 7.762344956894916 8.802141143995057 0.29816929095242845 0.27311594752822643 0.21257495272037585
Ni 3.9877405553922878 1.9885399920181248 7.481189088627553 0.5755936360480216 -0.2584048665702969 0.8520016240639585
Ni 4.791197615112928 1.8018435605560628 4.88680967326961 0.8102767335213465 -1.0562030080086584 0.4132449264730496
Ni 6.195240967557255 6.421248843966827 5.029659447609748 0.32159846850964613 1.344243695167517 -0.32378544885863597
Ni 8.421277412883207 2.2542168612229823 8.160304179707373 0.7365282388842864 -0.1170723542356758 0.42492210570066175
Ni 2.920281455859002 0.9404581040034844 12.0919125457451 0.37584386011677207 -1.5359317771365548 0.5991912208623035
Ni 3.3422820077727944 6.259260850616819 0.5369822942660099 -1.5537096699452662 0.7411451688310075 -1.1424496351127293
Ni 2.6413470888247903 0.3444465419005432 8.603160121215746 0.04579880350166951 0.3978509605154826 1.0132108207178485
Ni 0.3535179071647592 4.814729908988879 8.264607473311163 1.4464630435507606 1.8826031294544288 -2.268016378427191
Ni 1.4851502589659973 8.373177818203535 7.376747480461598 -1.0472938784444865 -0.3966517980010588 -0.906838112287864
Ni 4.110125420024232 7.898119047510659 12.620205486394779 -0.011418269139270657 -0.47293102947977256 0.8796368692827239
Ni 6.254998503905181 3.001924684152335 8.486696437126039 -1.2805111900055626 -0.07030964415884021 0.5418229673554797
Ni 2.1344195139104647 6.605433031340573 4.936592565579994 -2.887877983154652 0.4663420634083452 0.29239536458312865
Ni 9.039007183992334 3.1116071910343654 5.96213764820012 -0.9848651796956199 0.8445407969105391 0.1968824816857835
Ni 5.9729026611643246 0.7694090954585381 6.945225805727703 1.5859721295233977 -0.4351802930935602 -0.30064166375232093
Ni 1.1985474315123934 5.547270175849445 1.6562124403263878 -0.11573460926085875 0.021916083346800966 0.22337615710093786
Ni 6.8597530518016185 2.7363607247941433 2.312977027258693 2.387966311320978 -0.18447845159447585 0.8737035345174242
Ni 7.32716218038288 6.064096180654815 8.011588738832941 -0.49080662420861276 -1.9697768963584592 -0.48368543978279915
P 7.425854795522763 0.4487677128967217 12.41753419346027 -0.031880136538048325 -1.4685107673794193 -0.5642481291282153
P 3.505003915126131 4.849920144533083 2.073137694632549 0.2334119440703851 -0.0487260044507935 1.2136925897191162
P 4.094496815414894 6.734724214926914 5.626463260470128 1.2323860523635615 0.6769197831930341 0.8744434980072425
P 0.3866240151225893 6.612433441833859 6.456498357180531 -0.42688617140556806 0.059797688883922825 0.9113645394033079
P 9.040926651385654 -0.031973245829615596 8.766900099019853 0.20474105849825386 0.9351410729976153 -0.22833324399589708
P 0.34456980181648683 7.451974606718141 1.6304746407788964 0.7485759140774398 2.4876654643855285 0.8824895082401706
P 3.159330419558485 3.201069426209312 6.064651320734256 -1.2618444668339945 0.5456793649870925 0.0645125778610889
P 0.8879192705190644 5.1075333688552185 3.8266445498309407 -1.3253275749893045 0.4410825175106081 0.8866436396178601
Ni 8.838563978698698 1.3511733167430209 13.73366593929053 -0.9796360700861967 1.010499849544589 -0.039947229816898945
Ni 5.4466110475467975 8.795037232808994 4.605848574487745 -0.049385235301347204 -1.0344406766309022 -0.21893663327234553
Ni 5.174874683237537 6.4745422915931305 7.494574550949796 -0.9970984885370183 0.6519088629709934 -0.8026675537155209
Ni 6.040657978317752 8.23406347795726 13.820686499031327 0.13710253341367354 1.5924621081231154 0.32478457954711165
Ni 3.21669803081865 1.8007332803971814 1.6758643991385873 -0.6860453996433862 -1.4037791315289887 0.4461725304390058
Ni 0.8977621864021641 5.396319120011029 10.766995472928842 -0.9594459682915668 1.4303540538040398 1.1093405112635863
Ni 9.010920859634192 7.52531896128153 3.9206194152109672 0.17842324653933142 -0.741790258614174 -0.7667111902255699
Ni 0.43594397706164234 0.7437296326651573 3.7030336724472823 -2.670915185779226 0.8980472534691113 -1.2135002712026521
Ni 7.406650712435671 8.561323259364475 10.30886659282813 -0.15357096338234197 -0.9068270565442706 -0.4169419157086625
Ni 4.426536446997633 2.520778190893389 13.283015454700655 1.3149686003524836 -0.7602260967218585 -0.6568081000448237
Ni 6.081305523117475 4.348826245029829 4.123276594414643 0.3645644305482109 -2.049770600574283 1.0041939619312188
Ni 4.999902057520951 3.3600747177765626 1.5096865095618857 -1.1261542403868154 1.2041864500008939 0.40183025687820473
Ni 1.8443258903641069 3.606952097511548 2.7783904743001346 0.06992063625053764 -1.8489666723469058 -0.8509284456044378
Ni 3.894119474198481 3.706839675195312 4.135354184346339 -0.7822442528641624 1.6987813376073455 -1.403363898368441
Ni 7.924144767167148 8.04174037246968 6.269980699642357 -0.20934873247359426 -1.5785853501410232 1.5957019552166518
Ni 1.3000627928189243 9.42166806349695 0.24111427297808022 2.1641736355079115 -0.0804459612618937 1.2380766749904355
Ni 0.4101365497753736 0.19679715816171536 11.564473956268523 -0.27798741668791477 0.23388811237585527 -0.2896039178809206
Ni 9.095603244633615 7.121901488298167 8.707091753240928 1.4329801785729774 1.6308774746765202 0.7318791701480492
Ni 8.799356034443965 3.3324118053434177 3.6082731427175387 0.3566678014089535 0.10385405577318889 1.145208428804789
Ni 6.019882566531226 5.277387414856284 10.34511253543866 -0.37046742629620716 0.21374994686508347 -0.49684717397573785
Ni 6.915662244209016 6.4455056426922175 12.358813545870891 0.7602996302722712 0.35694805165353366 0.023857523343887944
Ni 3.4614018960053166 8.279199189161952 1.7273550528797923 0.445427167632549 1.854181640888942 -0.9932572604140572
Ni 8.068998691285605 9.379166915381127 1.9720429225048481 -0.22920484796757298 -0.40341379931524074 0.4096263558838558
Ni 1.8756677819677823 8.54351173105293 3.5707607279935725 0.3924745266949176 -1.1857629531883838 -0.6105711805644711
P 4.453578355274116 0.42371301792155897 0.31528192850674186 -0.024936101120047377 -0.06747911668858056 -0.30638910775905936
P 4.933097064910294 5.60104349032408 12.886652024387741 -0.23887245296432405 0.1370318280767382 -1.5473045377498709
P 3.6830251067026967 0.19618650407433064 3.6677794546566336 0.7354928556412366 1.065309855405933 -0.6030175365869292
P 2.386782430362635 5.051887632756707 9.370604585342297 -0.27107603428006216 -0.08696782154081151 -0.42702758207943875
P 7.1924513241565755 2.1289904321166127 5.060479131172594 -0.3400926706590917 -0.11606473890676786 -0.2798450387219439
P 6.769359310391678 7.563708309147936 2.933096723455581 -0.28525798220739906 0.4687771552123991 1.8310635668142399
P 8.932984837973056 7.388820365816349 11.390722638726707 0.8985948984424653 -0.9355455075248855 -0.31697253970186057
P 1.2750156251668727 0.17507048091702998 5.600821434292303 0.21498998991977167 0.008129571085669871 0.1228442237224465
