# total energy = -340866.07628166827 ev
CRYSTAL
PRIMVEC
9.30122533963703 0.00000000000000 0.00000000000000
0.00000000000000 9.30122533963703 0.00000000000000
0.00000000000000 0.00000000000000 13.61328346682645
PRIMCOORD
 96 1
Ni 8.89778489300764 6.800460844671669 4.163091828744068 0.6459822130739133 0.8574163673216266 -0.4606532405536841
Ni 3.1623050727337065 3.756867313649141 4.500157081252339 -0.23442675848814468 -0.31949890566814004 -0.2001732366219133
Ni 0.8334763107936649 5.901515997590104 11.686445783507498 -0.42761302226926357 0.3817679389106909 0.8054461449019226
Ni 0.9787307598605746 1.9832259144982363 13.173152745503947 -1.59450664935697 1.575513653194235 1.4057748218027788
Ni 3.238770447990903 8.29821859274561 3.3055504570815364 -0.24278644330674964 -0.038344918326785576 -0.002479571888744117
Ni 8.949081151923034 7.208766043922419 6.54733636239617 -0.2936611186694298 0.4720018327972839 -0.06022603467059306
Ni 7.69708038536541 8.10523676500734 10.709924064715358 1.4644319693243555 -0.4606372997140842 -1.030121223319942
Ni 5.854851748999256 1.1241368189039702 7.387834168358507 0.4839132395228892 0.30526630700852586 0.15240265410585369
Ni 2.2930125327096698 0.4631470853462967 1.107278347592248 0.0006265778404053725 -0.27506921459985534 0.3998697907177242
Ni 6.904495052462904 5.939576612546003 3.33965154032025 -0.26952488774285843 -0.4185138881814728 -0.7543153876643783
Ni 7.862446874441885 9.043032831216665 8.341212577733916 0.02007954435869445 -0.6423014217882165 -1.4351895275194704
Ni 5.958495305317337 4.332371343409972 12.9524681475837 0.383431699766359 -0.1891912836891129 -1.6952321868035063
Ni 5.002236306388691 5.626832204609258 4.931875325460809 0.7193553266494256 -0.3780655503584392 -0.2355973817574781
Ni 6.301543106100201 1.8392243405130861 11.995917090172743 -1.8094462456547804 -0.41057097918531227 -1.7570875295474062
Ni 7.270470374229712 1.835941007893479 0.4301156430459826 2.3594399217465107 -1.359263565615117 0.4830483204194326
Ni 3.829695909715782 8.820919565051739 6.623665939760318 0.9783721157721087 -0.7329232951418474 2.3606524539973734
Ni 0.049120702258944375 0.7024666886585637 6.29568054363522 -0.6944333665967654 0.768646973795702 0.6736349417941753
Ni 8.25497719515764 4.27167154546222 13.466437129342271 -0.7751289819756199 -0.0904822624519732 -0.3231539859222241
Ni 8.0679481517722 1.4391507258752316 9.870978633297531 0.11449353776490605 0.38381942212308096 1.6302791789708893
Ni 0.7145387493015896 8.731134834805088 11.57969096724251 0.21082326013659178 -0.8343026641222986 0.30898669328290657
Ni 6.815259094523779 3.577409467862454 9.19435726007835 0.8591955707092364 -0.18966796621521528 1.586524659592758
Ni 2.424782995094867 1.3878916718620444 4.729336488468584 0.9185736555572375 1.5681618408148539 -1.1496723781134137
Ni 4.682664798897295 6.6290485589868515 2.264868884436561 0.11003575910386855 -0.20648015267654762 -0.35135821627058195
Ni 9.248673626930248 1.8428053123503347 4.065566618593628 0.5433034085557482 -0.8384717078983237 0.12994843886739557
P 5.7783212651632 4.941964364816299 10.651768151955885 0.1573366010723613 -2.008837866915663 0.506386995145373
P 1.7248471699088108 3.914234748751502 11.044851895591941 -0.49611081003034563 0.6603562224073982 -1.4295454418598155
P 5.581525934948899 2.8880956422559767 0.8918740554174709 -4.043475982723882 -0.22169362719219238 -0.2909498903858538
P 8.26971033643089 2.025109333155718 7.8463836579147985 0.1794365182951942 0.6632481992432125 -1.135428723710206
P 5.1342206969615685 8.690386165664865 1.753921870859604 -0.4626142209347968 0.08919388265785284 -2.163316686824255
P 2.4793904903065207 1.0889037765156646 6.843275316006835 -1.146772173747483 0.29361740991568785 0.03425352186623133
P 0.3143572404473398 8.284955045109465 9.504672187901098 1.327647481371733 0.3253725908400977 -0.8528554874238214
P 8.841642695580026 5.157399351035396 1.8845547933598779 -2.057247882787934 0.3396969778825698 0.4452857569586782
Ni 2.2496874240917375 5.983320276313744 9.639852479573399 0.17801418402637084 -0.18314867703945875 -1.0071129353502268
Ni 1.5077007581882762 4.902582975832115 2.5820313745101715 1.0340128450648645 -0.12881998168990716 1.8187364127074548
Ni 4.062831128158993 4.806678039172712 6.982566749372809 -1.4782048547387316 -0.7020569445802942 -0.22255109009648122
Ni 0.943823260366564 5.094625379789705 5.221824289816441 0.3014194224586099 0.49310930419986043 -0.09763789966014798
Ni 5.31543647437745 5.683699897629875 8.634647641426174 -0.4780063871201509 -0.1293750828624288 1.5311796071635502
Ni 4.087730508959809 5.01874598174224 0.3835639392843059 1.4037135683983761 -0.9488496808329595 2.3088712076600237
Ni 1.0849972617841206 4.491952470193541 0.4120824269471317 3.2250966747000587 2.008079905703716 -3.1630587836317074
Ni 5.400514784495146 6.961316239355766 10.748381842002297 -1.000568963584122 2.1437981571753535 -0.10379903416553736
Ni 4.717023526083779 7.75403178941599 13.199453820995345 0.8490284003682474 0.2926735579451798 1.0652252661119268
Ni 8.634448595199377 3.6677708740932857 6.229547899842958 1.4800367657411477 -1.960027273170863 -0.22054305852751696
Ni 2.813574223139001 0.13658198636288213 10.335994334857084 0.6175985197248975 -0.5163479630128269 -0.6475822105711816
Ni 3.752319014354558 4.858523070395631 11.56105410160538 -0.37793982341385235 2.8125803988629174 -0.2873704005647115
Ni 1.6850658282259217 3.242611854143588 6.4902696231487536 0.42291510257296194 -1.870967087877397 0.11443620216440936
Ni 7.040869621495992 1.6121814248059738 3.0538267393740623 -0.5694011340840646 -0.5692730931466325 0.6545928375610598
Ni 0.29759736212646126 2.937633969542174 1.61682273635607 -2.225890395791418 -2.002957496875486 1.6175694447137046
Ni 6.147747341609538 3.8455824029573935 7.11051719842409 -0.37014321018756896 -0.28716188409833127 -1.785305900963151
Ni 2.7981527911749535 6.557103579347585 5.807385734765887 0.17001111121623624 0.8791997817453052 -0.46553293724348854
Ni 1.7099187028989822 8.208210633085729 7.373893491502226 -0.6094828325962988 -0.2754399676757127 2.605500150708526
Ni 1.7070074193014269 7.108880182727061 0.8517271755704161 -1.398153300701779 1.847421182236657 1.7793769370732258
Ni 8.750211648410794 4.00593553146172 11.166690509333465 1.0339917620189418 -2.3762935029687395 -1.3843225654662739
Ni 2.587498634889223 3.1519900135973202 9.128155787217008 2.4265333729608987 -0.007240483612497207 0.032172985188118786
Ni 6.140120336657476 8.501152731823765 3.5735550399939973 1.3008154487805532 -0.2783219172091981 0.3516153265867106
Ni 9.218779488008385 0.2302471879095337 0.148733107423094 -0.9452303389128173 -2.1642373988663115 0.71342173477381
Ni 4.915316353611839 4.262742368932977 2.752619571611144 -0.10645241262798441 -0.14689432269311475 -0.5741427625341079
P 3.5783023855153786 7.799245046820835 8.947166959704576 0.22449175876261984 -0.047746671256659705 0.0036833623888581726
P 8.362685387041637 9.049646002583637 4.503805021913557 0.21556411725568683 0.20964955154346473 -0.3799529971891392
P 3.1538781623842334 5.751543036801022 3.723736348235428 -0.07741051686967959 1.095407960342894 -0.6893145573129612
P 7.143424934424572 6.945699481655142 8.639766105847052 0.031427365271345875 0.6724242093155258 0.6856857023111224
P 8.35782084607831 7.1497683702505554 12.827253188967056 0.34730487213681477 1.3332877103766456 0.6937129434909731
P 4.8715912922952 2.446659477591513 8.637805407500839 -0.9195205928515391 0.7079188026777099 0.2890367325235409
P 5.373578435298596 2.870386108806311 4.284685820253593 0.33514972483151956 -1.0677454614306192 0.8433007538558508
P 2.5905308344189453 5.9376419576313335 13.157974075526788 -0.9459628462034677 -1.646887219841215 -0.7948352021552956
Ni 7.136095568690152 3.6368722028118836 1.939770588722586 1.0062816976981832 2.0178328713254214 0.9820076556421669
Ni 8.396941800747056 8.643870736682837 2.2753922910252964 -1.1082534488469946 0.37634471101259054 0.08028141065957141
Ni 4.647255033223515 3.0651816755270835 10.702750029447643 0.6441533873952906 -1.8044032839142343 -0.6882046120782341
Ni 1.5768646713877061 8.743998429742529 5.137203599995869 -0.9513986725070583 -2.7770390114231978 -1.7066429997436092
Ni 2.9454656014563647 7.249365893453822 11.77819958320336 -0.18288848139953665 2.572545550159376 -2.91227081017672
Ni 1.1450087690410764 1.6960598768275525 10.953846844552961 -0.6634343471120896 1.3534613571110432 -1.8309409251934465
Ni 4.497914555771922 1.1352796871144217 13.405667572202885 0.92113833096062 -0.9555836571226832 0.7815958206468862
Ni 1.2660735208167329 1.2715984487942023 8.49526040543702 -1.7190128341628717 -0.48117115800137783 0.7659342028502293
Ni 8.440806380446965 3.980208341586838 3.8936037003561745 0.14163384562512382 1.0670592339968719 -0.29285893448310857
Ni 8.075082191770042 5.209262984709416 7.554978121637834 -1.6159956724686813 1.4076177885487886 0.38014377304370656
Ni 0.49009738638117417 3.856325318469139 8.853916592817514 -1.2977239543394232 0.04357248527431205 -0.824286160426561
Ni 4.961394624992955 0.7655866654947623 5.047233775360746 0.9453987461698816 -0.6144496896832707 -1.998637015123261
Ni 6.811324676115581 6.107110287175929 0.8277151316871927 0.5482700085324042 0.43824607650307756 -0.1668625382849255
Ni 6.961102311168086 8.682294099435238 0.17799941362024393 -0.8748124513108869 -0.21531523446967435 0.038090636224134396
Ni 4.412761835849816 1.2083408138198446 2.726564048474301 -0.30216067150000864 0.5762883481222011 -0.44393129981331286
Ni 6.0485776747816296 6.873131319903937 6.830234067661364 -0.007922340170870228 -0.1782378700014027 -1.594360867807725
Ni 8.978203289124139 6.052874840986329 9.381867176824793 1.2096317893861814 1.3272749285236625 1.6143187989868908
Ni 5.435822236687862 9.188150552267972 9.231943512531133 -0.701844828569488 -0.7832994336015543 1.7243985239548172
Ni 4.190062592475158 2.3693848957113537 6.239417430275437 -0.7133152911029328 2.0973856313490846 1.861213093814427
Ni 7.5952226643531775 5.829757042461862 11.353437725584701 -0.9512793733203746 0.03495723280147528 0.9134147370641172
Ni 6.886441373667841 8.952950461752373 6.021822699483329 0.3588077305700917 -1.273018481172943 -0.46397562005869775
Ni 7.161394902189674 2.091408468885349 5.731587257380718 -0.7309795411519153 -0.7022482346554938 -1.8208046080903932
Ni 2.860452399917528 3.0377244576996607 12.608228859807713 1.3922598180354797 0.4578687358300114 -1.4321414847217657
Ni 3.246667188483953 2.7923767301075992 1.1014818238286808 0.04888104197141904 0.1872382737278001 2.487571104899509
P 2.6283403162849597 0.8860040519720487 12.407064743951969 0.17667772460313444 -1.765499150649869 0.0014177062831330423
P 1.017581978988334 8.090922178883897 2.802621099929796 1.7330862815368024 0.04600037798951433 0.5683071296889374
P 8.314998003640147 2.0464928506981455 12.002205648767974 2.302933244909034 -0.011412612712315829 0.8750302237486479
P 6.088182293179044 8.969460137105923 11.570433457451305 -2.6160295894849397 0.9171757467684463 1.5504880776841747
P 7.2892588498433275 5.287737424685693 5.444346809905625 0.24545859082227403 0.47161359621992976 -0.2592391895461342
P 1.9216611025742145 5.124268385621682 7.32329296425807 -0.2400194220845737 0.8948868534632588 1.118623479227409
P 4.79703266827602 7.805197831173664 5.107676859483282 0.49542124016248873 -0.7014673906254113 -0.319252851095605
P 1.7834913970097261 2.1137221089829064 2.7921386187334862 1.4835506924316773 -0.27974605125023433 0.13138105754886403
