# total energy = -340860.01834393374 ev
CRYSTAL
PRIMVEC
9.30955705419204 0.00000000000000 0.00000000000000

0.00000000000000 9.30955705419204 0.00000000000000

0.00000000000000 0.00000000000000 13.62547777326155

PRIMCOORD
 96 1
Ni 0.816868933616659 7.850097679344004 8.858291040990109 0.055767484678607177 1.4970610682132863 2.050604152219172
Ni 9.107241626337416 5.466525274032473 8.994804521713476 4.225865927220444 1.7131584322646236 -1.8190405742114348
Ni 5.76841558574549 7.14289718812409 10.858292944107937 -0.5373111955280553 -0.45798597813416614 1.2716213437151005
Ni 5.51776507530509 5.73667930621454 1.4347628453292645 -0.07034872492689173 0.3975272586274767 0.8134828991634699
Ni 8.033179425678904 8.368155902675875 4.489799145722409 0.21714688836177443 -1.347132329569222 0.9472309142826139
Ni 4.882527459055624 7.851615137121517 6.778743628792724 1.0038630609543615 -1.6884218487498923 -2.8095351842786904
Ni 3.459552374694998 8.88852289612323 8.270255671178242 -2.0749735822024715 -0.988690209868665 2.533011753730812
Ni 6.44752914374602 9.067713247666717 3.1154516009634166 0.3291857939386008 1.2655892785884075 -0.2047117479222152
Ni 0.3339421852234631 2.895188415256657 0.5875754777001536 -0.656224973847844 0.34159136669180523 -0.3132056164602606
Ni 6.441533789091301 1.558326732380718 5.570953366840492 0.6331637211530062 -1.8330104061279657 -2.2718167260098876
Ni 6.035655726612453 6.330200797917749 5.169955374097672 3.5835300526498672 2.6414984231800056 -2.120058133245936
Ni 1.583779060992516 6.127019718198476 3.1989350526189764 -1.1405547320828615 -0.09691284856866536 2.025097009087003
Ni -0.05196780862354766 5.567487418800194 1.735504357718691 0.6939769957856371 -2.5041557487310677 -0.01005841267726655
Ni 2.4726834841235754 5.0203740683295415 1.1352771921679765 -1.2260074025307273 -1.5828168717238678 -1.6184137949918707
Ni 5.24391514902687 8.757295381817485 1.3030326149499876 -2.117063055173354 -2.7916505906887856 -0.9905326623940424
Ni 4.664748994090082 2.9116104736587096 5.733273870294203 -1.1700871943243396 1.053502835468676 -0.25567101257890157
Ni 3.1192415215844354 7.338891289903236 4.70241080659887 -1.768021917071723 -1.6144118729213293 0.44793862120049305
Ni 5.683205211281778 7.770082037640124 8.821433574198972 0.17305452602825033 0.5112600069669582 -1.2216085021320833
Ni 2.6516317871872124 8.55024152642063 10.630965666612358 -0.196145603519759 -1.129914992980828 -0.31299889976609324
Ni 5.410816885439569 3.319843854037626 2.1317879908386086 -2.3426200219756947 1.5249441677767994 -0.9188004268560628
Ni 1.0678713453085311 1.5285547693593096 9.944595308994822 1.6658182524177634 -0.6238465575171385 -0.9252598093281613
Ni 8.816457616026694 7.97546948234879 13.20616692246453 -0.3427560764238678 0.652401743447012 1.162643850672417
Ni 5.982526085285631 4.724572206840415 12.01636272447645 -3.263301982125186 1.6460467262177911 0.48675867939148426
Ni 3.658879297850524 6.293549072334483 7.8780607954563875 0.7366099999648152 -0.7695183206570618 -0.16781924577124
P 7.34306197140217 -0.20452724164950964 0.8779796580886512 -0.5978635031898155 -0.056317957865438494 1.2401847224723739
P 7.437349163860214 2.8212984620043375 13.65885995381322 0.07865467368942583 0.4750560462425753 0.37089345809003216
P 8.337415745735072 7.197237071850156 10.366140424809734 0.8166255585575097 -0.9424972562523702 -0.9271187169137711
P 1.7111151805068445 5.646944487089037 5.474349025665741 0.8395826815743154 -1.1231745889332012 -0.6160219192663972
P 1.8287879799410538 2.192233081991016 7.899507221726687 -0.9281695267757886 -0.7588099331006222 0.5054783672881746
P 4.734263455591287 0.07819096854809517 10.208794017616915 -0.3354150626777643 -0.0839981973895263 0.668209657013546
P 1.2270275303660658 3.713973255686889 2.7545675580213933 -0.6378685828278434 1.3841053072491454 -0.1636733419236665
P 7.337755523959331 1.9012442614281144 10.275490476239264 -0.09576716499999637 0.7901635077112392 -0.11668463187895389
Ni 3.071166969663687 8.780895108602747 13.105870411016392 1.4414342228776014 0.1155353487658591 0.16578987404603707
Ni -0.02407916896650174 9.128104343389003 10.945373608556327 3.188395976844915 -0.35481917823598896 1.9642811633512107
Ni 6.827321827742696 3.7960556190264 5.097495368787843 0.4307592812077291 1.3082953020973662 -0.724604747973823
Ni 1.3686258910776419 0.16070436437287572 1.1914073036892328 0.5571385146666276 -0.5443704163676818 -0.5875186696203818
Ni 8.540969207731036 2.1474354941051446 6.175583952813072 1.0825601578459485 1.7656007092247399 3.1150570589414484
Ni 3.5053833233986853 4.593363311648505 3.295867090197215 2.4509012602823015 2.749628737731045 -1.96985917165962
Ni 1.9143148793399525 4.1033547833083475 9.634003354431238 -0.1330378764259967 0.20285695410166354 0.04401162969425968
Ni 7.521004842318743 5.002723148414411 0.32592293289493246 -0.6887612559126526 -0.5275836838276462 0.6285403634483819
Ni 5.575121255472349 3.375254336809178 9.868347244975359 -0.022502037757258023 0.011577420424954256 -0.5463002864005431
Ni 2.482449209329785 3.636350170110747 4.808022144091073 -1.2894388315124954 -0.9876221736154668 2.3112834166459417
Ni 4.305232525059203 5.419400296917286 5.505878633033129 -3.6486666372482 -2.5951956834587238 1.5812466990232703
Ni 4.464155971193807 6.595346288478327 13.017672599737931 -0.49180446934550787 0.25705735140346697 -0.023932599556197493
Ni 3.6849460572188617 3.863596454461146 7.894615049566665 2.187768649219032 0.8112540098329513 -0.9276013129771443
Ni 2.6930965536967038 2.8180680457540475 0.05304957913733367 0.5294135379475334 -0.4726615778684699 0.12299386192643334
Ni 2.949761037905655 2.4754577320849203 2.63048047387119 1.623787400598958 -1.5836589080091887 -0.7483447719032402
Ni 2.9747013408870036 1.312154118817522 11.681217744499275 -0.31124309341725104 -0.16434748517255568 -0.20405483106450664
Ni 1.6372624654821941 7.277485452476967 12.605201509050275 -0.9999760671951294 -1.958927098128149 0.057168735901508
Ni 3.2607188580560864 6.952367796255378 1.871364307546466 0.8160558020969687 1.0490232024307675 -1.1189548944248986
Ni 2.8059283835339355 5.697439523808273 11.314868991646819 1.4149999399454727 0.23210222412002607 0.12286016456204646
Ni 7.297510309406001 9.046319885870846 10.251604946056643 -3.53427825760259 0.5264914792047319 -0.695768283358105
Ni 1.19469543919241 8.674794088416697 3.8110868296250136 -1.2944743370538738 0.20717563608167547 0.0662393307442085
Ni 5.560831085604351 9.026388124510984 12.447664255940653 -0.3855058086865683 -1.820662168975258 -0.08082339920597048
Ni 0.7115126779839894 1.6525766866110925 2.6944250274687973 -1.6348313171179456 0.0757963783050243 2.274533610720418
Ni 0.08551852079767318 4.068341539742519 5.074100452254761 0.21698979395861986 1.1136743627522496 -0.8639022321562863
P 4.9551885507948645 7.132554270389011 3.1085439097308076 0.8329206961731075 0.6468237351386021 1.4468091140362696
P 6.646856066901545 7.011027314391055 12.74693392738146 0.4665958312903642 -0.945943562929758 1.6949200548797263
P 5.186028324115328 1.841877216966726 3.71281980158484 -0.676889444175731 -0.4891264082927125 0.48608633591480793
P 8.668202922119276 1.064650238615158 4.5641536458649 0.7658367580404165 -0.8923728287921534 -4.421309619577173
P 4.339445146730147 4.4115942128389385 13.693741001670823 0.03176777932990013 -0.1667622652616354 -0.42664731592188465
P 5.0408085457629355 5.440542300676391 9.714243356456823 -1.1637468539286087 0.12181578245793213 -0.6085181546901842
P 3.5645827958355634 0.8952972958661445 0.9640474427444428 0.5503186635313168 0.7330891312957504 0.7932683718888079
P 6.603603865463939 9.478525375311715 7.132133478416351 1.6572685630755395 -3.3460544800330694 1.231239597463944
Ni 0.3180787002364463 9.234382245156482 6.156671587935651 1.0069884939572207 0.098481735717682 0.8518776968915844
Ni 3.250515583674766 -0.25856456477576495 2.880453248568013 0.15014522553024465 1.3037953573444838 -1.4933177991207702
Ni 3.735450403495016 3.4193537079262546 11.544212719170678 0.4988297516234054 1.5004875773963318 -0.3287654185717306
Ni 6.183491490458596 5.112343181115188 7.15888076639534 -2.0163076929301464 -0.28964916929655926 1.6230965451795207
Ni 7.993595189666701 7.551754308816464 8.051307925863892 -0.9658919810272267 1.0388534609866173 -0.3899710435467736
Ni 6.572845089409301 2.0737224224342534 7.953763319440498 -0.08868943221760854 1.9160444398320098 0.9605805961166425
Ni 4.632835832977702 0.7582131393037495 6.88684806562737 -0.6739707278670393 3.3336059698570715 -0.8967434470560235
Ni 5.78110451182372 1.4764491792933865 0.5184008150264281 0.3909082106490622 1.207807591693249 0.026040647038135797
Ni 5.572374936181758 1.8224016238958112 11.732680975137907 0.3141175867515687 1.097415477691226 -1.2039396240974105
Ni 7.964521443414087 7.283508735802436 1.969085795551288 -1.2075944472411784 1.424228400522276 0.5586025008066638
Ni 1.2101493036750672 7.129454187935562 6.820887062001484 0.6143836123320258 0.03435070956572794 -0.6695592290629049
Ni 8.78320387871823 0.9941675831945568 8.329526827203383 -0.32194222500231007 -1.0607340631097923 0.029414448606375147
Ni 7.868120981535825 0.8279435825254355 12.742792105508968 0.39099202861212023 1.425192049987126 -1.172791223519064
Ni 8.59694757347454 5.917405734649374 12.192090851802405 1.1154574227946017 0.49208729069324925 -1.3397414364217894
Ni 0.9483459440477864 3.0993004506676565 11.533734812860297 -0.5735843189274767 -1.9026639047600458 0.23798156571893853
Ni 3.44757097494248 2.1587931535442064 9.274522261716646 0.9764142207147893 -2.227046620883048 1.52135387932238
Ni 4.6630081069465525 8.854766442741234 4.64308565514361 2.3285910546864543 1.9039119182345339 0.3943254638607273
Ni 7.253708844110276 2.3289253062071946 2.734074430379422 2.1902664759402213 -0.9661768592574974 0.8951455064412842
Ni 8.213421757154041 5.906848697105196 6.386928582993093 1.1540805344834382 0.16055330823744607 -0.7803452360692367
Ni 1.5716952561139081 4.169983282165202 7.304537162967151 -1.8334330954876812 1.4692054794535987 -1.668695059744926
Ni 7.828034029450089 3.819199177522717 11.69931179932367 2.2062343121233874 -3.4095167622527733 -0.6832372407706296
Ni 7.205131576115996 5.320644517138955 9.743401819677384 -2.7193187738935944 -0.03421598376007656 1.183970380064335
Ni 2.75049928164855 1.1998250050538222 4.7226721262736024 -0.09541055299152601 0.4653334196381728 0.39294041058774265
Ni 8.788482397490318 3.2704101068069575 9.405748845066698 -0.476702837817379 -0.7042081865953421 -0.4897067062762147
P 1.3536561235546825 4.6816551494518315 12.607858456594464 0.13794714080215598 2.815956771534318 1.8818973616366557
P 1.125376478386467 7.33894714724474 1.2221614249654122 -0.0731478849385837 -0.3601930409533926 -0.11869780565424075
P 2.761968655770618 9.023129779589942 6.228736868032186 -1.0550935769945635 -1.3241042441051647 -0.23935350636580072
P 1.049848043116709 1.03545546812262 12.840731437145655 -0.6948714825754484 0.2745819905507916 -1.0698954178940865
P 7.8935081432492025 3.892539866916918 7.3022200142504445 0.976311376588338 0.5087830061813754 0.44471574338782116
P 2.289285212853487 6.434830908110872 9.382898537613277 -1.5043876837816865 -0.05848411227882185 0.670922942179651
P 7.140914252500713 4.70424944409003 2.5813055323228213 0.28953295543366914 -0.33900123736712584 0.3914797668818161
P 8.581977805951581 6.309626677130597 4.181904169797757 0.037043940127174914 -0.37301101865366726 -0.4178996516362416
