# total energy = -340891.66625645035 ev
CRYSTAL
PRIMVEC
9.05160766563604 0.00000000000000 0.00000000000000

0.00000000000000 9.05160766563604 0.00000000000000

0.00000000000000 0.00000000000000 13.24794276918181

PRIMCOORD
 96 1
Ni 6.513916831208102 2.0313436228375497 11.450475217559664 -0.557973094752781 0.34027496187322687 0.265907088484613
Ni 4.312194802838594 0.49472555759418313 6.151840769304815 0.9415240937058237 -1.1403289892253006 0.08719742105311434
Ni 2.8429469460919496 1.465491439687951 4.6141654763205935 -0.5889471745367922 0.3462419780899392 0.7882999721399392
Ni 3.2383664140653674 4.172057817530949 4.462503079348292 0.7354087805678625 -0.03424812254959263 0.6219087170644773
Ni 4.957855008172503 4.551818004753674 2.4565926628999306 -0.32240090980628344 0.3595921741446001 0.8988412101253165
Ni 7.2536232371198714 5.994426981009399 2.5581643698454934 -0.21448811058268868 -0.7450051660070459 0.2273657378763052
Ni 4.920109805438174 4.576012951254599 11.47425469528229 1.6242753959789702 -0.007666258296006152 -0.17097630334298294
Ni 5.5891141061801966 7.679800066937712 12.509369359332561 -1.2716000035588617 0.7586214712388999 0.5893246124808689
Ni 1.8502028561422532 6.937767397931766 0.2722542464851653 -0.1481140540328288 -1.7124146121200639 -1.1987372539608645
Ni 2.956716599129787 1.6747012408386799 0.5734356198044714 -0.16873687248950292 -0.904098601869514 -1.1860786846565894
Ni 0.42365595716520105 -0.204932011507505 4.977649063169968 0.5205010659492519 1.2537161812999054 -0.9344229638846681
Ni 8.651100899027067 2.2551174602471598 1.4038843896039253 0.26243969876130285 1.0394988078801 0.45886966629070003
Ni 7.079316433989183 0.6390851177400925 4.840427600596311 -1.322904824480425 -0.45865755027989397 -0.2968798827170436
Ni 0.9523829726853392 7.342446660245043 2.3757663348864564 -0.42680543876630367 -0.2897550987468042 0.5858685356114685
Ni 7.713879368687053 3.8671453716535873 3.880587008598546 0.12165997360635823 0.26613694510723196 -1.1004300961478337
Ni 7.652989205906758 3.915743451624957 12.91626717061231 0.11047387508255167 0.058305420609112486 -1.0542957636836165
Ni 7.97587814402162 8.784765985064917 7.0698439268761195 0.289016935029199 -0.521824669856682 -0.08423139644625492
Ni 6.913328058031841 0.44949105492163294 0.8702758422289613 -0.3119357486089015 0.5701315844921859 -1.7562485785858786
Ni 1.7791748931071747 6.38599951585042 9.175684088693064 0.580720929972258 0.7871316628634508 0.28714697169999576
Ni 0.579078391839143 5.016020637134325 1.1501099047260515 -1.1172947331136565 -0.47894766798749777 -0.3817586829393103
Ni 6.613918989435647 1.841983996649982 6.786006338439127 -1.118719381375325 0.9286544368320071 0.7284053526668358
Ni 3.326329934490357 4.195483377405396 0.38659596110880723 0.17462778405264118 0.20435076503837066 0.18016259782794133
Ni 5.896099370145367 5.671927262011462 4.6829359684775085 0.23750488319283608 -0.5384589359792533 0.9369087064209993
Ni 5.213571967992052 2.997865206235364 9.047840996515818 0.019658140550559693 0.05332287979285655 0.8597833248919063
P 0.1287057103596387 5.605470360698406 12.275662287994736 1.1678061115996468 0.5085377229397886 0.26930017332656203
P 3.808219407672657 6.131441161774275 12.704922095282916 0.643670020000969 0.9160724864019385 0.7468399052229395
P 2.562147982249181 8.665864070648096 1.3339616278287656 -0.7413446864363232 0.2799208862652018 0.01644143338547491
P 6.362076117570605 7.8431453735429155 5.887624350164515 -0.21836661970148846 -1.1091116830822318 0.12974532171765396
P 4.840799621659232 1.011634794531602 12.673418880991177 0.7998290558254613 -0.797803283644684 0.29176878674272333
P 4.159349360782988 6.327942506177043 8.152028759573646 -1.0684160051350826 -0.812057222460537 0.9163720199202282
P 4.972509560505087 0.9955138818050218 4.101099551872622 -0.26224840868610316 0.7352293175672047 -1.151136878474082
P 0.17873394429552236 5.496362285456296 3.3777349179072695 0.8221932824532744 0.225845701687353 0.832633761060308
Ni 1.4187127327980205 0.95319761734867 2.6604783085954242 -0.222756521239068 -0.5639118288347191 -1.286558938861539
Ni 1.7937841874029075 6.463083004216259 4.712385373056919 0.6024017573798013 -0.06308510138594296 -0.48675559406769076
Ni 5.929952381710448 5.738103563496037 9.325623964782789 0.14065836908573193 -0.11444802923895128 0.1937195105767696
Ni 8.620053885746794 2.494876436272795 10.175784419952638 -0.64954679049672 -0.6471451230337628 -0.41238797778939296
Ni 2.5480998876104093 4.959348523388609 7.034206843498343 -0.5163227662018463 0.44384465363677755 -0.5561954340270678
Ni 0.7542840195817059 9.180864323591111 8.704215731076237 -0.767987228724516 -1.26717770612145 3.025446914681783
Ni 1.1408464897432429 1.2932484030377016 11.48389918293539 1.1919207452596632 -1.4930930847044737 -0.6566011262403402
Ni 4.012378411910735 6.927430462314834 1.5617733872862856 0.5110347783300296 -0.3244796467121831 0.22137018241450263
Ni 5.81509653578817 7.877360449402811 8.09504889117734 -1.0888596177014152 0.6813413092994975 -0.5467957379797228
Ni 5.450977526101399 3.2284277491727313 4.713909663738084 -0.0792740524409796 -1.0645637212685277 0.42820077645193355
Ni 0.8922965926395308 7.2350855452254095 6.80458023676307 -0.8063648000614498 -0.40749876801789175 1.1416204543432145
Ni 5.175184101134429 4.723056312985816 6.90460230852683 0.05606264732152281 -0.23525311104418198 0.47940712412241954
Ni 8.293843007727014 7.31249489145658 9.357088257162836 -0.17190267181199428 -0.0328026483523177 -0.7273247180081475
Ni 4.701703571199177 0.4068887596723784 10.358632319797982 -0.9066401373444449 -0.4635539591402469 0.5917936428466518
Ni 7.9886771168432835 7.234651068071632 4.509109805698186 -0.05247107331552254 -2.203997966593701 1.8898233013519514
Ni 7.334870464876067 6.0829064430544975 7.2758358816066915 -0.6239226621707126 0.3581919513629637 -1.6536816170552293
Ni 2.4365388267709367 5.14905211065625 2.474398079758132 -0.11605676848696785 0.33398038711376676 0.6301323905258502
Ni 2.6224407389430335 5.02065506010794 11.409551995477607 -3.0353209792623854 0.5062977778656764 0.2729614242282331
Ni 1.0511993703473697 2.991655803579309 3.6133763177401357 -0.26454054715438957 1.7754418636848777 0.4780251561732284
Ni 3.8554687981458455 2.458932503405164 2.6316643268534126 -0.18439283385920502 0.2912967322023112 0.3608407018397205
Ni 1.1307539475253108 3.3601105331964756 8.342123376279686 -0.21945728166250592 0.11727187184099158 -0.30665290294340736
Ni 3.732104441295446 2.7704616742702464 6.860314603985218 -0.2776835122942508 0.02197187628540087 0.09844059806710143
Ni 3.987368820746478 6.968280366377191 6.137308413671731 0.505637261463542 0.21845686542244958 -1.274925725497985
Ni 0.6249854289393096 7.724243459126095 11.343921505917464 0.18778643292178623 -0.9058914321038786 0.32767501372102925
P 0.11734956375280686 5.526802841042758 8.054961132455565 1.2588828131025092 -0.4974629531828659 0.4987299928207475
P 8.44457037365796 1.6935014293468817 7.930748639994565 0.7473528403036162 0.8291679139988946 0.6274039358510937
P 1.9046120680453824 3.1331324267777636 10.546540973324083 -0.10461304542640049 0.04149889057473498 -1.4659962284876817
P 3.8954316446859085 6.179496145303424 3.861801302662137 -0.0941442846845927 0.057123998706501616 -0.410576378501951
P 6.91649612061146 4.068100106882564 10.562597619638332 -0.45110442052298433 0.2369297274156565 -0.3407220767129745
P 6.31255477364746 8.000579980535285 10.244779391972337 0.22455989299639392 -1.4334632888569827 0.42306782610074234
P 2.331178116980149 8.475544974079273 5.789761086758581 0.8675655399404865 0.4623900207391327 -0.009265484462325979
P 6.922488284690627 4.058948931831147 1.6645109412611485 -0.08211563565483278 -1.4999034227580876 0.6783354325936383
Ni 5.292158023181367 2.8611225736915977 0.5474964285632806 0.5915892401453295 -0.31425308388816847 -0.27806557822401784
Ni 1.3941466703949106 1.141380534578093 6.9446239905148 1.3098310220156024 1.820420228167781 -2.1460702410389816
Ni 6.844427222728793 0.8471870021486914 9.251833451178282 0.20253865153029638 0.31391935469783355 -0.3932198895013744
Ni 2.9099288406324852 1.6565889744906246 9.168715256178636 -1.0382235407121023 0.0608325579063404 0.3581788387368412
Ni 6.4451789248377205 1.9946936645950324 2.693797275325655 0.2134624975316517 0.36403735440014723 0.18165563743370006
Ni 4.053798567237423 6.907444513241117 10.683339725833545 -0.07675102890880975 0.8220922380990358 -1.1862023547186473
Ni 7.9395087856075826 6.903217412599167 0.36703181693854875 1.1501228353872708 0.6992248744481377 0.17125526803598248
Ni 7.276080275005691 3.851649019835561 8.329259231884954 1.4898401249848148 -0.41275076044545045 -0.27982344145538907
Ni 2.925560966561067 8.761403786442063 12.41405050275843 1.1729524316872768 0.04233424199183677 -1.2747732590805207
Ni 0.1366177203620552 4.751116295833877 10.217620949218363 0.12067292710274057 1.2730501057418269 0.43220681228753305
Ni 8.742911352584454 2.3851166453000205 5.551205974513202 0.27443415211901767 -0.23834820502973794 0.8705660173297072
Ni 3.8533507220211853 2.4959988355867173 11.471896751562316 -0.7334172040591305 0.1895736067291961 -0.2073018772468946
Ni 1.1712779937223345 3.395420853548182 12.594620113028657 -1.0670738892848914 0.26339537780635286 0.7118117099742127
Ni 3.0027983322522003 8.423615902595618 8.102137204909056 0.9966557445726448 -0.5565088515024287 -0.21614672923203418
Ni 5.491058043537276 7.770135108493732 3.7637932135382783 -0.08242802468892901 1.1886181632489916 -0.2675945034893649
Ni 2.909412899012376 8.389237897803055 3.4429544644927996 1.34078607563622 -1.207267917139695 1.3524575984368772
Ni 3.5117340082570845 4.620564962731425 9.416915761237853 0.2677770518138162 -0.6195433021560943 -1.8185548928242679
Ni 7.257243880068009 6.291618405799857 11.388633730844745 0.06651983809910479 -1.3736452882580859 -0.23814688765220923
Ni 0.49156111565751137 9.082654383622893 0.2756449786060956 -0.20342696767252064 0.03124970204290102 0.6389751856284608
Ni 4.689167094991252 0.24195308565220633 1.8826121363317647 0.07732515624472489 0.20022183047166164 -0.27957970087569917
Ni 5.776256088562031 5.4604455074107765 0.3588962322340848 0.17009312940708127 0.6764302451511255 0.23623218712799962
Ni 7.557748193156012 8.773605353177285 11.848721502514838 0.9941759155735846 1.043575549052635 -0.5329860857901402
Ni 0.13088262193220612 4.916063736943631 5.670251809487211 0.1039432730528855 -0.11048698770867423 0.5490007160508416
Ni 7.9881611752231745 -0.6128562750630506 2.692061177032024 -0.27773442013684424 1.1989431993240836 -1.180411459068483
P 8.510800984786757 1.3804787432656933 3.4624950744838947 -0.12582567494827362 0.44740151775010045 0.2786368773464556
P 1.8171101795962805 3.0830408315902877 1.611320980870804 -0.17586397045258745 0.9947670121903642 -0.030360871680044487
P 4.753795571615498 1.1521791021709116 8.152611683088296 0.6100615879179042 -0.4664431077625838 -0.006201757935337707
P 8.390233574613793 1.7884527906617758 12.560612318977544 -0.10234404688656568 -0.939585224811898 -0.3395522247745894
P 6.18732578567877 7.512182401653708 1.4937052998613092 -0.5237560825514399 0.8884611524425731 0.1389498710350575
P 1.8565842393383445 3.179286572759141 5.710127760596519 -0.9044631842977842 -0.13875575274638038 1.6974248235794511
P 7.13974496479359 3.979937451095427 6.02617096805719 -1.0066447374645566 0.5420258273949052 -0.21432638819384378
P 2.2912786316916787 8.55395904872855 10.251271204778346 0.39577145227863453 0.07833380001489734 -0.3644818981367336
