# total energy = -381177.6180532647 ev
CRYSTAL
PRIMVEC
9.11309056125778 0.00000000000000 0.00000000000000

0.00000000000000 9.11309056125778 0.00000000000000

0.00000000000000 0.00000000000000 13.33792920172067

PRIMCOORD
 96 1
Ni 3.7662215289216516 1.1510288770953292 10.240035155381555 0.36151021710291936 0.3236705205473265 0.2696197614495099
Ni 3.323653408995619 2.4217673090738714 12.387481129944236 -0.7488291677388265 -0.8655271693542191 -1.0018773979829005
Ni 1.0658488215614228 9.047886191993287 2.18209850063176 1.1312169996217034 0.4370872803082859 0.8137760049238566
Ni 4.970662228578683 3.6103147791544465 10.652003340518698 -1.2474398613728905 -1.1344912994976009 0.4462524917473218
Ni 7.986356975259409 2.9557488383355857 10.65104282079544 -1.1615192501496707 -2.057378751938844 0.05082788128514472
Ni 6.194550263050023 6.611692860889869 4.553008386370008 -0.28679961566290607 -1.5938530749333712 0.15823880117165653
Ni 3.74099649482324 2.5489222587758715 4.272071859571232 2.302213336023874 1.9946070680282615 0.689871972478328
Ni 8.97824395551205 1.2819839854747273 8.898452470304154 -2.037890047086613 2.376758101309984 -1.180659313413231
Ni 0.6832894903039703 7.186601278929027 11.983622683912648 -1.1326169652930236 -0.5174435100698508 1.378790065683819
Ni 6.292452192717378 6.977228028057999 8.717896633748875 1.063918117264729 1.2212464908069742 -0.8866966043429826
Ni 6.007649892990658 4.221338374264416 3.7455038293120677 -2.0657111830639394 -0.39953169065201516 -0.51394295311576
Ni 7.900812396111365 1.7760319528075257 13.053697245470977 0.26506222398581447 0.29683385997045647 -0.022182192523994056
Ni 6.638795191601095 1.4740150254030973 6.986540695090213 2.2375272086993983 1.3539267267832358 -0.9234464102685064
Ni 5.135791425783602 1.3289893055179378 2.49938076568729 0.1573517705810129 0.6980665924739784 0.6587798790592138
Ni 7.913698305871175 8.631436189020306 7.7728245099510564 0.5490192279936029 -1.147305420543134 -0.5022901993681802
Ni 6.217916226716326 0.5186159476167244 0.6002774389651552 -0.5286041546723605 -2.4058691597433275 0.02942627568091706
Ni 2.4248566467036987 6.449142668254981 5.816670503689079 -0.5580918797188323 -1.439769690690985 -0.6441657286904648
Ni 1.2663823747895826 7.126290846969747 7.594523251949228 -0.7833451992378251 0.11686923708593422 1.2772204350694325
Ni 2.1115668265320253 4.0652675888708485 0.3602732687980358 -0.049674998627624124 0.7287298258857902 -0.46531310792319863
Ni 5.15793623534254 8.422609723570487 10.873093291657185 -0.21186815646133833 -0.73746309199373 0.2797691911786859
Ni 6.748443894734075 3.9764058448341393 12.41495800866899 -0.4683889186350449 0.48490157157808744 0.005474392851009926
Ni 3.657010254125639 2.4120709809377767 8.222472589772702 -0.5809597854559414 -0.8923972542721857 0.09516526974993933
Ni 4.438348394851654 4.760104275961704 12.728025469436039 -0.25816266865250376 -0.1048272183197356 0.2789546656971906
Ni 7.497202737446426 6.495737899232286 13.176553550453244 0.4678872964082781 0.39134735506900986 0.2320852548391616
P 9.059450703651844 1.0964050135166157 11.036522897511182 0.1332466500026931 -1.2964425165238382 0.7599023948338526
Ni 1.0475132837702366 5.150727780872943 2.4444425004913812 0.46395248013024615 -0.934268440584675 -0.5481499380147721
P 4.443816249063738 5.246424342674757 5.447330621298374 1.1305752522726464 0.7572395032897088 -0.32169282799566534
Ni 7.447354133212933 8.576256426930032 11.84444118887117 0.6616643996958604 0.7306221578124965 0.697717950885308
P 6.537156894888818 3.3601331096805693 1.6751637122301164 0.7359458840182551 -0.16595622442057223 0.5570863212724535
P 0.3422922302215994 5.988749343597557 4.2045684653959565 -0.4701956328264806 -0.07762957485902114 2.2238939341866795
P 0.8618076398562116 6.136044222980731 0.6278153753952779 0.6684942781335003 0.9091904145701244 -1.5312845081725306
Ni 3.1440617373997393 3.7804652891441295 6.316843379048446 -0.8384727363395882 0.6040362076594307 0.2963859737997605
Ni 1.6350159926778938 0.4394888066955944 7.8419955996610184 1.5350190355142983 -0.3105018443758523 -0.3087923178839133
Ni 2.0247190754634334 8.888024361012675 11.432419236500941 1.3786756515931418 1.2426118438566276 -0.6915987253614476
Ni 8.521031099387988 4.536040723440879 0.5716113019492723 0.14974644742992918 -1.2613287035398404 1.2467513199462978
Ni 2.4828796929842576 4.742224392688191 8.720311602692545 -0.7123853230894956 0.5548597459347799 -0.6723357633667776
Ni 1.9637616140890568 7.334424717552702 3.7106517265642482 -0.31971205012021064 0.9435966599641363 -1.3700300601030018
Ni 3.1180529775309287 1.0097942027972142 1.1716344856935654 0.029444530513362193 0.8542981334076191 -1.0209513838952158
Ni 8.982855179230908 2.0697924203517077 6.181796493100339 -0.812479140489304 0.16467401527403897 0.291406261196982
Ni 5.903778889141781 1.4817702652939022 11.723559690568498 -0.14688043873604384 0.2493725811646996 -1.1120031456974138
Ni 4.06277971520435 7.743529569700785 4.742140552256939 -0.7336066943621172 -2.5018049891107044 -0.6324512684670139
Ni 7.8683515682722955 4.220308595054474 5.024491430678573 1.0211388173156735 0.5308320155616149 1.7176023269685905
Ni 8.688620830988345 8.064875361744928 3.7966683637926035 -1.0450066250722068 -0.27290074619362675 0.17156431463596905
Ni 0.9037114519195483 8.740638350725966 5.528678622338645 -0.2541563757065881 -0.9891661210638188 1.1254950095362617
Ni 5.141077018188617 2.4613363473886487 0.2940976518872607 0.8854799583270622 0.7685898953055215 0.4704203472427769
Ni 8.114733079068776 8.470262073028794 1.5951762955796187 -0.5189288363661256 -3.3707926062096982 -2.773668038068436
Ni 5.768595306838371 5.432777927312913 1.3836632910935955 -0.3540640452375193 -1.7348865679703347 0.02460365748129311
Ni 5.142125023579266 0.5013903842305909 8.074835058192237 -2.6653554323032616 -1.6924759642146077 1.7963459608273964
Ni 4.743263284988486 6.210042516650927 9.975463916239544 -2.4727029295384253 -1.2974539885074883 1.0417809190460574
Ni 2.173162204231145 1.4697774383887328 5.731947925290917 1.5259736374825785 0.9229985240978105 0.17953936242164562
Ni 3.0594193541966876 8.096807630343495 9.560560404699547 -0.14486186564411824 -1.0588371031973958 -1.22831239651482
Ni 3.244023225486978 5.812338140535038 1.429359060053012 0.4818445299193186 0.43034404804718146 -1.2850779834406383
Ni 0.16079774535991412 4.253753636651718 9.298497088022811 0.4479519909369317 1.32542219158564 0.029863620328651794
Ni 0.4304349514294196 1.4116450350239325 3.9307410603819246 -0.18869068990361051 0.35143946313047864 0.3370191739400905
Ni 3.1587611521398897 5.332269653804468 3.5579591637647123 1.4800262242181865 -0.8861798126075643 2.174314323486339
Ni 2.5924008128522886 4.185906678970116 11.011501085327653 -0.1523805426186666 -0.26880497885769833 0.7982282869972447
P 5.946464604357445 2.76640616006149 8.834190602367606 0.013281290489938417 -1.5162037025800081 -0.28076060855767776
Ni 4.149436091375519 6.599025665298543 7.389999987764319 -0.17014532280125536 0.31574483794234653 0.2849661619985931
P 6.1153119424265805 6.456697420158011 11.55152641611179 0.3099194895098211 -0.40365625434334995 -0.15710957266321973
Ni 2.9199617325174994 6.445178473951221 11.942875323015166 0.9062210475291554 0.5811896420785604 0.34936098333489507
P 3.4774185825297588 8.675306605981921 6.7459241252513396 -1.0554838704544465 -0.1683301239693875 1.0010420465657985
P 2.0485680329184706 2.5845908944193625 3.120261990632611 -0.5823134712703584 0.4841816626929274 -1.7672097055830727
P 1.6144295215693998 5.986170339027525 10.317554747164332 -0.821986822869423 0.6669377322796578 -0.4032402498518539
Ni 6.871908042842919 0.4583802429983427 9.697607613980242 0.12035051076631532 0.8692660675713608 0.12767326967997367
Ni 5.071061145002888 7.221112552097627 0.09946573597200965 -0.6958096781190017 1.1655013747258702 -0.9627385229999098
Ni 0.6497596969664394 2.439027502203348 1.3858641024139589 1.5185025259165137 -0.779232205510716 -0.22613520790331376
Ni 4.117731650035789 3.611754647430295 1.9520594947661627 -0.9666435144812706 0.2818296732521404 0.7159367878861799
Ni 4.174205470956257 7.935205199105369 2.3889428689296994 1.0968225813022336 -0.023515309513120794 -0.1944227072913813
Ni 1.010313648947362 0.3682827639097026 -0.032152805385121254 -2.052891662701768 0.8640079044962151 -0.10246540295577837
Ni 4.650045483762818 4.466380260778935 8.256324986508746 1.6487988350416314 0.5162800858893689 -0.46128778881388943
Ni 6.836649496265334 2.0296036918928944 4.207663270879996 0.2439958902338185 -0.5608547871759503 1.3722826035826043
Ni 7.908193999297677 1.2937580982114136 2.239865469073386 -1.5716847663664482 2.2970901558646957 0.252330635351759
Ni 3.021189940163871 0.6273843262215587 3.4333695489972147 -0.676309660412861 -1.8573374129091047 1.0325961672229957
Ni 1.6608971692817553 2.315590693365565 9.763004061665795 1.1092716056988638 0.4878583402135662 0.46599779269504904
Ni 6.510519331785618 5.371656430312174 6.818429694721637 -1.571494504732513 1.1585840787807467 -0.7121462104954961
Ni 0.29595763362840444 8.346314931131216 9.600388254780363 2.6458785545255723 0.6488754754613083 0.28263211454877774
Ni 8.223907901503374 6.792159389159682 5.986609589982561 0.8809535312116182 0.28393334985870455 -0.5085495500143307
Ni 2.525000396598007 7.890505490921588 0.6958983621170347 -0.2618935964498457 -0.8677648004354861 -0.9451519202663979
Ni 0.607877756319951 4.7334393735874425 6.96913469251508 0.2843431837026135 0.6578231715728994 -1.1025767101771913
Ni 7.656736497174314 5.715958096956715 2.9112559973028276 0.9661004974936072 0.8727339715153035 -0.36766260985756033
Ni 1.3396698474122075 3.9276872638044757 4.701019554654965 -0.637953686342482 -0.033524871230322904 -0.3272602947811138
Ni 6.659336097257822 4.666412594037653 9.604109129571686 1.6045905159555334 1.8352351816934263 0.39659111996645247
Ni 9.000571026878058 4.675589476023601 11.66013713825351 1.0924316513233896 1.7010922451287092 -0.25282865803410004
Ni 8.498767819654455 3.520997380600064 2.8888751587037347 -1.0674310155139939 -0.5978722449405639 0.5737007899006829
Ni 6.284223072128192 8.761835398888142 3.7387683442318167 0.7002600005808715 0.5142396584205724 -0.11815118912215136
Ni 0.8448946554692021 2.5976955183476558 12.360218408842787 0.7162954567771792 0.3963350380915884 -1.1924593913719526
Ni 7.68354720899423 3.7262150622699086 7.662533333948158 -0.08773863826856503 -2.1589913199760233 -0.2060664621778967
Ni 5.889653599093898 7.960120388131763 6.532277746313569 1.361896375252274 -0.4277307787940505 -0.2935071095900687
P 6.387866248718233 7.305709369848912 2.094801474208742 -0.4931722962273119 1.0063310628788797 -0.10045839982807861
Ni 5.376650403825877 3.184250465858552 6.088911319672572 0.6091511602884928 0.6210407126372273 -0.37972828277284276
P 1.5168192107933571 2.8219322195851975 7.427212380913687 -0.19040330171934303 -0.7604610955508 1.422494191439989
Ni 8.146145901517194 6.890134223549864 10.359782985244253 -2.3709844320510003 -3.3762466873457333 0.13616125254632677
P 4.148451877617344 0.22429320239773295 12.598887511273123 -0.3920256120829571 0.370395178297375 0.36382241017586375
P 8.308987713043393 6.150907673347245 8.129174593351923 -0.055300572344517664 -0.14884861820600817 0.3872284478046299
P 7.7254127460780815 0.09697057183322892 5.6892540082939345 0.3532904002962883 -0.3526057155244379 -1.4174651136565137
Ni 4.816368495804041 0.48224013616180406 5.3636077489119875 0.2242071376426655 5.087786095949696 0.34731438521851155
