# total energy = -340871.03696864855 ev
CRYSTAL
PRIMVEC
9.24036786746050 0.00000000000000 0.00000000000000
0.00000000000000 9.24036786746050 0.00000000000000
0.00000000000000 0.00000000000000 13.52421240472358
PRIMCOORD
 96 1
Ni 7.937097304692089 7.530890724966788 7.901548684745292 1.9243267344454602 -1.8455051961608668 0.6441150779581875
Ni 8.235662836937406 3.2245095963230455 1.4743829625507556 -0.5493269890420087 0.09624076220230522 1.7214759509913837
Ni 7.101472340685756 2.701209072596858 5.965759955815345 0.07329495203940926 1.6617834202267576 0.7616831408833592
Ni 1.731931425033957 3.7910550425495604 12.814975792803358 2.1263493655712864 -0.12774937433354774 -0.5811065954464507
Ni 2.118483741904942 3.924107102182513 7.728113444598839 0.43248012055357776 -0.4223600014004404 -0.13001477332895675
Ni 2.8609103537022342 3.444938576289993 5.32116943695421 -0.2641692798578999 -1.8798898442883236 -0.11466040236007351
Ni 4.143556603135565 5.510271721138977 12.826214852469414 -0.5074784284373389 -0.333892969606283 0.36964467328459566
Ni 6.5291424240564195 8.96105945040818 9.592466736164354 -0.9579909810125953 -0.5270465803772536 0.3387248437772876
Ni 8.696350626718676 6.832050929287881 5.375333702385872 -1.1278527111351608 0.9300001522266241 0.9876468562058152
Ni 8.180451637805044 0.6500922340014539 8.12960743661577 0.25991538967755234 0.2514225217151928 -0.2034490791597077
Ni 0.8538238688918866 1.9142808482436722 9.11502153891421 -0.2808176870478583 0.0728241830505778 0.11447991091815123
Ni 6.670141200217211 7.464129065764894 3.9980956532407124 0.3796256957567075 -0.04070030593283958 0.8202119903571874
Ni 0.1079284229265123 2.016534761147225 13.393825713132744 1.2137936340733548 -0.52145288833956 -0.47640690384351503
Ni 0.9897543031741666 8.872740012532512 12.187641661286102 -0.9816340743528321 0.46508299419026355 0.6340584650531338
Ni 3.7549067227159534 4.947348499190268 10.382010908714086 0.9398063396837685 0.9332672530136702 -0.08445868196571261
Ni 9.028708184943417 8.377678053584315 10.082706147024318 -0.07700762500430608 -1.0266916288131027 -1.4532492132346584
Ni 2.3692950520387868 2.3719747587749183 1.6722414195050328 -0.47904639834889107 -1.0151100946230907 -0.3819368603883874
Ni 4.531504215582949 1.7286603347422658 6.720262804624535 0.8179319360737591 0.9520872139336507 0.5708124126092944
Ni 0.2704433961048271 5.540949743083654 7.1948813732864645 1.5741008320071082 3.1506853496680187 1.800443785045854
Ni 4.894604478328756 4.5954752836320445 6.271231739145438 0.2464356100235627 0.029657674965432795 -0.6289026318838072
Ni 3.9082968324393375 7.683042625370719 0.5783426241231324 0.6407322775288836 -0.40859508640586406 -1.6915935616096542
Ni 4.375914898262326 2.543956489026222 10.883569770442193 0.6443904431067612 1.5488024624516359 0.35582885044742585
Ni 2.0841927360505155 6.199372168887254 8.846593467082315 0.8950184939451166 -0.6945948318752941 0.9474839108336842
Ni 6.206524213762308 8.69923362155203 7.2575661821022175 -1.0104461134885176 2.7462616210310253 -0.5013751437530785
P 5.478946873430407 5.938969356711669 2.433100717499687 -0.01446528349571057 0.6275067799775451 1.1849134607038947
P 7.2674940335411815 6.854782234704721 10.012543108341148 0.3550904296195046 -0.2869253426074929 -0.28793835725303957
P 2.646838746957557 0.7042943849421425 -0.3199274151163132 0.9884410699723364 0.6857787762455609 2.0739937347877055
P 3.0920766413498195 4.413042697109829 1.088704784497833 -0.0630629898987559 0.49441568171610983 -0.15575794373133175
P 6.250711653804309 1.7743077529370561 8.412668555300554 -0.8176311170038887 -0.4173100976813587 -0.5644029095385248
P 8.419925016334636 4.056808027829352 3.7178602391073388 0.9699039304000974 -1.8785852665442875 -0.6908073398084038
P 9.045821346582434 4.764352250216658 12.856306111042558 -1.934971872864132 0.8867066316453116 -0.8924545898726822
P 0.9743783307296057 7.796218653316021 8.063595171263186 -1.0978098849161673 0.527129369899047 -1.9563410825685275
Ni 0.8421080062341589 4.965505822419572 1.1073499991604743 -0.4278475068775728 1.0682722804683666 1.008512901021547
Ni 1.5530471398451018 1.5149953041920354 4.1695007845253445 -0.15806987969396005 0.025540310362949563 -0.6850318707772073
Ni 5.9642140422396395 0.9475627826321802 5.030506267470064 1.5165364033290785 -1.5497895089552536 -1.1479394545827069
Ni 6.748712049794194 5.497575455430548 13.064659778034416 -0.3267180491243986 2.3391549462452295 0.5118798999391443
Ni 2.152506777085755 8.943059213435824 1.7308558461922823 -0.33735650267485123 0.42779325660086964 0.41029947069148054
Ni 7.256313188193874 3.3803022017408924 12.75637522666819 -0.4151053767205561 -2.578910058924823 0.24419977871450846
Ni 8.194460035777372 1.8435735518820253 3.923144255831117 1.413581205221075 -0.6972374117044637 -0.0346201611770307
Ni 6.463877704479536 5.117676203559613 8.62929974399664 -0.1417009514176334 1.3377822558128896 -0.3042566347970889
Ni 5.481774426055428 4.059524696037706 1.182984259769381 0.6249703867089366 0.6059069423195824 0.3682956154558689
Ni 4.609317354979372 0.5350099181262763 1.2492284583601605 -0.07358548669663455 1.4036526332534536 -1.663486004740161
Ni 8.523629667022922 6.054640284031991 3.1805836586970178 -1.2087365312654215 -0.16336866619905413 -1.9092996649090086
Ni 3.9265742804533654 4.095146314892142 3.1852897781477476 0.31599757738310097 0.5130746915781937 -0.43976559847139746
Ni 2.1874168875999085 1.529031423268531 11.28046483127784 -0.20983569941234184 0.9513210251915873 -0.2809953502763032
Ni 1.6176373125539245 6.674447211731132 13.139164865666924 1.164543124577659 -0.6200598367811967 0.7270434393223028
Ni 7.648437447002402 4.389618364088818 10.524528801383223 -2.398984259698036 1.4747215241758214 -0.22806302105364593
Ni 4.779377088675106 8.190930215180124 2.8557995061306682 -1.5335316523354945 -0.813392910552825 0.4948270582219156
Ni 3.300705671309734 1.8115464362012272 8.915918404382838 -0.6002150341411276 0.12915088266676467 0.7667656976125891
Ni 5.426701832443899 7.2963517029789005 11.259948442083935 0.367833845328102 -0.2827475570807195 0.5719760939000924
Ni 1.4452859675803962 4.154913015475929 3.0404590213542897 -0.3106815644868262 -0.23583803701337447 2.46164692883458
Ni -0.012411662372316272 3.1901723886283406 11.3574038318562 1.5961814659562317 -1.7089706194355212 -1.2359154056730586
Ni 8.571864388273287 7.108615145192755 13.189150636663832 0.21537822649712585 0.047464878350182774 -0.28582696733699164
Ni 6.7684956778012895 1.8756283886669904 10.617047986540173 1.0993116662726745 1.3757232538330373 -0.5610777018200337
Ni 3.2391833007953785 6.929037832399728 6.642268554014222 -0.7319136229304105 -0.2618483450342071 0.12546212096126777
Ni 6.281565242742043 6.6274414594321645 6.420754754837543 -0.48016431400341825 -1.3824160924721804 -0.9857884628408378
P 6.223064472581878 1.9338519477854872 0.7203208792978194 0.32802159842717055 0.2933878104033851 0.16014553127606612
P 1.9344710524452142 3.909719849119904 10.42225825581717 -0.11996613084370308 -1.3016402586746938 -0.16653909350723575
P 5.722772465314198 4.473077368367228 11.510985217198336 -1.8043991701491762 -0.9483886820361409 -0.729747211406711
P 2.702012984617697 8.677869890607424 4.0885320594379255 0.7575814600101598 -0.31713143387722803 0.06675200871456892
P 4.282300729490783 5.762598451633944 8.12099264147751 0.3800684397210809 -0.3951641577119388 0.6266611441477982
P 2.363344255010964 7.4277682174660065 11.378339733759832 0.5854982967562432 -1.6644334562550949 -0.7593606633977696
P 2.303596035163289 1.843388744520913 6.8247639750392155 0.08638546667478027 1.676290612703997 -0.11983089081741945
P 0.4179409231191392 1.3175101581072057 2.1477128741384965 -0.20720520376803025 0.9170261085644593 0.4437559505777132
Ni 0.29146523343137526 4.568012909770726 9.236144283387349 0.7283305335648425 -0.8944831902669369 -0.03285407041554342
Ni 2.192739339599949 8.552293288731473 9.602921288582488 -0.7287488520491836 2.064204002390793 1.1833332607009686
Ni 4.140701329406377 6.420605060875042 4.402036494718773 0.06478845723029487 -0.17601977930416138 0.11535074355887874
Ni 4.5084587376522185 8.68681456688527 5.729072548254524 -1.411117574171931 -1.254925114006342 -1.4319229409530567
Ni 0.31707676157115267 1.8186707599721144 6.462572040473276 -1.8670775230150038 -0.16655606278810026 -0.21265517113900798
Ni 0.28111786928268573 4.00368515187756 5.693368690124392 -0.8855218673085911 -1.7028843040321253 -2.459356590138506
Ni 7.1023316949149295 7.303124892763673 1.4179187695100501 0.0470568442784867 -0.703802209406175 2.342367796755572
Ni 5.4548479935413345 0.8085774826707104 12.194688365965323 -1.5468473956077942 -0.23220301136394847 2.262690338228587
Ni 0.0898829081506811 6.080910650414134 10.930755709918245 0.28099329339377416 0.9665913210870967 1.186833303434427
Ni 2.9763779929253316 9.332771736181831 7.478592089845559 0.5141458131551855 -3.565494792414711 0.3627708289828978
Ni 6.779796647933319 0.13185820408016583 2.528338418938603 0.571441561552861 0.6985687289213776 -0.23461779145302822
Ni 9.29331536458431 8.52093147955068 3.4076823363265167 -1.3849378304527695 2.261670638714821 -0.2345504285502025
Ni 4.197723640677642 7.613444173175748 9.295908211860718 1.1146380122170998 -0.06848287536274658 -0.9249173383870781
Ni 6.508517922556264 4.80374393923779 4.151852605575906 -1.6177807893935623 0.1893244668328675 0.41408644853773846
Ni 2.7623987898612103 6.445304564687729 2.247724149714949 0.5496398922967373 -0.961209230839577 -0.8769184419102961
Ni 7.4186849356673275 9.04929572497135 11.88175128928309 0.8232788022079692 -1.5210183503598322 1.0767543497974488
Ni 4.644532397639361 3.6205425308191015 8.466765366045408 0.4358454374813848 -0.7774231773264353 0.3890156216120397
Ni 1.2557937398636825 8.96097628709568 5.858621584357588 -0.7012719867851536 -1.3138206027909693 -0.24078869615043047
Ni 8.002426706845363 3.059023844814847 8.315930218089404 -0.34286534830822235 0.3837697998320681 -0.09279831217965953
Ni 3.9993514192594724 2.802788438632349 13.366047318683922 0.05644934123698019 -1.3110823779242002 -0.6992086764982216
Ni 1.2280818760648615 6.726516685724581 3.9087412941428137 3.597758280434107 -0.7395821952192617 2.144711413018242
Ni 8.545233647536975 9.348942380279174 0.7912462483455791 -0.5336645999144035 -1.5879246252640782 0.3532479770941271
Ni 3.9537317221688486 1.4457387456151218 3.302774589717388 -1.6340142205332893 -0.8453355248976926 1.1204795585995415
Ni 6.030606086719309 2.2402902736141983 3.0613136080190304 0.9558806195378118 2.1117259592311566 -1.6867943404487982
P 0.6026244632997053 7.197257995950371 1.6672645572702727 -0.33579147218057653 -0.11795269995810008 -0.5686313457975756
P 7.631324285363383 4.794799262959945 6.818393665301667 -1.5491660164386416 -0.2643759965520673 -0.7149528267063557
P 4.096051870961594 0.379525941001487 10.608433191401915 0.09493567023763651 -0.3049122661032168 -1.4519189244590092
P 7.958303949379749 8.993650228540373 5.432432708711999 -0.09068383693981802 0.1364219624068812 0.009769934902570271
P 4.857938697884034 2.8547562685771877 4.7832709797737465 1.190240015123131 0.4114271565380205 0.45598051766836306
P 6.024470482330374 7.699000741002785 13.297249082362566 -0.8550015872325469 0.7814940049616992 -1.362222134022809
P 2.037381031480716 5.261363926824591 5.749020654813009 0.10781715418599495 2.2566608442050553 -0.4070292845806409
P 8.859803497254635 1.0208758627855135 10.926833173678633 1.0674538983321293 1.949460039177978 0.23340525920216576
