# total energy = -340891.81891843636 ev
CRYSTAL
PRIMVEC
9.07818829335333 0.00000000000000 0.00000000000000

0.00000000000000 9.07818829335333 0.00000000000000

0.00000000000000 0.00000000000000 13.28684620466159

PRIMCOORD
 96 1
Ni 6.338345799297192 2.0088941703032495 11.337081426380072 0.1429816179022699 -0.7623580554631967 1.4556282549897963
Ni 4.360907552044903 0.40551450861634103 6.109743396322376 0.3341462232676697 -0.1113591059009824 -0.4905685400558777
Ni 2.902551043358507 1.825414903122024 4.659192314083083 0.19197321730962422 -0.6767171802639249 1.1522871900284413
Ni 3.604340403085617 4.258605446168636 4.729373065693489 -0.878049727301262 1.321849900853349 0.37729884739574376
Ni 5.25038845840364 4.67600239567427 2.6643184980539765 -0.109780705670269 0.7251585635947639 -0.02054234292772591
Ni 7.305227340557079 6.236143553494103 2.5683611380998785 -0.5072776252804425 0.020751887835370714 -1.387691224828191
Ni 5.121469103931294 4.504887621190132 11.513650376497406 -0.2280509368687879 0.6490744788459919 -0.08332508258190166
Ni 5.497623843214559 7.760471257797043 12.367994154380314 0.42408675428355996 0.2722697974778472 -0.14135436671149204
Ni 1.7944582804369527 6.362648109833244 0.48874424833452373 -0.5641637969445251 0.3815583940030461 -0.8449534589679254
Ni 2.6844203307846373 1.757718851696048 0.2292033790515769 0.5039709295047127 -0.5311372055068595 0.21329640426743268
Ni 0.48895849358243215 0.05428938269245278 4.977505375525313 0.48394897785683105 -1.1174713679008368 0.20851826615249897
Ni 8.630461293509198 2.0891544345726674 1.7184411614587374 1.4275988596564058 1.1394802680717602 -0.9207354390952466
Ni 6.831736264491018 0.696283438419633 4.875661718166816 0.46394039594538805 1.003166291997653 0.1033927998660542
Ni 0.687980527244335 7.4853930689465 2.4293141565696246 1.268927341822705 -0.9376988064224625 0.7340316977146778
Ni 7.513962128063779 4.110104439165 3.8091525053541293 0.44875854599862713 -1.1504974451178702 0.06468381333163054
Ni 7.5481687422213595 3.732106827622184 12.673526034274653 1.2455801824563322 -0.11907421515705298 0.5713662282302354
Ni 7.951331092204943 8.948297750056716 7.131941063390751 0.3493992927719982 -0.6787360104661665 -0.20331769578816594
Ni 6.921256281000545 0.8896216182800335 0.48393371626390225 -1.0964340876145633 -0.898952281781884 -0.9186423040116437
Ni 1.9071276775467534 6.335250137028685 9.344094057915175 -0.523434437545963 0.905910458267272 -1.3576005760903973
Ni 0.10324260620183079 4.566455895398388 1.461114462343793 -0.8380608456131503 0.4513440473376162 0.6470921583086403
Ni 6.364835953254682 1.7704555501204338 7.140152284862494 -0.01919739886405726 1.2448165648174303 -0.7681078134627805
Ni 3.24239302875899 4.288145871452279 0.45404105726759636 0.6723717588110356 -0.5725286239694527 -0.21451305028335313
Ni 6.082549682758407 5.730325048283895 4.839919982338841 -0.8056778012967545 0.7209982615694873 -0.15451481535285
Ni 5.414022805587925 2.883949835182052 9.282376901416 0.016586700714087563 1.0978080851439544 -0.6975554571655147
P -0.03543580087651252 5.537858374516682 12.550649122048402 0.9241652907124019 0.16063326954576204 -0.014049021893898388
P 4.095143584565294 5.9458866335205585 12.818738013595356 -0.4868692368274196 1.3805003635067064 -1.9035671333006057
P 2.3725754786277786 8.486590162625616 1.415713533982998 -0.01682941285251295 -0.3417052665618502 -0.22840343511220015
P 6.392696913671245 7.951521734162828 5.805381694921911 -1.1401870643307976 -1.4693373770457725 2.0072748933039173
P 4.682184642022814 1.0711445358458238 12.665327522266768 0.48354068667481886 0.03691384230721384 -0.38264391375774104
P 4.182593774103503 6.328804623214491 8.187076213868503 -0.6700829627768589 -0.28389298353907233 0.45920390970166725
P 4.915330678327214 0.9310862441199349 3.653644044669963 -1.6026758154313236 0.1410309219338023 0.6068088853085615
P 0.0511292652858037 5.616321157468902 3.4776860566367094 1.733009919772912 -0.27118016395809424 1.1683956655545298
Ni 1.8344295442734244 1.154209960352687 2.7138382005239254 -0.7914485450712498 -0.25885892338858 -0.8788241435734413
Ni 1.863779327599183 6.450116455748394 4.7258253096391405 -0.4885720784511392 -0.360877725725243 -0.82729537956653
Ni 6.103928816606895 5.916727492152685 9.242822326430334 -0.047385431262499035 -0.8552219307734691 -0.15935388861270622
Ni 8.610698077208493 2.307575649177599 10.13276168130684 0.6739871829272714 -0.06407214788956062 1.5778847245295728
Ni 2.3897695675912756 5.349567667445989 6.712155642498476 -0.24207193373822822 -0.7560444545403431 1.5161103715352535
Ni 0.6882982638408093 0.15812842587680825 9.090793535386986 -0.5789293852894738 -0.3586537214907307 0.14788651140305498
Ni 1.5430741634949254 0.9833766097111405 11.482878041038289 -0.552740642709248 0.5915329329860974 -0.406135569121778
Ni 3.8982649112013226 6.7378950302694385 1.5552788800749286 0.8720971092622529 0.9929101614872836 0.3369289282191294
Ni 5.602549545558857 8.084244849604394 8.04735109165949 -0.20767134477117136 -0.5552960621412502 -1.0226300571492195
Ni 5.262634934650609 2.733215593814625 4.884896051479207 0.3554964068086716 -0.6159630410040037 0.1625518267247136
Ni 0.6416835816814824 7.157225633919332 6.663964986820637 -0.4889777985299901 0.5103341527185792 0.791132813603044
Ni 5.20405338444921 4.580735885862793 7.097394924984367 -0.822986724888847 0.7822056863167431 1.4198886354963416
Ni 8.498872951626467 7.164243073607179 9.516890112904088 -0.4684169436595029 0.4089637825991924 -0.48351600408447054
Ni 4.502264024722101 0.052826886529823744 10.435569196841124 0.28148000322220557 0.5482962337846493 0.11702530304782426
Ni 7.994960865995105 7.26202424162504 4.60284309042663 1.5749384974170555 -0.0793144187606118 0.5410135840803071
Ni 7.337690942528286 6.162265255719584 7.119929712225173 -0.37033527159371704 0.15139581010789407 -0.6700035156891752
Ni 2.28434456488109 5.140751176243051 2.6498887174798056 -0.27386542409974124 0.05539621738211751 0.39053385802877905
Ni 2.2011429675471663 5.221592444574594 11.450843837381747 0.89308965235352 0.19060384776592337 0.5056478029865034
Ni 0.9468369011165915 3.2271325939397513 3.8825097151104306 -0.1333294395244865 0.46233242802831986 -0.6177527859145748
Ni 3.9370832451020163 2.855090274033711 2.6841289209347274 -0.38484837760822754 -1.4837018732975609 -0.7215829304283637
Ni 1.2919260794531366 3.7351843335137493 8.300585343411843 -0.4666619086416092 -0.770224345585151 -0.8276712748487101
Ni 3.500785507200394 3.007585683964453 7.124393457496214 0.7455440692296516 -1.3132374765939898 0.09549514228553231
Ni 4.200931714814308 6.689853256882519 6.0645821321372075 0.2663171794388381 1.7425212016974572 -0.893361417957668
Ni 0.8262967146026976 7.419294778691367 11.647249537126395 0.10422532306967856 0.29527705700629797 -0.6486157940420184
P 0.09691874011314436 5.541407946208723 8.052878800619295 0.6332796779055803 1.0069848944127948 0.088480401530596
P 8.493126458324516 1.725264327913312 8.108869435831156 0.03354364028340029 -0.5820000537949976 -0.8798602981474396
P 2.054294190845197 3.3758423992782127 10.280550958334375 -0.8321930739784635 0.08990839222637419 1.8284104454621093
P 4.012377740277964 6.216180617047043 3.68740582759248 0.14377351767594596 -0.18234417886029242 1.1451711478089504
P 6.9667652398041415 3.9159219877768248 10.535805107021458 0.4964702502522934 0.8540006567718583 -1.3995203562526346
P 6.500010179583335 7.82636982790582 10.292562309499953 -0.3988850582069518 -0.2715702003076613 0.14851566034662164
P 2.2956832222809886 8.395027553710182 5.889687199973871 0.8366356831308495 -0.07845078520873587 -0.029866705652445338
P 6.94573107711754 3.85815747453779 1.633936844079269 0.6098499861277303 0.08220948092021972 -0.5571719390077242
Ni 5.383075261091325 3.061319481522499 0.28492802334124656 -0.5512311480432571 -0.7257674008233566 0.4043334829160327
Ni 1.660818267959845 1.1209565559845298 7.013289140078761 -0.7262628524025363 0.9887305761882971 -0.7845464186347778
Ni 6.5680512021711985 0.6920648042373009 9.316112357591951 1.6061285498666145 0.6772162313875305 -0.07692612103409333
Ni 2.6559238971751244 1.6654390658914293 9.13466751244701 0.2676497822073326 -0.2683082417269379 0.6947251868055713
Ni 6.5531992858331405 1.917513125157229 2.682627388561675 -0.8117319779106342 0.4151709398511689 0.06663193819693686
Ni 3.935894002412355 6.619969362035105 10.51612722569238 0.8682635944487757 0.7277859739152821 0.5590403596750307
Ni 8.26237706377638 7.320460540810905 0.3179090820552831 -0.4685763520555027 -0.8938211312029057 -0.4046358446477999
Ni 7.848393513135727 3.805513059596227 8.43227082191121 -1.566547959360515 0.2738818791599735 -1.5283269682061034
Ni 3.139537153386011 8.4308954763579 12.503228296752878 -0.3620864013213635 -0.335564443771435 0.3929422103599555
Ni 0.0751828334577583 4.885617767462627 10.219816969646574 -0.031061240181178763 -0.6761073145940678 1.080937791751177
Ni 8.552334403530391 2.2396435648513857 5.83655256285489 0.15893428457678435 0.8167656836797997 0.5074738004516486
Ni 3.979705339971931 2.552423470420726 11.167222165361432 -1.8738647211401664 -0.6828369200084174 0.49046826703258767
Ni 1.0664692687834156 3.6348885072895065 12.771157412182747 -0.538730444473085 -1.674930499131677 -0.476662985718379
Ni 3.099829157015189 8.449478528157414 7.995559118615325 0.3745953324216516 -0.6900794605034437 -0.342018684037211
Ni 5.86483656685419 8.027288295139252 3.593161521802802 -1.8083375859716342 -0.9918444392269304 -0.9302235810913398
Ni 3.0555729882205487 8.254252085095109 3.800104274905387 1.1005229129719563 0.9325134055667812 -0.7080522429317806
Ni 3.5891979847164968 4.452724350237516 9.099563065449678 0.20883862560639516 0.0758323737492823 0.5573979389756013
Ni 7.156245189564497 5.951360781168388 11.446139520116231 0.6074200365299991 0.6937101152774956 0.4623244576085199
Ni 0.47093919728694883 9.18712673234377 0.5228283069477497 1.1243778652126828 0.22622853894806846 -0.07395495422091135
Ni 4.437654557376161 0.2522565308540608 1.483994220746487 0.5747148329874942 -0.08078791798234473 0.20862265294084717
Ni 6.11090994354086 5.6498287511142395 0.40876813136423823 -0.012327925437733606 0.05328302769385662 0.20922069153616224
Ni 8.012735959020727 9.218355700682961 11.243767634908641 0.5915589011280264 -1.0319994141792614 0.24428308245693411
Ni 9.146910357418589 4.732741073616117 5.722697554330817 -0.47630843059243777 0.5257412313022688 0.3266789683563471
Ni 7.947227751016189 8.722722922936875 2.5675767826160105 -0.9533269998780226 1.430954149281884 -0.3334324850300967
P 8.678711865230943 1.4225793679233851 3.7413502391230464 -0.6853776841524002 0.8664085435179079 -0.6174288269162527
P 1.975658922312033 3.1678338668491683 1.7445763582470224 -1.4448982701668018 -0.5457631829501504 0.27544485277171915
P 4.561399344420211 1.2085338401613284 8.268697298589679 0.6352769108412671 -1.0832641258915086 -0.776551059134127
P 8.648445184869646 1.6896233599773618 12.644958790795068 0.5042005290170156 0.7698615629290935 -1.0404979385685758
P 6.304166419705024 7.8260974822517 1.116040716927648 0.05335604702363714 -0.013937693127014705 1.6404234664937425
P 1.7887299435119437 3.3019187105613397 5.982455392318213 -0.7400745614746479 -0.20477962504567312 -0.7799305171293213
P 6.6660048557700025 3.935331154727172 5.922345982997197 3.5327137413289478 -0.8055487319180579 -0.42399496590070207
P 2.5101009557703438 8.476831110019619 10.037575059553905 -1.7574302575988054 -0.6784053665996251 2.3495260050669082
