# total energy = -340887.0549372438 ev
CRYSTAL
PRIMVEC
9.17916861660902 0.00000000000000 0.00000000000000

0.00000000000000 9.17916861660902 0.00000000000000

0.00000000000000 0.00000000000000 13.43464111499379

PRIMCOORD
 96 1
Ni 6.447558252967731 2.4288263993948958 11.488028883316575 -0.06668027493636904 -0.7658773814703649 1.333380012980136
Ni 5.284530039717145 0.4453154371181025 6.116966820156312 -0.13316231781900292 0.45418640188241777 -1.3550361577973309
Ni 3.275990238114761 1.8355308297284192 5.143533418724465 0.4787880024811818 -0.7706069257355503 -1.085126118800912
Ni 3.5775901844678426 4.507678633327213 4.643039244731045 -0.499392566105411 -0.9360049636598073 0.24054032758505028
Ni 3.598895035047186 2.3890622405367665 2.7093234368802857 -0.24451036797639178 -0.08877762105604065 -0.15807373634870195
Ni 4.77469147197544 4.4457008861873035 2.508449262548883 1.1949006538235938 0.4510550553422877 0.012801779750358597
Ni 5.371502663258414 3.3448615409569915 0.49755867583948804 0.18667263103231724 -0.5109388761821135 -0.23406320450113882
Ni 5.6277299786706525 8.37459621558089 12.355517237397398 -0.13426146442045264 -0.1831399352887104 0.7695769418091392
Ni 1.9608540201462485 6.719160675971698 0.14601670836098882 0.47558775037632933 0.38821857963204104 -0.6918236968880602
Ni 0.8349408576636589 9.366882711629245 13.232342641891536 -0.0998845296024796 0.29469110259584086 -0.04368535670309251
Ni 8.372457469271115 9.310614407427877 7.030751229550353 0.4345727414165484 0.2295889707798691 -0.23761749751130043
Ni -0.1976366815268649 2.6613255636879596 0.97924014355873 -0.10284052690700998 -0.9120157998340616 0.8629576088548299
Ni 7.465638213095344 0.7204362354891792 4.757932145742021 -0.22092178202317436 0.6983010770822877 -0.37833037398405167
Ni 0.9761036216100174 7.583902622774047 2.1350461868671236 -0.5917129102073874 -0.2848098389263869 0.760261063724852
Ni 7.660153977260306 4.15904462649651 3.897778865378541 1.3558352566598584 0.16804447440816866 -0.2920282110516971
Ni 7.508752768533164 4.060240054486146 12.869513050648532 1.3455685846265277 0.6610167388095326 -0.06412639816626374
Ni 8.567165995979018 7.453227976997424 9.486979283382757 -0.7086623657119537 -0.622915818172753 -1.295952721371613
Ni 7.110624684010164 0.8634825648551332 0.18889076957856724 -0.6715299796360306 1.001438767783585 -1.5314601145184463
Ni 2.1668988202128285 6.917329749283828 8.870611873159977 0.8002278339257767 0.3453544332786633 0.8300855407171575
Ni 0.38450069065393744 4.980901497078826 1.1005804926726486 -0.7558367094049111 0.5124329442291369 0.5213981238422247
Ni 6.887231255078887 2.3561640998748246 7.223578026672404 0.9228239461931592 -1.031526845418217 -1.0373393383349359
Ni 3.3956865981124533 4.645228476468733 0.17690185732450386 0.13461190578133592 -0.3229493261105858 0.4465247715721019
Ni 6.389509190036335 6.0833380176649365 4.759422842740765 0.6142447727613164 -1.1437341582521074 -0.10412170761227874
Ni 5.7109483222089255 2.882938233889209 9.303018645319126 -0.2938390390081907 1.497202735997473 0.06593208391643483
P 0.11500121520177078 5.796112649514031 12.526472829230606 1.090862764174373 -0.5951167936826138 -0.8659758268558634
P 4.205381070152059 6.589302976210397 12.76511285739165 -0.25900753315130226 1.0083478361985925 -0.7028948671005573
P 2.686155215052512 8.595079848030625 1.2454516407784448 0.6499753933937064 0.16920661303706988 -0.37480667710150933
P 7.02697491954245 7.90729391564818 5.65567503989588 -0.12058730936746975 0.9524646518777274 0.8204945545946127
P 4.955089674662147 1.4553113033615155 12.948051853977693 0.4873862856731542 -0.7897282199460335 -1.0461119423212435
P 4.305828713361779 6.453414562605655 7.86541854798641 0.8157053607360855 0.1852181579739778 1.3500191641987136
P 5.171222381142642 1.265146465165795 3.855930117306035 0.30425277814234697 0.3142633683008136 0.7241177810350754
P 0.4398804513240355 5.856052621199993 3.528783626512035 -1.1905176942645497 -1.0879988123630167 -0.9645691484507452
Ni 1.1291387223678033 0.338834326314327 4.740063975928255 -0.1223701122995054 0.23589922926861312 0.269122252987801
Ni 1.9754856150723468 6.658119204040359 4.709325693664124 1.642701978115274 0.19816186261883934 -0.7435380945432163
Ni 6.486890990896421 6.0351198444235346 9.094903024791236 -0.6980532227375397 0.10729367758235715 1.1700931078616108
Ni 8.624866250499378 3.016724617859023 10.543076606562705 0.3828040934846891 -0.8576768200718647 -1.1211418747738886
Ni 2.679518676074112 5.537691512779749 6.797928040601774 -1.0324336735032025 -0.15366352309614825 0.012250535232578902
Ni 0.912308399065235 -0.054822585129311256 9.089072416825704 0.5617122500802391 0.9256863553426187 -0.26055045215838996
Ni 1.6303029756771605 1.5825162233651984 11.00352206746794 -0.3111075962806513 -0.11956298186801345 0.3506149103466542
Ni 4.150875166343294 6.721152555582089 1.5303941496708044 0.300697713801237 1.3200007634597526 0.5844374595918967
Ni 6.303261720823273 8.470197257710948 7.962900401785451 -0.24407199488739256 -2.108398951740453 0.41987451597442527
Ni 5.473749423535584 3.2134250241773166 5.457755639972702 0.35953818097821305 -0.9167381450103953 -1.5944259167177055
Ni 0.9104688936554545 7.641979223211577 6.600009558595467 -1.9202607919062027 -0.7672863460027496 1.6015632990934352
Ni 5.558592479935789 4.473890113300257 7.400458771908871 0.3346239342350366 1.2547037420241551 -0.019937876574507598
Ni 0.9537707041349878 7.667111787143608 11.262595843097609 0.5717128129363767 -0.6787766338961149 0.3678613561319278
Ni 4.8772503239888 0.8670450002320584 10.606783709087857 0.29147979474739477 -0.8905059507867438 -0.05399265216637153
Ni 8.741469230641302 7.765833746635569 4.148536314155609 -0.3409519333355935 0.4703452710304674 0.9136867597785813
Ni 7.5464883311060555 6.24932492547462 7.070154647078121 1.0412854674668774 0.9093639640335113 -0.7124179760996441
Ni 2.345497905832085 5.4786786371336476 2.3745995423149595 0.16382452278955012 -0.7240627594274239 0.9419670947805132
Ni 2.6073704100018835 5.568074561214747 11.488015114563508 -0.04985420451796575 0.45698376212189684 -0.6892981022527289
Ni 1.172161486118508 3.3118991461140688 3.2641748121493444 0.24899899987536472 0.5789748938154287 0.5407243349746623
Ni 1.5058426271182102 0.7441102295129559 2.4074068092066585 0.9666478853566447 1.680029768031455 0.2492890203119577
Ni 1.3386348898698999 3.5517141078701817 7.839717793511139 -0.03459907813110816 1.1193827259909368 0.8586913773793083
Ni 3.5481617695788397 3.2171058708306197 7.041821307016398 0.8355802452831415 0.2265699814478872 -0.816338109224078
Ni 4.5604404950807975 7.181441970619228 5.7734566253003585 -0.9319534192982529 0.7897935259663301 0.46157420970605667
Ni 8.626858130109769 7.400355965219302 0.24392722933885597 -0.8081851410996403 1.0013883741616239 0.39275143450538813
P 0.5227352997813339 5.859990484577217 8.068509491561636 -0.8261941760825512 -0.22504377461134792 -0.41680179058637257
P 9.122450628011258 1.8419470686577433 8.24091630996813 -0.22255391830995866 0.3471207811504667 -0.09475569301634648
P 2.142390439753178 3.8039760223990613 10.303738043662719 -0.8829985866661051 -0.8232626042580531 -0.05525172138445324
P 4.457955076417129 6.190477274865326 3.7882199793058065 -0.49516464406699234 1.6359520609859501 -1.3246452042102994
P 6.864806545916743 4.3570209372657 10.459861934691917 0.5997825745893993 0.8561786382597835 0.09860232045594633
P 6.533475272107179 8.118212854300555 10.376124050204574 -0.13283707326910024 -0.09444150421003734 -1.3876151201746167
P 2.644683730814047 8.407788089641599 5.900776284912935 1.7593616702935635 1.9137559009081493 -0.5208301671538965
P 7.069345962314641 4.478644922692804 1.625323276651183 -0.2763930756176014 -0.03727302541884549 -0.18948001857412528
Ni 2.9191867711308417 1.6737204436824586 0.24950173849733742 0.2482364106777273 -1.1214480931603976 -0.17320390712192105
Ni 1.8478768116453588 1.3923238476633435 7.068622643820175 -0.5416062233589833 -1.2030379382187477 -0.24687064067845224
Ni 7.43080326783528 0.9623715852176441 9.320322296257137 -0.38999212659269605 0.39363975064761236 -0.29758745030702943
Ni 3.378760211008485 2.296857490829955 9.125869868356283 -0.8775859002909661 -1.7399063897824294 0.5953016559999101
Ni 6.900660378903782 2.461788794237819 2.4276661524697647 -1.3380637916090503 -0.85130485510725 -0.20410239647299044
Ni 4.468052161999757 7.028856649128304 10.170721791947797 -0.23178212177644597 0.8865770480459827 0.21621974856181472
Ni 7.457652336316357 6.473645450445757 11.537898389009172 -0.38640415213112167 -0.6663864877618781 -0.4223286339418727
Ni 8.223176648516324 4.074697245206726 8.100806396672978 -0.05798043316952595 0.39622396643502084 1.4503127563141538
Ni 2.965725156498043 8.639534562100321 12.229003508797689 0.9029732300158191 -0.10806295164821389 0.12913725582000984
Ni 0.2903857559382671 5.167266159427995 10.366195861326238 0.5612625641373301 0.8742393524162362 -0.5081741689527829
Ni 9.006774743909192 2.50144280307141 5.551194069954335 0.16756984876459527 0.12513636219073285 -0.039716087642699335
Ni 3.708062888532812 3.0163207344357175 11.61153368041266 0.5949298744827883 -0.07000676820644072 0.21030801106307007
Ni 1.185104114001694 3.4610606376756103 12.589427239921417 0.07267737306006838 0.7220395583498082 -0.7708794626706466
Ni 3.5808120726855717 8.927411651229741 8.005931426787996 0.20644878521797994 -0.4657831055810817 -0.3682069123968046
Ni 6.038736436895857 8.301107790876785 3.489567464025981 -0.33143113832935184 -0.34039631794243963 0.3234311508430108
Ni 3.491122415205705 8.760304884837257 3.597528256826047 -0.05937165709009775 -0.16257728064601032 0.2000040580339007
Ni 3.7633765591881874 4.677465716983449 9.103782952602723 0.22982062717470098 0.6492495709712753 0.4710009023365952
Ni 5.280068963723367 4.946268493530414 11.93810280149471 -0.14013129293766835 -0.9463585389799896 -1.559478196997927
Ni 8.517350647381818 0.3129637572178932 1.8938809693935519 -0.5300840816519967 -1.5300066699013712 0.41553397961754246
Ni 5.186138530298797 0.682756665845427 1.7048690347879931 -0.720769690498449 -0.288237119440381 -0.5563214180819709
Ni 6.294807706440001 6.095711537088011 0.2469793029354229 0.10226871356394002 1.2448546171442172 1.3978342267994637
Ni 8.269659958871257 9.132354951050944 11.237069492827855 0.2545404985188843 0.3127307337063711 1.645009028981896
Ni 0.2924308747271847 5.028082424255832 5.731083746694426 0.593445576627778 0.4968343184599314 -0.06468638443479183
Ni 7.527322226836486 6.459812443197556 2.549089114102087 0.35218071217187735 -0.7071145616088597 -0.9136803320206781
P 8.769144424306413 1.8663452990928557 3.2597275049086325 0.3830596611389209 -0.0491306960883799 1.7759547987655544
P 2.063247647122802 3.3199951729175936 1.2380697533006728 -0.840955650662442 0.8191460109865182 0.997577485055966
P 5.337346976482998 1.1772651039220905 8.181347176698111 -0.8107721851005264 0.04318322025569338 -0.027096599106475914
P 8.633678252462397 1.887622612166065 12.34538710680741 0.5422680253126984 -0.3027664234048076 0.482611232882014
P 6.767415565887945 8.250117508684516 1.334831960272734 -0.5299825230771259 -1.5490958253223386 0.033101667649975255
P 1.8743954300528232 3.496033270466347 5.54302552771799 0.10185605150655361 -0.4335545845646791 0.7635585035292012
P 7.473614910705619 4.30614080509797 6.056081394093069 -2.1111736862721124 -0.6800629568077062 -0.33486973169725553
P 2.9378480211212796 9.243331100772732 10.093875627329034 -1.3448908418332128 -0.6644000534594687 -0.12672376128251078
