# total energy = -381180.9627896291 ev
CRYSTAL
PRIMVEC
9.10758387374591 0.00000000000000 0.00000000000000

0.00000000000000 9.10758387374591 0.00000000000000

0.00000000000000 0.00000000000000 13.32986960792461

PRIMCOORD
 96 1
Ni 5.799263051126591 7.67325769569866 5.5632746274408005 -2.886853912765512 0.22047415296279452 -0.17423337682769993
Ni 7.487663354337817 7.748258647760027 7.020669266027896 -0.36052805569530816 0.868786299721465 0.237538564644249
Ni 8.583843025151912 5.18629534298012 1.3247608966478506 -1.7968056740726344 -0.5104382823966113 0.2564382297622293
Ni 1.7923906943025067 5.436316731685482 6.438153674859251 0.8347168688415818 -1.2661528644013613 0.46911139862336626
Ni 2.0041693389027455 8.330879886900004 9.398997270708453 0.04130965738206434 -1.5486039732875847 -0.8962454243736823
Ni 3.3151695872847164 3.5371305105011794 5.638934968564612 0.27360291446697393 -0.1253559344007067 -0.897596796195254
Ni 2.931822280276216 0.1258449490228469 11.357421948783193 0.5820031391187913 -0.2481500216115081 -0.2387441549165759
Ni 3.967227044823704 1.3539425056945809 3.464326307636801 -1.1766203674571671 -0.8453509515166603 0.44474891061860183
Ni 0.7109971856829027 1.8249685213241835 1.733936400371691 -0.43236107847721017 -1.7072171270795242 -0.9254469856383029
Ni 1.7133824053975448 8.7874885974764 0.713019069272171 0.3512157771554467 0.4879444721694694 0.14811353981219652
Ni 1.1690676634488388 7.233579983286449 5.235986319840694 1.7415110152653879 2.071089930877349 -1.4700963666989841
Ni 4.309052877582323 4.7587580396872555 7.542626711422838 -0.886641325625015 -1.3350944245680811 0.08083419783924788
Ni 8.807324914852195 8.481100373032389 2.2843659740403734 0.19213031171277878 -0.6582638586547437 -0.021148866163473255
Ni 4.052446705836237 0.5453994551715975 13.356395411164868 -0.4337379042200788 0.2370402848515918 -0.18828265583191445
Ni 3.1510327132045757 4.444264065718699 10.115918028852889 -0.08093472797285416 0.6705660730608645 -1.622309016281219
Ni 5.552811835245524 5.453238622265934 9.541693981916987 1.358459581656583 -1.2829485958024613 -0.9543158461538533
Ni 6.646869439049261 0.8518751124194707 5.4754574835469185 -0.4758181212195805 -0.4881920694039011 0.10860416886366459
Ni 6.330098569146843 7.964727697984018 9.138665186456198 0.7697810874001452 -0.32113746971282753 1.757445169997141
Ni 3.145686561551871 6.925525071018852 12.949555091910796 0.261714133449188 1.5728993554998396 -0.6978930430105916
Ni 3.631594369005186 5.376725811304484 1.1559919054798642 0.9086918776671511 -1.170365644796707 0.28296635795974495
Ni 7.507108045612987 8.92387466391465 11.143477520770666 -0.7160864260901668 0.7668883392333824 0.8435730336806312
Ni 7.157622734932861 5.3112240690791825 3.8592639257070247 -0.8805205574392577 -0.13677960285661603 0.6319159647888343
Ni 1.8847689161310972 6.525765898119085 10.968509908112338 0.5399612315563926 -0.6541518933688992 -0.2378728080552161
Ni 1.0777732440847656 3.578005346305844 10.813097188492376 0.22032888563418182 0.14159476485707229 -0.2885096563754773
P 1.786261290448554 -0.1096789878924369 3.0544996116758765 1.0023599940462737 0.4872957828418769 0.03102061675123045
Ni 7.56267341398292 2.6866279109506395 0.9396148418516006 -0.4825518403989883 0.5980673916705055 -0.4877732366989277
P 7.226139087374594 6.692307174305381 2.1338321870274894 -0.44073310459098936 0.8884817212678634 -0.09238179346753123
Ni 4.070033450029377 8.236161016051405 1.8236861735342333 -0.7529966688529548 -0.463316389208144 0.4709847043866792
P 5.40498664363556 4.230618366452695 4.611468374000936 0.0472627896417057 0.7410698355083818 1.6820377996004192
P 5.104572994121997 3.331335548415126 13.372524941960338 0.102572617957604 0.5976200197204418 -0.21099218161428823
P 0.9010032406051932 4.214825816255438 4.762762644255729 -0.5396069335407675 0.2654998257438653 -0.5790857083616802
Ni 1.291628417776685 6.484126025280642 1.3527284647826467 1.2465443461418144 0.9556808448221799 -0.22253437792593286
Ni 7.709915720233815 7.948561736853609 4.556549644076219 2.391766658903674 -0.11105982949300873 -0.8521319789942357
Ni 2.5265621268002425 4.463144086802271 12.596567004526019 0.22987487745140409 -0.7374844321499686 0.20537354987593018
Ni 8.787151616878191 7.277378353470192 10.389567222043107 0.7756036076191933 -0.9241938299574921 -0.8644678748517692
Ni 6.3584322621478035 0.942689562120686 8.090217451241184 -0.04034009437994343 -0.30787443405533427 0.5860001760933263
Ni 6.387931725866901 8.78161420596704 0.9710715253154447 0.5713713704365578 0.5945822613353825 0.42373631292267666
Ni 8.364933142486823 2.5740490683968384 11.806918547220583 -0.31491951382757377 0.3872793556472233 0.11903127773425953
Ni 5.761985710897426 6.677643964491319 0.391771821963784 -0.714713199891724 -0.8520579312231906 -0.3785126651981868
Ni 1.0439658932588038 2.6462539922514243 6.308014500105142 -0.2126384589684596 0.5339281379884353 -1.2996335126573102
Ni 7.954836862047329 4.759359140213794 10.332714952091354 0.7084497354805153 0.325453066369046 0.05804393941760972
Ni 1.403515083966593 4.165726832337668 2.20676025303067 0.8460338365162978 0.9021270799654398 -0.7524744778008976
Ni 2.626827516143726 0.9723256395958151 5.426429538782285 0.31848871923607086 -0.5218848336706561 0.39014793544427
Ni 2.978872057853511 2.659678570677466 1.3576201480069525 0.5901735907447255 -0.3349196110985845 -1.188672927746327
Ni 8.65206793491411 9.255490895305837 8.486954727857531 -0.7923098646302806 -0.05513884995567279 0.8951529626404519
Ni 5.8868233611591325 8.97610665663741 3.4696187245454664 -0.6493860965491397 -0.0313142367322493 -0.909749372397388
Ni 6.216026082860428 3.2695679155213564 10.935251744585623 -0.17802343999775147 0.09909468671133256 -0.48190983593961517
Ni 6.648517911705375 6.543507471235726 11.37597682912741 -0.4192862475711231 1.4067510696731191 -0.15934977484764815
Ni 3.4880497417508813 7.903187754683635 4.2125316159124795 -0.8908409655286593 2.075677807358348 -0.6217881323262131
Ni 8.794173563938216 1.2615278535310483 4.53814048507177 0.17110820093515694 -0.3851898201080463 -0.3854114492005491
Ni 2.705954203637248 5.839409280232421 3.1496346991011857 -0.3128623741882289 0.9987259968381123 1.833034317387366
Ni 3.940569147230065 2.636299403228586 11.431416512841794 -0.21285108919989795 -0.0821230918540005 1.0751227277312967
Ni 7.110909937953778 4.761053150788587 12.750113580238587 -0.29272960799409586 -0.87998911041582 0.28085162560958726
Ni 5.558786410175974 2.5274911003412575 6.668053678817898 -0.9919701661715175 1.5194669467123123 -1.6785413564113865
Ni 8.545436344539553 3.312655894173734 3.044235364806033 -0.6369257592985998 0.434885901781593 1.629755445256935
Ni 0.6170515486934424 7.277842840240699 7.677285069226473 1.040038225323338 0.22676409973656428 0.29603913198330306
P 4.64506807191773 0.4553892051142217 6.415212582188046 -0.3239901086702743 -0.19639037254071337 -0.6207872018655244
Ni 1.7414975163888553 1.835870299055508 12.604444153698802 -0.4350442817363282 0.34774453077739464 0.371262925614309
P 7.664687459403609 6.276691698122209 8.658243787445114 0.26242170103917384 -1.1943779485509043 -0.029496723907536295
Ni 5.073725608010055 6.500155372655021 3.203261062893843 0.7943762602410062 -0.3357721889068669 -0.5593540342607076
P 0.24566249912957813 -0.1903557861377315 6.180501041741962 -0.628466572787653 0.9297522978818761 0.18710457636341324
P 7.478501125099963 1.628208282303689 9.973367949742492 0.2870832083415959 0.45980863316520165 -0.791646777124985
P 2.735708679700938 6.040850817292933 8.532089180575262 -0.291226283975692 0.6110440064358316 0.1532709156434199
Ni 4.06361260349589 6.0817620834325385 5.390346202780837 0.06320800011705242 -2.099428629921042 0.44373563886273903
Ni 7.580159974754969 3.536502087223434 5.476683364317709 0.34357754388389855 0.43688544871012497 -0.2798103288292665
Ni 8.049200537130245 1.8933573675936193 6.980306276429164 0.8460559480034848 -0.15868540179077187 -0.5226019143423387
Ni 4.257248941295128 9.1414639469381 8.528917009160208 -1.657610005575358 0.6405165619736518 -0.20624823917139962
Ni 4.630186280094017 5.251114016425263 11.658797359139218 0.1988339489851995 -0.49666411143065436 1.9730329414019117
Ni 5.219392302274718 1.8298319710389097 1.6811634171750445 0.8198224682282527 -0.009083193248190808 -1.430998372256258
Ni 3.122890279462059 7.930838378904438 6.713868468040667 -0.7815181733314154 -0.08517242020328558 -0.09149347732530695
Ni 8.395179428072225 0.7061865599538422 13.190599135328132 1.3438446599568856 -1.2175762410442386 0.6505621191351117
Ni 5.334621451695534 0.9174888779247172 10.351163273705867 0.17178542950783962 -0.709071171114598 0.8386593984290975
Ni 6.310444403445758 5.474304463446011 6.598178474882839 0.35499272769937573 -0.11914543471462062 -1.4560563436661504
Ni 4.909106031991936 2.851010689791637 8.840409123529561 -0.784786559670042 -0.2625726247947413 1.4425534240837092
Ni 4.061572504739151 7.218342995697055 10.054413605129072 0.30616259357055015 0.060993508964236894 0.793360160271666
Ni 4.951055562677383 6.848238115439888 7.750092915124345 -0.7818135930846472 1.9832397067315848 -0.13654511824830678
Ni 8.35756510724485 7.281440335816199 13.175602587949351 -0.7179458478964088 0.9805387844061242 0.36464824851126876
Ni 0.7800417779812905 0.910573489594396 10.296710852068404 0.07751953164371811 0.6783963677385606 1.8919377765917935
Ni 7.057138763579728 3.8382818742973126 7.988124169841996 0.651152187310627 0.004838044818591668 1.1814008195649461
Ni 0.36300916176888387 2.5598139150183417 8.651511461547875 -0.6923245477838785 0.9374602080490951 0.7107179626894018
Ni 1.791762271024761 2.4158412313284705 3.6485854772220274 0.6739478450489038 -0.15643260120085317 1.6659498928996213
Ni 0.13932690522642208 6.106607571862826 3.5190055081092755 0.9844039237884853 -0.45943402343460227 -0.4847982132310038
Ni 1.6730722397844777 0.68901785385416 7.6684871433380355 0.6359178868593758 0.569386221685729 -0.35092884204264724
Ni 8.507940422300736 6.0525904927279175 5.895187766061762 -0.16440199255957494 -2.218944303490888 -0.27012883987544445
Ni 0.618033346220123 5.134099780592302 8.637555000231684 0.21890783691693913 -0.8962914471202693 0.7116646428733873
Ni 0.4968496585530755 5.54284813863895 12.54514012220547 -0.42261428350309155 -1.2313360138324922 -0.97058912939258
Ni 6.053118732584573 4.621005835688692 1.7709268517131898 -0.39392411465725063 -0.810517645887559 -0.4326241023306097
Ni 6.304424290596631 2.476333802499278 3.614487594474905 -0.13231436799641083 0.15909677829657762 0.7737812096984737
P 0.4839259972324829 3.482366609499965 0.23856495912454798 0.5064921532646697 -0.10881371377130938 -0.8917663055564061
Ni 6.160715726835088 1.3932781598479562 12.568893611345878 -0.12768021165850915 0.7681967736321609 0.18870740207415887
P 0.97685210871233 8.380151914908746 12.018890272596014 -0.5957996786822514 -0.10961461240604993 -0.31668920413348683
Ni 3.916871214350444 3.7523336065859443 3.2156710564917566 0.30334440739546464 0.21587907739294435 -0.43122105133549604
P 2.8818671834873157 1.8392401050376215 9.70891741612507 -0.3471737458755892 -0.10779170026469823 -0.613098317861699
P 5.129363837049871 8.207982151973946 12.030766561787031 0.16648895699559071 0.08190480519560732 -0.04622123575106879
P 7.451797689587646 1.0483011031168743 2.410173581969905 0.47089728687919546 0.5341073438787769 -0.06263181589860825
Ni 2.585433548066141 3.2240573195953517 7.891802364255959 -0.31708412557906035 -0.5076596912102096 1.1938686130146534
