# total energy = -340859.78190394724 ev
CRYSTAL
PRIMVEC
9.34503666480505 0.00000000000000 0.00000000000000
0.00000000000000 9.34503666480505 0.00000000000000
0.00000000000000 0.00000000000000 13.67740576972630
PRIMCOORD
 96 1
Ni 5.85873990444668 1.2095561302146425 10.6757353055212 -2.7700486961482937 -0.683155736800417 -2.2428748461645567
Ni 6.275332293782 2.962619592665141 11.991761307428236 -0.26229957363901274 0.9393435411147372 1.5182659844256756
Ni 7.560312214892028 1.0016851347150828 3.9689370620533553 -0.4673607344808467 -0.20124358686795663 2.8852153487208243
Ni 3.3539710379776104 0.8055758023577524 9.828474098127264 1.4087418748509029 -0.4137722597314293 -1.6148762141522575
Ni 1.6182239284609672 9.186984056495039 8.174178328152708 -0.4342158722977619 -1.1962299141579786 -0.22897704822748308
Ni 8.750813815353766 3.09557142924904 12.22243045436732 1.7081581508365549 -0.04702136305486095 -0.4112947447252142
Ni 5.117463561342401 6.217467826773671 10.890757123074183 -1.1454706813272402 -0.24759414910803812 0.18342712751182605
Ni 3.1450627434086185 5.457071538659857 6.490695205173126 4.984862522410577 -1.6291710335083747 -1.0187749450691874
Ni 1.4860944551032853 2.85446013834434 2.361321619210582 -0.6438080882407299 -0.19590777647734 1.7744419616654536
Ni 0.8084671567008365 7.6642009874585 1.1747486721613603 0.4694548980057141 0.2490967017954936 0.5053253866500781
Ni 3.0068496511842664 2.2764883109006804 4.4180754105698625 -0.15781636892225726 1.54734310429729 0.08766510471815225
Ni 8.165842555450604 0.5999513536716297 9.48759239231284 1.2273932271346604 0.7400349664859642 -0.2644158486510672
Ni 0.8019022684460962 6.090487468616504 4.550486169531057 0.23705802546340463 -0.3918075825348801 0.9750654199963787
Ni 6.960781387870168 8.793913124436843 0.43452738369617094 0.595855214510535 0.6360464420174401 -1.9697470715617882
Ni 5.24289264341375 4.745970318935729 5.432856679662444 -1.09320863869873 -0.6443014829373807 -2.8349932193404785
Ni 6.176536566196074 7.759127869866544 12.035980151903368 0.48027769965283096 0.9849554254165811 1.7505882949763076
Ni 1.1853805203712076 1.9461225748414988 8.366632816671705 -0.5342963199611314 1.4966003265267838 -0.10634751161900394
Ni -0.2424074474896569 5.2723388539343 8.414996184906235 0.35449264813450565 -0.1654684861508763 2.0346211465273543
Ni 3.332103652189579 5.1511991436906035 12.4119309767976 0.667543998405089 -0.27147455527006153 0.7061285435465064
Ni 5.434690175855441 3.422815923063263 9.915831500839452 -1.3368761990588525 -0.019833746896475518 -0.2989663329324271
Ni 3.965865348502703 3.821587327485004 2.3416269544463613 -0.4758780279232385 -2.2524264944087338 2.026908865484761
Ni 5.509450469147856 3.1499315075092866 7.148386736865486 -1.976374604180635 -1.176991891863973 1.0461677352598435
Ni 1.7036282185108895 2.3124667020476553 10.680863861641061 -0.39331964830403227 0.8531758468777177 -0.01569607057901813
Ni 1.8972947582848905 3.8326518508922818 0.35643184681924817 1.3575201005614492 -0.953279691579855 -1.0969485653571367
P 7.517745572898659 4.668630795524726 11.397395482169218 -0.8692789230871674 0.9061719394587748 -0.45528554848386754
P 3.2725570785821705 4.1261514173216405 10.189653223570582 1.5048808213680214 0.05266364894230285 3.1097924681083993
P 6.868443080617374 2.8958679957916766 5.398485634821256 0.6715091537004242 2.1180758127085846 -1.8410314766602296
P 3.3305617211404233 0.2953368006370205 4.923647500981816 0.023638722464862514 -1.5075079745782232 -0.5588521549236246
P 9.098608044786742 0.4841672839386682 7.151149129702641 -1.1692523571278701 -0.7407726159829371 1.8620736420425092
P 5.523795100423338 1.3044736675860247 8.478049016269058 -0.6801123219884029 0.19237970871942353 0.5618204935233293
P -0.0837025588738539 3.206291423615106 10.045589203892433 -0.09738027512338712 0.48512782865628057 -1.732987551175409
P 8.296486167979099 7.365842001965134 13.148390888006514 0.5189013255623 -1.124591780995702 0.44370427140417135
Ni 7.862371834903369 7.558489932743025 8.229613085629033 1.3445095472343942 0.08307440002367628 0.2685136728695246
Ni 3.251446640763725 6.127241497806388 4.1261859939572885 0.6432933533878405 0.8199075717428912 -1.5665487306914634
Ni 5.181533132694001 1.0777070079568072 13.400329338387289 2.8029179360724887 2.045868180196083 0.5111391651183778
Ni 6.51885460414538 8.391132699287297 3.4332618050435455 -1.1453632092150985 -1.1583200264860825 -0.5691825903153552
Ni 6.070638610747369 5.231398248320041 12.904933058396098 -1.113915018008146 1.0159953254415213 -1.4849352314840296
Ni 6.946773177914502 1.349012112314981 6.754258881160871 2.259845155470308 -2.2294734851569857 2.5536340579668537
Ni 1.2059863262099297 4.882875106027465 11.371846151936534 -0.6747091486949606 -0.6143375895854387 -0.9665550685325226
Ni 5.317391275679642 1.2116867985734763 5.260808947701277 -1.7798047686392637 -0.6327387178004458 -1.3359647429881767
Ni 8.807369977229477 7.96752218741915 4.533650151481606 -0.34046728038969104 2.159359759059036 1.3637545115069354
Ni 4.742129508867833 7.119675046226534 5.456368791902909 1.04769677030986 0.5561710085470357 0.4970119816883763
Ni 3.3315429499898856 7.616840341657755 8.340550819349314 0.7911083881230118 -1.0519424329600915 0.13986955463584944
Ni 4.560845142670387 5.295916381431396 8.803599254936541 -1.0676804125206387 0.6045779390955137 -1.573977676165683
Ni 1.4437614390264553 0.7619270051189758 1.4579294491090342 0.4979378359367554 -1.259162034905825 -0.6326656984706652
Ni 2.4439794029856743 7.811946017077634 5.866143976993627 -0.3069346958498843 -0.9186798421177985 0.5638408663874676
Ni 8.543952083813654 8.964403973290196 2.056863128288221 -0.3420544223711528 -0.014330043469426932 0.7253917626514926
Ni 1.3865698146577579 7.3918118588475865 12.063704072167194 0.23901154964534968 -0.9236551838452028 1.3310421088755784
Ni 7.439069709245054 2.9725907467830175 8.843209127330194 0.7731402336803653 0.3945113546192883 -0.6562080045669795
Ni 5.966404071824419 2.658504064588259 3.269214358968333 -1.2005719931767582 -1.056668120570535 -0.11848260431964111
Ni 4.017627506571039 1.2245642590930947 2.308376379500894 0.25005520905402095 0.01968616557501771 -0.24693466114716828
Ni 5.613825183620729 7.110928091911322 0.8452735180960246 -0.05745001458735267 -1.570495374044037 -0.25590524007689475
Ni 1.1478508531384155 0.45539204705041775 5.622740348595849 0.2836944943750211 0.6443917286583418 -1.6978202592456566
Ni 0.8557941603695998 7.199902185965957 9.21472853583952 0.3176903917044916 -0.5903990764919703 -0.36372933624142517
Ni 0.7457628952054896 5.737478708726382 13.73731322941018 0.00538800378479072 -0.18563724778926738 -1.7581992745543464
Ni 3.74664947849602 0.13397418359467214 7.093444462821225 1.3880555501461451 1.6207414146837829 -0.08530046114071761
P 5.361275567842289 6.419787870496268 3.0782504037968534 -0.12455477865565003 -0.5471196969780449 0.4985155628170963
P 6.197404033061319 0.7115824891121976 1.8758703272346167 -0.9282248054937563 1.216413845305021 1.3847501399219957
P 9.099944385029344 3.623276304490212 0.748348666849741 -0.23075625161509292 -0.3804070540074223 0.876224244056749
P 3.2291026581059543 3.155846915716049 6.933227547273582 -0.24108154480050098 0.13226757391887545 -0.32003138113284235
P 1.6675657220339608 6.294611104414781 7.274369045107199 -4.263400433830793 1.7854349703418477 2.7093094692867083
P 7.38900834784912 0.7941804646526559 11.808990145897939 1.9871171874091198 -0.8002813128715314 1.8867773154367762
P 5.7839141958976334 7.342376614907977 7.627287158141704 -2.0917893682082296 -0.8679933715065246 1.15318450503173
P 0.22595737945432715 8.601788515711998 10.665353904293884 -0.14289291484320552 1.4141432483721323 -0.2568665755488995
Ni 9.329561280840334 0.1260094088480315 13.10383001518957 -0.3150745513481993 -0.06930357149182903 -0.3453446630866504
Ni 7.844831201089636 5.332997486904433 0.7027888096136771 2.3792327881027218 2.9444556224393805 0.08814924344342237
Ni 6.783235036337344 5.536420244953094 9.488262431441472 1.5822219184523458 -0.022183992296206954 0.10450300221109744
Ni 2.0880176115105025 4.17534369030805 8.574775752738116 -1.3431849148856996 0.7981400981588126 -1.5777854799475473
Ni 2.7767094333202285 6.525741896164944 10.41345657207442 0.5755319295721507 -1.0480029886963693 -0.42865097661547463
Ni 6.920906116435326 4.6380725256414514 3.487683560545759 -0.04420857619641418 2.6684890928362366 -0.308871507861281
Ni 8.718050116818365 3.4309928301421206 4.166725697498767 0.9520594460195088 -0.3512767123003692 0.7326227331822932
Ni 8.651588216081409 6.6218929783756515 11.110266427232038 -0.94383217301371 -0.3760654892092749 -0.6903483978941143
Ni 3.4908758250693452 2.27817041749976 12.06691876477877 1.2728408179444983 0.8212013508536502 0.6485985676508379
Ni 9.13876366732143 2.4173834286468976 6.413732286739583 -0.17078938414315747 0.3905688250317725 -0.5120007417877246
Ni 6.466120562264242 5.138901075444001 7.099831795379394 0.4858371960184794 2.923347893926488 1.9730259994233763
Ni 6.581242068897901 8.38646018095652 5.918364041858379 -0.14914326662829153 2.390776012855631 -0.5115340865639514
Ni 6.175200225953472 4.301754001228862 1.219421685418243 -3.6916007176075647 -2.9452197542989147 2.1395622647171346
Ni 4.123731052826298 8.112089904573358 2.2843596352807056 -0.967352110512521 0.5454747051754542 0.2776822267426701
Ni 7.510577929779249 1.8719042936754537 0.05196587986755761 -0.17405725626115182 -0.495379845401592 0.06668284603953031
Ni 0.7046699654936476 5.136134944592182 2.4009595267142205 -0.5901831038264223 0.3802139641600097 -0.4575563467959152
Ni 8.06742062933114 2.1799821172968343 2.1854031730642007 1.2323767963921808 1.5060686710285351 -0.9534385857552226
Ni 1.8771748943525692 8.258601389353167 3.6608947495712894 -0.17685050273557282 0.932938923139974 -1.0294419378647301
Ni 3.5290502998317845 9.235026889972076 13.468702299121531 -2.399019740921662 -1.9673459183194635 0.8701839513999402
Ni 8.483115895146952 4.592048220083309 6.507874186068056 -0.07126532320389017 0.06638459807282115 -2.8283536025367746
Ni 1.3878127045337443 4.140524083707108 5.9199779296898285 -0.035333128083655276 -1.3226178893676253 -0.2853893655789408
Ni 2.1621424423099316 0.1593992248397563 11.68051831988959 -1.5227458745739002 0.5665214985434244 -0.20049822406149986
Ni 6.579158125722374 8.406495939558887 9.900951398963263 -1.6311353563235973 -1.2862416647314365 -0.4109214205461955
Ni 3.660207889376665 5.7765129268616855 1.471497507837941 0.19557713261079865 0.3923457144265372 -0.3663698591880658
P 1.4943648125487585 1.7969010294298389 12.99590138327431 0.15092684089127556 0.24145178365572612 0.4392804313048628
P 0.25232813840956037 0.9240783432555592 3.354944790797744 2.121462726902946 0.6727443116591059 1.0149776828102843
P 2.273385758729045 4.38213066155487 3.8535950125544853 -1.33693482021093 -1.7430138250631595 -0.4048567024093544
P 2.7963340103094874 7.282446894797444 0.371582020254956 -0.31724507663695684 0.4029558858422157 -0.6351753522663963
P 8.56916499272652 6.8038688772860505 2.8863014817612456 0.3036002321600126 -1.1533156312929558 -1.3158360905591016
P 4.174315736275279 3.3900241894178773 13.977351710106133 0.9917513652924921 0.08564061808895573 -1.3948532897942687
P 7.857026473932961 6.872994113471549 6.237142866960903 1.9149514638781473 -2.7280893209973724 -0.8242383379077611
P 3.8295866788672925 8.29343034099077 11.033097917991942 1.4384841391103418 -0.27103052575410735 -0.226599549134242
