# total energy = -340861.6460144927 ev
CRYSTAL
PRIMVEC
9.39215064129790 0.00000000000000 0.00000000000000

0.00000000000000 9.39215064129790 0.00000000000000

0.00000000000000 0.00000000000000 13.74636183667619

PRIMCOORD
 96 1
Ni 0.4732685785512652 8.218347590378682 11.188204706897402 -0.003078124704691473 -0.008831996469333176 0.14235298317933548
Ni 3.9805248155405644 2.5948163425782758 12.576930877772533 0.04525167274894787 2.340721005180769 -0.6843654408378019
Ni 6.3582697788421445 3.7814581885169587 0.42869531134066713 0.19347268467328615 -0.12324840113940067 -0.05276726439970267
Ni 4.531017532837453 6.525252820212877 6.038034080721854 -2.0735803013993706 -0.224869968037645 -1.227434107674925
Ni 0.593031644738045 0.6875533068141414 7.173113021146992 -0.030649606565056896 -0.5908086532255632 0.1889933087456939
Ni 5.584037255508156 4.022545296281475 4.840409993359311 -0.1928579339074227 0.5532880305722858 -0.3032341070698455
Ni 2.0847662247606813 7.257784195918424 1.5152065030042212 -0.8481850785313457 0.6058717182062727 -0.9574212245520544
Ni 4.257424192653559 0.9259382929181392 5.473924623823228 -0.6254660953984325 -1.8285973646619345 -0.5404862508219272
Ni 7.234275643550409 9.311715991025013 0.5645518271809006 0.22220424828002378 -1.0849052610393575 1.5534810988742278
Ni 7.02394782823705 7.5511198361732585 2.582859195946346 0.1002928207844918 -1.0026978370016666 -0.27557057971630605
Ni 7.5768918967796655 8.625516093078723 4.695482538694855 -0.783344942127509 0.8139876067140304 -0.05911197567080788
Ni 5.069319238958279 7.823172863697003 10.984565981075253 -0.2823148404186751 0.43652883670165465 -0.2639617918327841
Ni 7.572017370739314 4.600491269100421 2.5471323951662046 -0.5207440351979935 0.6129162837578799 0.4036048322801242
Ni 3.1421814738030314 1.3089464280147098 7.577777576559251 -1.5157126218762025 -0.5795526206957696 -0.27094876467357853
Ni 9.386374194290434 1.1677730158518502 12.107699045448904 0.1976234736168661 -0.1673983561837375 -0.9918956041798401
Ni 9.115081930946399 2.0332972407508034 4.903546845769823 -0.05531239941905958 -0.956065224744792 -0.43096599790189655
Ni 3.528086148072712 4.2157230450251175 10.73500057917466 0.17880428402783397 0.5056418894492325 0.25072163899342625
Ni 5.231812832453698 7.835457796376733 1.3831725923632616 -1.241584431033378 0.38736060250712 -1.5898146431979394
Ni 9.054821894193228 6.620010225263179 1.5166359882900429 0.21488457469015892 0.317809176670543 -0.8245016188714768
Ni 8.841986374731945 6.725765838392964 4.005895831326309 0.26396564848752607 -0.776784772411488 -0.25893502804215407
Ni 1.3946404079610828 2.6027245331870925 13.449302919503893 0.3538151624515068 0.7249073668159064 0.2867456224965191
Ni 1.0667792229580153 4.988002001082819 8.477353981827951 -1.2728169066850983 -0.4356155808587659 2.214870904752463
Ni 7.3879875764529 7.969014174592146 7.738954390573249 0.42867205966139726 2.168699034182091 -0.012099097256379164
Ni 2.3500099432685198 8.084246467441996 6.785823004698212 0.4111070541944404 0.5439958066370826 0.5799915080054012
P 1.989858545304511 0.6384633544921655 12.667437395566836 0.838746301715949 -0.3825215292472638 0.23910513780042045
P 5.939971577957487 0.9479121679162249 10.371739440224212 -1.04039406600086 0.07260255395807497 -0.5290569259390632
P 5.827049754097859 8.254404055636698 6.129255341159069 0.7133302035012682 1.7944274036484449 0.4050497922567669
P 8.317462953199165 2.1006107824294156 8.011778513642104 0.7446248998494918 0.7171302939736488 1.1508106054829148
P 3.175270019545148 8.13137627798243 4.796325117967784 0.6068741913288581 0.14056940891635145 0.46559335816777875
P 3.3896458516665815 3.56189788939307 6.259406125651492 -0.4171015812149785 -0.9046483037253968 -2.5182466796064955
P 0.5776829926086762 4.413634437553611 6.08048284351949 -0.11245388162705794 0.8636163254847514 -0.13370919146140844
P 8.688124167423585 7.838707480403634 13.067373942484464 -0.123756965344703 -1.0913733852622043 -0.6044424419589138
Ni 8.531303432749693 4.090610209989428 9.691844492819133 -0.27917243813495146 -1.3883697389524539 0.25283071491662906
Ni 7.848005709266732 1.8731329005463433 10.238990786940343 -0.8598136639092097 2.7509191744076946 1.5110247294822299
Ni 7.32583971747601 -0.01806674044551107 11.79554623193425 -0.16944855384454688 -0.10863785031507742 0.017653965636337338
Ni 5.307973779777803 2.2612916909040486 6.96528163940112 1.1925128703177075 2.4009706940004456 -0.4976249326820269
Ni 6.461686746530605 3.4523478475151115 11.716504712092659 0.20517094694682084 -0.6853422029287746 0.5880352042454841
Ni 7.448087946649837 1.1282320628077653 3.1323009316171935 0.4689777012589794 0.12943421823513837 -0.6528141483940821
Ni 1.1057566469800943 6.082713479231597 13.165742629350788 -0.17707470293123698 0.26091426325571193 0.00535535077464239
Ni 4.968184563808943 5.267277592238606 12.477228505554127 1.0076628943164259 0.5617096789770778 1.0163133709025722
Ni 1.3839709251444368 0.8509569996800996 9.763504721687484 -0.8494354059986791 0.42564304302708633 -0.8332048030724295
Ni 7.9152910744942435 3.8120484222615154 5.791383063080065 -0.754812639015771 0.5195705837151826 0.9803302679397439
Ni 5.4771451921839915 8.900105001201492 3.6163244615534422 -1.811814488776641 1.6558313164083804 0.4238031616048701
Ni 9.500535781998478 4.213553458290395 3.8976437846290377 0.20902400214432387 1.4063600048822877 -0.4728076165280308
Ni 0.5375860242628787 7.232256331221554 8.055408808955878 0.40250465723741 1.0826902556659097 0.7626503898926349
Ni 1.8394338650303867 2.7400659480003116 3.853476258314284 0.8853449754110945 -0.023662376613946344 -1.215040104885946
Ni 8.23450208900952 1.8943779446759679 0.2854819241181459 0.4611054975997543 2.1714632271907894 0.003909105246419074
Ni 2.831085277204641 4.88948773588581 4.622612600859265 0.8027639700840692 -0.6175789793408719 0.3515752173773945
Ni 7.648920297942393 0.9069999609185923 6.479279183382594 -1.4139776693285455 -0.560558338981454 -0.30290783407867833
Ni 3.1714661986466077 3.375642155469733 1.3052609482107909 -0.13085938071743916 1.260127741253204 0.2532480049597058
Ni 5.947673141258235 3.616513243775814 9.456383283124309 0.5935638473731971 1.142290740937362 -0.7943477209959159
Ni 3.5518388963502634 1.2217872726111214 0.481885876512773 0.2660222739062386 -1.7535016119683609 1.6962210330793368
Ni 3.888246938187088 3.835340955171095 8.156266415669396 -0.023793502875171926 1.238459512251151 1.6190414012735406
Ni 5.1446442848997425 9.649964894333722 7.962827565145557 1.1174906511745464 -2.0307071561849286 1.0227336726066194
Ni 1.064835047832095 4.514731544101481 11.072597667247916 0.06651289612056932 0.21675968022568476 0.5089485852249622
Ni 1.798568618784588 0.8196266644866416 2.087398844508486 -1.2153285826606424 0.39200067238229264 0.6442192076362195
P 5.7116671868421385 4.6040978548412586 7.06136803372832 0.35759468409859707 -1.114069027087507 1.4469947476845142
P 1.6706287464885017 1.217419922690575 5.312419084546393 1.3925673219735695 0.3106206293419037 1.5386846572913435
P 5.388558429924655 5.795989912834965 10.48896850424204 0.6979303240064303 -1.1853785732657713 -1.433379470893925
P 2.0510765813950917 2.865958331516443 9.7368497989466 -0.6651711272975384 1.191860067225057 -0.5898982255961518
P 8.593160135065213 3.832598447263999 12.278552591985779 0.6290455852195747 -1.554469430929426 0.21467143023808835
P 8.797730562203743 8.653410779668016 2.5897455205952586 1.6586919257856272 0.7222475605955562 0.5641044044614995
P 0.010816000362367722 2.287467613976225 2.111440871017334 -0.16224817944136574 0.4587148858803906 0.4934412336179824
P 6.327951917458224 5.885290478522175 1.097559178139981 0.37673397603120923 0.2852973200857667 -1.2276091998002083
Ni 4.8428275328637165 0.5151312711660146 12.301384909527387 1.909692529472053 0.05819537739380944 -0.5803794874724392
Ni 8.991124330405821 7.742231311836214 6.12591455327361 0.9761401411177963 -0.3639442804657087 0.40613582623209404
Ni 7.812663047436592 5.817629427279993 8.401446622563748 0.14414787029622916 -0.1920125551879919 0.27680368079245876
Ni 3.6697855206561107 1.4443154912509082 3.145703530190568 1.5838244870527753 -0.1712634955660986 -0.20746051431194595
Ni 9.115363695457402 4.346123660717297 0.6068399842072645 -0.06684225443553005 -0.744215323115899 0.2569964162585445
Ni 6.775018274916285 6.171995260618074 6.238923724131649 2.3082132623610505 0.1452436744635692 -0.8530182382539309
Ni 7.731749672026903 5.610945766308941 11.481098916085 -0.29511019241113046 1.0413474310530646 -0.3459630133969397
Ni 1.8976088444021355 6.776088980058096 3.691832654427057 -1.0489504402113032 0.06752668209706435 0.524020134846104
Ni 8.519328441032066 9.547214769321304 9.308100952348843 1.3459797040220174 -2.535571801148504 -1.8126835216451556
Ni 5.023570074521762 4.830890109747557 2.3961967819121286 0.1586450354711397 -1.7325147253040485 0.8754156321125246
Ni 3.569242550979881 8.316843071274958 13.241320324137119 -1.1562903976505634 -1.232513579080361 0.5359233140415932
Ni 7.367418767149683 7.6666245013837475 10.134285216221562 0.1819968228232027 -0.8615715271405807 -0.12503068985080404
Ni 2.5081361868433922 5.589494094871247 7.029600963542808 0.15956677595446067 0.47320536618708176 -2.185415061385191
Ni 2.82496159516551 6.536354341946393 11.437041277929534 0.20144516135580146 0.11044636427872591 0.19460062763014227
Ni 4.4017439751892855 6.710813535009072 3.497981488502117 -0.12229246498403455 0.5288545801202699 0.617629372962833
Ni 4.091671522980873 2.203868083561641 9.696627915000926 0.9742755771052318 -3.199832243706315 1.2237890547231698
Ni 0.4181225676727986 -0.2710236478435463 0.6111359537850232 -0.27852863390336546 -0.11929275892576227 -0.5801275193626332
Ni 3.750050837690493 5.915279614643259 0.7992616648463828 -0.2159515825020926 -0.48743153708879283 -0.5978228797598671
Ni 6.531958815574748 7.487262605829617 13.148010249458332 -0.5185125747643134 -1.91892741780676 -0.8733613206866573
Ni 1.4642738107802857 2.9674499083797166 7.3823184744915205 -0.07690683776038368 -0.8841627821775354 0.3267522447964437
Ni 3.4844408253183508 5.96671103005167 9.094125225833034 -0.5227368972583061 1.3459359952682755 0.9214507199947163
Ni 2.969910651775809 9.132945800943988 10.900287398189151 0.43756833370976256 -0.6964365130697232 0.3937256254931994
Ni 0.9084895559667613 8.889388557633012 4.443690257942299 -0.5273175746504531 -0.6061236863160787 -0.7863006823217231
Ni 5.43466449607511 6.863717742980023 8.156348127377587 -0.44220763225398685 0.15719801861196797 1.5621446880864969
P 9.531435956705135 6.439624585319071 9.98976913774317 -0.8039178811828541 -1.1834708147200972 0.5445455084929653
P 5.595073032189106 1.95068388612473 4.015229750360801 0.31969199551555266 0.02072129170775141 0.2694264144917812
P 6.049775207895348 1.5968252289064544 0.14642174578780853 -1.702026069796888 0.6910320542247002 -0.7624174479462225
P 2.0381154138889546 4.8366381057720185 2.601952498426945 -0.00902457209611349 -0.14874680252082123 -0.5026918056819729
P 2.9665858305459745 4.611282849871835 12.936562889821259 -1.5143679349228498 -0.282486590109849 -0.1294900111737383
P 3.478908848752326 8.256357622912985 8.90398583773304 0.18389686805939298 0.0825018153496579 -0.6698698183247883
P 3.488648508682662 8.710881347762257 2.1587012324478634 0.24693337559558765 1.3388292090201652 -0.4303278500972653
P 6.668248309546889 6.12475274427324 4.133861062428386 -0.4836198766521865 -1.7042829841518647 -0.7355069967086236
