# total energy = -340886.6171177783 ev
CRYSTAL
PRIMVEC
9.10553109052614 0.00000000000000 0.00000000000000

0.00000000000000 9.10553109052614 0.00000000000000

0.00000000000000 0.00000000000000 13.32686515217550

PRIMCOORD
 96 1
Ni 6.412169603561693 2.1963906739265693 11.381596038279923 0.7157051314913481 1.008382803201586 -1.1478574363918619
Ni 4.847766523711866 0.7778490960796431 5.783685817835703 -0.09014750482037377 -1.127229475728865 0.057878874594655155
Ni 2.8404339911228473 1.819658431972139 4.662057396697097 -2.1088581507650583 -0.18317541651233615 1.0097092353224935
Ni 4.302008308745397 4.7345392450174355 5.7212227853374396 2.2499890886118346 2.011353177138349 -0.42604824888530496
Ni 3.474943817302393 3.274722294888897 2.59912558092062 -0.8390106111209292 -1.9678390559057979 0.5607308600035762
Ni 5.022128337923336 4.83042959257924 2.6310031345982505 0.9675809386938754 0.6479581058533616 0.38767864796817103
Ni 5.699652692816391 3.3411653550121985 0.07302453797133802 -1.1406683748425903 -0.06418836175245074 1.0583905025782805
Ni 5.727579356568366 8.428434662117677 12.542365495220368 -0.31025630402394955 -1.2201794829950405 0.19954100235455313
Ni 2.228278243688362 5.767060939231739 11.422203064581947 0.8166250443368773 0.6482193299345481 -0.012954760388455108
Ni 0.7011887195572246 0.7617432327459311 0.42853633979731076 -0.7160432315570572 -0.7557145820047501 -0.7650129765875405
Ni 8.394580297647561 -0.042515545611582765 6.960847962338157 0.236994776325637 -0.13934839202505678 1.213756610187832
Ni 8.62801879735718 2.682034172854387 1.5881493942935105 0.3814918024311688 1.5703089690648437 -0.31514654223671534
Ni 0.7563828066126452 0.10901232836812089 4.687618443480451 -1.1281039079140183 0.5020670276137805 -0.3066865843948202
Ni 2.023139734504059 6.546539925370595 0.32437179616396383 -0.21021802245242505 1.0818682739852465 0.2080870921523513
Ni 7.619790660003088 3.9390527352802844 3.9981394368625947 0.8823606959717901 0.0819945366959362 -0.5700277119244699
Ni 7.66801355248123 4.333914089569304 12.679778885508536 0.8223359786787258 0.26019152615707447 0.37446292060884545
Ni 8.505121444680162 7.55271931823685 9.416682532673281 -0.3336687694106189 -0.08229535576580665 -0.03508913039364925
Ni 6.842169202199871 1.2013928731983727 0.23055568857695544 0.9329913736444642 -0.5598430580819843 -0.43102230506112865
Ni 1.8411110631425514 7.048336636393621 9.456690415031753 0.2614454531688336 -0.8017807802351934 -0.7924096234329385
Ni 0.06871580067514146 5.492010162591399 1.3836082079465497 -0.6178507449450198 -0.8328170807157076 -0.09297340430494311
Ni 6.611608050304282 2.052650760659961 7.079537649113712 0.6060748353560143 0.6379053496030498 0.2749743408932039
Ni 3.575350508268494 4.460235121923772 0.5622747377508537 -0.3921389977323698 1.0429440861162231 -0.6669027652766644
Ni 6.2710338721774015 5.934220278377082 4.609043173776735 -0.9509618420799556 -0.045132116451948076 2.1753921299315504
Ni 4.8527199326069015 2.8060424003203654 9.415549804609784 1.542688379134098 0.3258880970239355 0.5933615015544038
P 0.15491148932050383 6.143856919903569 12.29040816644692 -0.10729624868551844 0.45961117244241495 0.86311367481672
P 4.071356101539236 6.552394781840278 12.63833232924305 -0.032397442494099045 -0.6264960793248436 0.16732842217775054
P 2.4642753976250114 8.90112099035131 1.4700196976779643 -0.9795519950128228 -0.06942955554673205 -1.601674627860319
P 6.557748834101825 8.14460615353834 6.071680106873643 0.2973419099551266 -0.09124896541466865 -0.4517531098505768
P 4.802166024178154 1.2662515709177473 12.376219601681674 -0.5219660805305526 1.5033312174927143 1.4391207442530762
P 4.463276369296827 6.549216951501368 8.020560593395027 -0.04891780874662543 -0.5211803514044637 1.8276257447772848
P 4.582194604901915 1.6036297076436028 3.6498820116297743 1.0335333343252846 -1.1487799482061314 -2.230930529318487
P 0.5877310709270513 6.196341200916411 3.699857718836399 -1.7197098602298964 0.2956017873355683 0.12303885623175584
Ni 0.4677320087854927 7.8494958919793145 2.188777539409769 0.7892566796262537 -0.46606901225261665 0.4281221006951982
Ni 2.3564112767231844 5.985010930613314 4.962804892533543 -0.3461998119980941 0.31333391450800874 0.785564575486647
Ni 6.554388893141773 6.122003645366647 9.524803429550918 -0.5505978853346324 0.32086287589520224 -0.18679347288089765
Ni 8.605000014844956 2.7700300249897283 10.318485223032562 0.09126747735742992 0.07775453047265965 -0.4889207200398096
Ni 2.559482830357537 5.831209405528663 7.283398652290711 0.5532229816623053 -0.9026664974086778 0.9890959299475158
Ni 0.9473485567066483 0.15263237489692394 9.122345330701 -0.1752877862341433 0.8552784950430175 0.35339530130526875
Ni 1.3149206344176854 1.5496065918821191 11.327395364662827 0.5633369301678557 -0.11358773812118501 1.2138995635235996
Ni 3.983096189003241 7.110600257761736 1.7630511664966642 0.9616478610388922 0.28399968432026573 -0.8327774857270238
Ni 5.87105520943432 8.309516426512591 8.288696629750643 -1.0189814046530385 -1.2034865957203917 -1.571666511534003
Ni 7.442059799300509 0.7179174012152387 4.980435932319311 -1.1446695255821835 0.8436478527826244 -0.432518687100997
Ni 1.0397059582183172 7.376418025910228 6.492568711136137 -1.0969074277065558 1.2497209440975834 0.14589519200463907
Ni 5.4252575144121575 4.62976189914395 8.00572768330309 1.178857741428118 -0.5735467808213219 -0.90723020551996
Ni 0.9803652123195155 8.182721906543154 11.549007600635544 0.02557579158657531 -1.1893077331168487 0.6859065600726767
Ni 4.84954210226799 0.5127488437784474 10.204833626590872 -0.5116752401275058 0.289480762039495 0.13692975528123513
Ni 8.109914080210974 7.515432168558227 4.611375100280446 0.7344736703481028 -0.01074746832449117 0.2957804790052777
Ni 7.480384979519636 6.341556210214262 7.2070888387139895 -0.5226533364055644 0.30672206561844595 -0.394022845018644
Ni 2.3350041732080573 5.603571129102388 2.6892147946459777 1.1267417374591693 0.41544270545531675 -2.283182544644668
Ni 3.9164163850724556 5.005838542862271 9.825857781783984 -0.9590867851799353 -0.07620955458304295 -1.3483870279119297
Ni 1.215205963811919 3.9019476962228015 3.786575154411331 -1.0422951396783144 -1.3880735478682742 0.8503278359059614
Ni 1.2917925855327754 1.3088745617958035 2.6828181590783995 1.2552192482079931 0.7598807975672978 -0.1456797335597233
Ni 1.7227209483387735 3.553333334172545 7.929164735962983 -1.0508178324373452 0.8237446861007943 0.3706373762151681
Ni 5.699543426443706 2.900949350528008 4.834999658616774 -0.31210287031438505 -0.28241074256659104 -0.25500381130854793
Ni 4.58541796289611 7.2653487580763185 5.961959368189283 -0.9052692251388472 0.7940291613142325 -0.2958882082277356
Ni 8.193939920805441 8.20731594592825 0.17724189368481583 -0.3340035270422183 -1.7698301739250553 -0.11453698940833178
P 0.42245475560430634 5.88324751551971 8.020360271711771 0.03560875034254512 0.030173952480219004 0.42337327315630313
P 8.94550134872338 1.8544415606100741 8.155788656229504 0.03705448165013618 0.37802801225228444 -0.630989853430139
P 2.1136305021490323 3.853315054847092 10.4215152174962 -0.8799338316978523 0.10625520901551377 -1.5801933180580914
P 4.164569422970268 6.45000308510374 3.92337574245936 0.952591921484211 -0.4118452179120456 -0.8890882445036107
P 6.805282695887757 4.018580443532569 9.90980349370515 -0.45464920045144924 -0.37300793332987375 0.17336280129728854
P 6.568575310528658 8.251049811595266 10.444197095359314 0.950712187962995 -1.2529183679889584 0.7732927000978295
P 2.5149294668953863 8.756798323097053 5.646739541290761 1.5507012221362455 0.36637474428407224 1.1731234100475023
P 7.035379465699438 4.316713741402534 1.8313380966590185 -0.255995742908172 0.6688550039070287 -1.0714352515773804
Ni 2.6230394371357537 2.022848357510233 0.43376655683648085 0.7840471104008562 0.21513037215237787 0.32574720057069706
Ni 1.7727103138419837 1.23582999165614 7.119731284305747 0.21571632656283493 -0.14234809808332904 -0.5839798032291877
Ni 7.293211683110895 0.7184892285656216 9.189033329609737 0.7727075170183209 1.8763545774415558 0.03378969485593535
Ni 2.7156608990480766 2.011748715151688 9.537051279375756 0.046877124167512815 -1.5492454635263255 -1.2069717260555148
Ni 6.3429766730591615 2.1855915140929065 2.2036505138383564 -1.550146892294672 1.38141593334244 2.2322831866916393
Ni 4.287002393563377 7.287302193454869 10.434895795384536 0.44104240830129204 -0.2658752068054131 0.28114550270092226
Ni 7.083565936053351 6.481171317912025 11.841266009867503 1.4154869068842204 1.3721908151997464 -0.2995456024746647
Ni 8.251659882176089 4.03441496204078 8.081330907669786 -0.6538042802214934 -0.11329000437510812 -0.5107570991886108
Ni 3.242434081760594 8.845540828779072 12.566313952453518 -0.19204263709497893 -0.5040544903574545 0.8381477489000015
Ni 9.078050564320872 5.237465041891537 10.22590382545689 0.09729902826349049 -0.12558373414079663 0.026878826668715
Ni 0.1561061349951889 2.78799523776529 6.033618076502064 -0.31662055567908054 -0.4285447900549136 -0.7852629850858281
Ni 3.5421881641587145 3.0482768430310947 11.786918737200386 1.1511456202248302 0.059373199751994524 -0.018152502539310673
Ni 1.089422157789816 3.8777725112663313 12.345528498700777 0.6343029769637721 1.0119077856357088 1.0165591683647912
Ni 3.1927816209064948 8.46819851624382 7.86674176780137 0.7029285485519701 0.14710386760075955 -0.13566914340125666
Ni 5.48644668311554 8.628747239841744 3.487893703571731 0.48437449543002387 -0.7848361819610549 1.2117249244697843
Ni 2.78002789809037 8.287517463478757 3.4463269542962927 0.24180993832609324 -0.1456689349264459 1.8686255842284138
Ni 3.8544077185739383 2.8827747105381345 7.054535681937262 0.6412853218188763 -1.128645382239785 0.7223462909569495
Ni 5.469373812383569 4.856999532203715 11.515064912514179 -0.4325701091642228 -0.4081813959072132 0.43939484539554
Ni 7.950212171001357 0.486998401949107 2.5281725512647615 0.15372445824107073 -1.7678612231241424 -0.6910721634340162
Ni 4.553994775218228 0.48531296815044683 1.5663334524339219 0.06137454645273946 0.8485429760913967 -1.2580104377998849
Ni 5.851359945757918 5.9396107527628565 0.5760495851339607 0.014788985383716464 0.23531301774783991 -0.4971114833807181
Ni 8.253899842816123 0.44151536376603134 11.455440074046395 -0.9327903133772517 0.4823476948079822 0.11329951745680487
Ni 9.013009755980356 5.2877731009817435 5.653816360028301 0.011246519448096761 -0.15143334821404889 -0.08635692742968999
Ni 7.10879736261244 6.487663561555703 2.671196769790285 1.0304145861906449 0.2476489136053735 -1.9976258002499276
P 8.662173644352178 1.990860626906813 3.76675878717187 0.7030781867559569 1.5741370845616824 1.712393014853509
P 1.5602236410946406 3.7737691355326937 1.502151295672086 1.1693096927283668 -0.2632033164002047 -0.33068089042688853
P 4.74838875775521 1.161283008892063 7.984684801030246 0.03703134172168462 -0.3000102008159091 0.6496624901389779
P 8.739816507675652 2.459959375903969 12.643716429757085 -1.598065827463138 -3.0449649301100523 -0.5714258778235771
P 6.490531803838674 8.275434423766049 1.529018075609021 -0.822504643046106 -0.5013193508144785 -0.6275155217282935
P 2.5212304943868658 3.7831114103972285 5.689238696946441 -3.2196400224608612 -0.40203671646205597 -0.02711871059366297
P 6.6268962369490705 4.267826145157227 6.140553433236071 1.2860244065143078 0.961227228561706 0.9394368721594917
P 2.7414932906569307 8.855538701879714 10.411359818708272 -1.1223657198786605 0.9035841241269407 -0.8422710270397559
