# total energy = -340870.1970418017 ev
CRYSTAL
PRIMVEC
9.26324241272039 0.00000000000000 0.00000000000000
0.00000000000000 9.26324241272039 0.00000000000000
0.00000000000000 0.00000000000000 13.55769161390914
PRIMCOORD
 96 1
Ni 3.1946328880131705 3.194169725899689 10.2163168876235 0.11642417912871561 -0.00989360496462812 0.14044239642018397
Ni 7.381488708495902 2.8558112755167726 5.284273058490483 -1.0498541829724952 0.14925536672612358 -0.309363359896035
Ni 9.009309009296391 8.05679759643675 1.5722315839404166 -0.227351339698602 -0.2032449335687016 -0.41059617599629283
Ni 1.8706469336566718 9.173620400675158 1.7794873664812048 0.6422199178180037 -0.3935322785354707 1.1274277077826003
Ni 7.91867339095424 0.6908331556605275 2.7173952779027686 -1.125765489588829 1.3410406148491871 0.22713176748862818
Ni 4.656511466795439 8.641632397130085 7.598530180170332 -0.14748259109641698 0.10260115720269426 -0.18534157092571948
Ni 5.432836011686644 4.811578142389109 3.3578743749097932 -0.8284739732556635 -2.78863185846712 0.9447631694684115
Ni 1.0408086381737915 0.8643095989408687 9.545224627563789 -0.7038340910853749 0.9759478226013322 0.8198903453517106
Ni 1.5203389007459278 6.989523875098615 5.766099678821262 -0.00017689189749646954 1.0909483819096437 -0.6922762110444465
Ni 2.3422108078769233 8.822265621387945 8.287192958167084 1.3691975368993774 -2.8425908291820785 -0.1137998541319911
Ni 7.306104442905622 1.0442453010558257 10.197594022348117 -0.6318141491036473 0.11954446992525217 -0.5968178355341205
Ni 7.77548219195024 6.924116121432731 13.307267231236887 0.9918794062299241 -1.088629761078796 1.00721963613142
Ni 8.965234502577475 6.137166637658256 3.80797624311553 1.1379237222179177 -0.19867711169236107 0.13300059543015805
Ni 3.3184083312200183 3.961684927392472 7.863962829461329 2.4268200509633817 0.4594535638186281 0.5916429762014005
Ni 6.776737936922856 5.1138377376472635 5.5099274928272175 1.471789181020375 0.6405556427417032 -1.1224698495566927
Ni 1.4170537494395101 3.0576295348452853 8.627517994883844 -1.4710880411882923 -0.2685375841289246 0.20522494011320783
Ni 7.901295548456407 2.273866606411564 12.141088945861643 2.389316654701285 0.13903343188779926 0.15767007315238005
Ni 6.5780784432082875 7.809117024631281 11.5244034129484 -0.35651893453591504 1.7392612999992627 -0.9332124885163346
Ni 1.7424251341603996 6.552743475600839 1.6916746087377565 0.06275779995351126 -0.31896334487964423 0.366796148092207
Ni 6.048211722142962 8.318456400827099 0.4058680337197808 0.19436485747025237 0.32118734911415653 0.674056088491994
Ni 1.167622424845079 5.449074475385312 7.390257293628338 1.2673432851650366 -1.6392849820139253 0.46749931694124003
Ni 0.33139434484460545 5.105121026671537 9.577912756884873 -0.985465018063148 -0.18349757573844527 -0.33731022281794815
Ni 6.6778620889367835 3.6410007432600175 10.666175132557544 -0.8803616632638902 0.359210108214833 0.41177425546479407
Ni 7.443932224635504 4.076252707783304 8.562671593699498 1.9694477951538143 0.3092121790301513 -0.5755776952084216
P 0.4205002512088945 3.293545788968321 -0.15209595379779933 -1.2961684369268451 -1.0545999251875966 -0.10161616758160565
P 8.791354181934176 4.064821866822576 6.389468641032046 0.18839784125354003 0.4028371008761643 0.5887083190531086
P 5.19891135465158 6.484843909764423 4.756065384115647 2.423862768107271 -0.30921037925793843 -0.9637039722369725
P 3.6944681776403443 0.8437544643445511 3.1333315296454143 -0.5394863488025031 -0.22185766357388242 -0.16210471188496597
P 3.8676537551134187 3.3558410932316085 5.816019291412318 2.2620192803034915 0.45306694356599386 -0.24274093478079486
P 0.4570576368260046 1.3300348515585696 3.4354781133478776 1.3211469612490538 1.327323779483727 -0.2286924271075287
P 7.939821373055814 -0.20727153005264648 12.99881608484571 -1.0784209388665944 1.1142960554966486 1.6197484546428942
P 6.309314731997131 8.290055300028401 9.362195928855003 -1.7679152162905292 0.9164638083030862 -0.029675672687561796
Ni 7.6581539653630575 4.298876209249415 3.16501552350447 0.6185254024145412 0.8382961015524079 -0.7435851457310677
Ni 6.554142225183554 2.232154226471403 0.30842428298859437 -1.5123331638810085 0.3321317639408022 2.337863995347948
Ni 5.954032337987593 6.32428413150486 7.2142103006181735 -0.8714592185679378 -0.13427791948068488 1.03621139537808
Ni 0.5715503849544522 5.42409151098411 -0.028940221498790122 -0.07009444282424057 0.19723318015698288 0.10922894693185704
Ni 8.269935537818757 6.215626299682055 7.4671699941931085 0.13875421008448363 0.17704050725919188 -0.8294142256817458
Ni 1.9937091072087576 7.663461803183558 13.077803751678879 -1.5308175958384411 -0.01994019056735275 -0.23888839380392407
Ni 7.019805414078048 8.425530218221796 7.331904425275007 0.8216818900344947 0.7675336861268652 -1.094746158389179
Ni 4.113527994676311 8.361780584922176 12.236955166434312 0.08505157835470514 0.6316429136331057 0.07571024634912121
Ni 7.087862455033048 4.685875944790178 0.16975447253640238 -0.18409972809881844 -0.4609687149115738 0.11557185843074934
Ni 4.886619668015414 9.204874580092902 4.857801721314583 -1.0240894153035653 -0.8299446442639191 1.3107915861566586
Ni 8.449160749251632 5.491648336856549 11.476002972089562 -0.7278785336290884 -1.0099740589481059 0.9856215982456702
Ni 2.57302301550939 5.373375259557864 9.839141746833912 0.5622817494304639 0.6771648093243047 0.5823818626144486
Ni 5.870505682442305 0.9650723693772649 12.009430483483337 -0.11682501411156009 -0.8400506223496692 0.5527853799042545
Ni 0.9727330707342523 2.96491374296852 11.322746334035378 -0.3368394538291166 -0.5864701737512094 -1.0899379383672585
Ni 5.773056373765757 0.09560499714066416 2.785617204570168 -1.2714902174538747 0.6844070927090148 -1.363296340923594
Ni 0.221148793296785 3.3500793565398963 4.222854632590983 1.2878604312817818 1.2532981199258804 0.3472966446066986
Ni 0.11607027828696626 1.8119550306362715 5.908306195172 0.6754935922694689 -0.4447525101630276 -0.01417012085279495
Ni 5.877582799536306 3.587255411611602 7.095376797162175 -2.3852885073784984 -1.3371762467977746 -0.8512632032360371
Ni 7.173649341692128 6.329545653114012 9.621689913526938 -0.7435195826004549 -0.8239897122320649 -0.2736116562177223
Ni 0.6467086274333536 3.5665428018967007 1.9790565105866509 0.6370311745282126 0.41305235084626923 -0.3862144047178187
Ni 3.7902037864970097 1.6242817422534894 8.450156547795618 -0.03888227888749432 0.7854661022355698 -1.6748579940225286
Ni 3.2912114519163733 5.43951480936305 5.02658170076422 -0.5426475201393042 -0.8151543733286218 0.3402741905422785
Ni 1.8856719126180177 3.4365517231269282 6.230911575751177 -2.445729229163059 -0.6377675384736048 -1.0424627756044305
Ni 4.454461626410185 7.004280220034142 10.195506087540542 0.5831837896904537 -1.060031380615813 -0.39806796162229513
P 8.468891455285952 7.479178861471461 5.6074203387424335 -1.2816411898449476 -0.7276106246796824 0.647711022839562
P 1.2475271526629408 6.041727452554217 11.57208595253134 0.3271559079927656 -1.845915287115092 1.019334417117083
P 7.313125980546005 6.199322993287499 1.9138710747352372 0.12827825025382422 -0.08454327125971892 -0.48774906832921167
P 3.750140263680844 7.529404161057417 5.833996465684997 -1.9900618718597405 0.9412286739525918 1.493431956101131
P 2.1119914477497126 0.28897332687081717 11.64722288955302 2.6448215740159675 0.30124073078890057 -0.5600893697648354
P 8.705150449372965 2.6628116228289507 9.809925480715485 -0.2163058805177178 0.3745333688354646 -0.5701866060998373
P 5.097877171216684 2.126627370535734 10.22839708186733 0.40195341271963037 0.1013567432726319 0.7666284007037765
P 5.04457647519721 4.951619839021435 8.877521787850538 0.4010931216018641 0.4685056467185673 -0.05566926853784606
Ni 2.512978679117623 0.17251121343584538 5.562544561567193 -0.3983384416748624 -0.22392868717029824 -0.5953795604256972
Ni 3.4803205428509485 4.70833004405177 1.9037435719618465 -0.32962699524107747 0.27066568621552095 -0.54489852095701
Ni 0.12285930854638091 9.12726713635791 6.974808288429076 0.4439894067447579 -1.9190801413345402 0.8499018041121363
Ni 2.8104028619110277 2.251023450974647 1.6963516197596946 0.664858481153126 0.6525727218072375 0.09554656434875804
Ni 4.302424031038684 0.13331009847498185 9.995571045365445 0.35817112542735735 -1.1919662537856184 1.071556350536277
Ni 1.7546248242295075 7.688370661646603 10.553483158726316 1.3815198059101563 1.2347414399696153 -1.8521610109144875
Ni 3.5951384307830603 1.824923569813759 12.07605264821077 1.0061346305973575 -0.6593010416700065 -0.20923380416228482
Ni 1.7554677792760442 1.2685825023418185 13.526386448152394 0.6772792234149819 0.2541872289445235 -2.538524970239557
Ni 4.6334367303017805 0.793110466208009 0.6771670943401367 -1.753444276367864 0.4050467069329734 0.25076534774716813
Ni 4.973110561086986 2.349973404898876 4.157507089999851 1.984190500680628 -0.24524698903210018 0.08247070500140637
Ni 4.4997218281396165 4.513607428301798 11.843158990040317 0.5420307124909116 -0.4494450305426905 -0.5961503771534507
Ni 9.40858254084442 9.135511421977883 11.547289179299758 -1.9824737750998371 0.34304995351520273 0.07917532207958623
Ni 8.44570555988506 8.494587689341916 9.355443951564666 1.3275626349674103 -0.837486718277235 -0.4579774934937339
Ni 0.3395728614444652 8.648422353713727 4.35012046548503 0.9197627907693321 1.0439149346699246 -1.22417292042515
Ni 7.154261375621784 0.5447425618261318 5.080148251836831 1.4124200950334385 -1.0811720192491703 0.007423803267896893
Ni 2.884944172454771 3.23462230489118 3.867521290748963 -1.4546689764003207 0.510104038985644 -0.10585103159855964
Ni 7.443728433305573 7.84404871123007 3.358849794320786 -1.1055676744847154 -1.1290865835422619 1.058013835965152
Ni 2.522538345139885 3.6826945967156397 12.866316520069322 -1.0829841327572447 1.6665103933887817 0.8404303742865913
Ni 2.917032043676783 7.620637834171041 3.4161179370043433 0.49901487105101805 0.5976357034497256 1.1189685212716536
Ni 5.148760161003782 6.796246325142705 2.566945402256283 0.16092226154109057 2.397442883352846 -1.7427580002986114
Ni 9.110769301875692 1.2818104123028558 0.9471266901283033 -1.4542028353971792 0.35658604032842456 -0.4886785221220164
Ni 4.811198349456055 6.261961037514762 13.419348757402549 0.30754327596816067 -0.5004819425148477 0.4604208128279038
Ni 7.667333838452264 1.5540385761228557 7.774712416517633 -0.03208119680526088 0.49717833206291145 -0.3062132443028275
Ni 3.6387683018730357 6.256078878673545 7.688417904182178 -1.1945005901716979 1.2310647624489766 -0.049535901946598564
P 1.70396415225688 5.225793283718057 3.5031044135373404 -0.1050673593549997 -0.2988465195251111 -0.6548687169302657
P 3.633423411083457 7.767969702469567 0.9040387187111014 0.496383604075758 0.1545837209175725 1.1278681377541284
P 1.908255697271385 1.297919190609749 7.318238363954615 -1.1206258543694185 1.860921530715937 -0.5783704274622103
P 5.749814898911245 1.1164800642744306 6.596684591631075 0.20726742446453336 0.47615236463054766 0.8085391820049495
P 6.624172336741987 2.6580132633332805 2.5153991643226785 -0.8321000000440251 -1.6514925798237106 -0.2848728309538384
P 6.279727936187921 5.7480734093645545 11.610088403942513 -0.3925606586508207 -0.9335462177066698 1.3220332205087488
P 0.8077528732636191 7.219354179050502 8.552408847588971 0.07386625116184697 0.0449084304769162 -0.37373838373799506
P 4.366006925977452 3.414088360623066 0.25494295374486325 1.6074277282940121 -0.6018384286771635 0.9059413115052074
