# total energy = -340891.2219674783 ev
CRYSTAL
PRIMVEC
9.09133127193599 0.00000000000000 0.00000000000000
0.00000000000000 9.09133127193599 0.00000000000000
0.00000000000000 0.00000000000000 13.30608228233027
PRIMCOORD
 96 1
Ni 6.438289778285938 2.0436948695168393 11.36211652703533 -0.5385214137860725 0.0013968803475266267 0.04048716148076899
Ni 4.7530115466800575 0.4290617354797213 5.951504454152401 -0.9514976599787678 0.11980055180011626 0.8187022385808804
Ni 2.700861739225485 1.7123158503443952 4.798226372851587 0.588229065423845 -1.0337966152890004 0.04810868258176876
Ni 3.3756112433121697 4.264452503845819 4.803056597073434 0.8722508612312978 -0.5603338816754737 0.2825711794038553
Ni 5.320137873017403 4.598395278392931 2.899914615740624 0.34064880027287786 0.4782431857213055 0.019576122359714673
Ni 7.319067028119836 5.9114107747984255 2.801981887827662 1.0382204553883088 -0.19029428694530454 -0.05445570784571912
Ni 5.101354989714664 4.597222496678987 11.731892783175532 -0.07894058036096083 -0.35365755382771996 -1.2043697696562936
Ni 5.631870525648513 7.645282171218481 12.492534456245359 0.8809342479379085 0.12774140391374775 0.14788085497610015
Ni 2.0118843019425077 6.412561311228105 0.6425589188717106 0.17251099481995452 0.5479776741029659 -0.3382844138057593
Ni 2.7265083843032754 1.7297802974179275 0.4498945207316734 0.21929247394986748 -0.9770192012886398 -0.8048283088122654
Ni 0.6791533448791983 9.264611886910044 4.832396140850479 -0.0023638722464862515 -0.21502958490845547 -0.3136211067311244
Ni 8.504767523579078 1.7059155532388421 1.2645432462951591 0.45051178124430796 0.9355820171897758 -0.03316465967742676
Ni 6.751477043895582 0.9420710042169054 4.746904899569546 1.1855253832562809 -0.996759874250677 0.34112265458550284
Ni 0.9929370018100417 7.811517160671654 2.838866327297745 1.0991517436560425 -1.544323600744676 -0.5328822132224241
Ni 7.619371877538331 3.7469557540698557 3.858537297387032 -0.07233927299435929 0.011556594489347838 -0.11514814062976944
Ni 7.565742115285979 3.995521838108094 12.685167034726492 0.10871164097580631 -0.9284518339028979 -0.09028454461887031
Ni 7.944305142949644 8.834528285812901 6.858473828931039 0.19283916485434532 0.16433591520832988 0.07476896548177446
Ni 6.704183939430972 0.21775010808798034 0.568430932352469 0.04509123591168363 1.1673942208732089 -0.46567974723399796
Ni 1.935117102000337 6.649835962020467 9.119203318777041 -0.3642193885039663 -0.032062427752183494 -0.12031914330774764
Ni 0.08883321459911626 5.054070976581168 1.4919974412161894 0.1526368816038468 -1.342027404242489 0.025968141928987536
Ni 6.458299798071907 2.1250986483280894 7.130383723875426 -0.44729687385143607 -0.7120983879766962 -0.5660813256822123
Ni 3.320763242690294 4.157256618658925 0.20069022524910266 -1.427051471793368 0.5944241384909633 0.6712494722811343
Ni 6.231743826665121 5.840489300763741 4.882973034114132 -1.4855582097800093 -0.8310486759613752 -0.26158557829112367
Ni 5.189359074916014 3.0225584907595575 9.429194981499467 -0.28352325890447944 -0.1538440145380705 -0.6453214395614628
P 0.17582725291349766 5.656762590243688 12.650039040427988 0.9621335424260592 -1.4056627217049469 -0.9172184270809235
P 4.1142455311498765 6.055390185680017 12.894272196056416 -1.4920615581161658 0.8541675213670257 0.06474114893212721
P 2.580292505967187 8.50559483471062 1.3909509323960507 -1.5686945733898725 -0.03115431411561731 0.9742298114689609
P 6.2822279883513925 7.896721115889327 5.619929971360966 1.3163582816111588 0.11904696146354336 2.3332630062408266
P 4.797704530445538 0.8604835805171152 12.536444676401764 0.584734164896709 1.061400750159514 0.5013198650351108
P 3.964556764327536 6.171904685260649 8.125226268687348 -0.43154526744413424 0.3744716623595938 0.5611993149995625
P 4.557347918404903 1.0784591536167683 3.83823271847291 0.6254000180471874 0.3182609194959809 -1.1270261014688074
P 0.3153710033436696 5.710374169833809 3.6699503612524493 0.05489819469977642 -0.5253992745818177 -0.6625748273252718
Ni 1.5237980083262934 1.114006258279711 2.6218571626957057 -0.062422528101279594 0.13452397405321992 -0.21895745920795195
Ni 2.089069703116007 6.285682694175413 4.753717943107758 -0.08046087366022918 1.1234319563596458 0.27521371059751953
Ni 5.75854004208554 5.820306545686572 9.205440049209473 0.8233266247267691 -0.5491662950944284 0.2728544663367236
Ni 8.788680702995709 2.2443678212368217 10.125649129492114 -0.7495344213359671 -0.5787532647229259 1.1378990396275694
Ni 2.440976947948023 5.21613304505217 6.935609227783402 -0.8609230949233044 0.0122361370548757 0.45198785156920224
Ni 0.665029052857626 -0.09443256543336341 9.220676211026513 -0.2581842659190586 -0.26305727774064375 0.06004040102234821
Ni 1.6125657653413756 1.180563893378791 11.541988513162265 -0.29566400803207143 0.14732626802421078 -0.36858049368613943
Ni 4.410522920884054 6.899120261216858 1.7314140096194444 -0.31138450409112184 0.13514669523888337 -0.22058830994315556
Ni 5.72204743898655 8.124858978910268 7.9068597683497135 -0.5973711369344292 -0.6055436454428926 -0.0648121113793787
Ni 5.36516723603417 2.861714660658079 4.810707861340527 -0.4819646004369506 1.0366747081677437 0.7076987162471038
Ni 0.8652074361649067 7.322285359334844 6.565313856636483 -0.11739039969672688 0.0734762148122799 1.4470834507435788
Ni 5.414860451913362 4.6285512237041795 7.068429938853408 -0.5264786236889256 1.0497212569390568 0.4316846212354759
Ni 8.01384473465472 7.127485407515695 9.185747316879448 0.231872110387091 0.035931680899602636 -0.7602669772621229
Ni 4.348692777965212 0.43182368187271414 10.332797836365911 0.5652482882579555 0.06600690301842825 0.46074811426033546
Ni 8.334832362361757 7.271801197648573 4.816589043439365 -0.11310334228559876 -0.04969556745291442 -0.16159100547334104
Ni 7.389943045498941 6.122693309930595 6.858606562365331 0.7146239826120272 0.6833087174385134 1.5539408121194658
Ni 2.504470804461064 5.0497798682944905 2.73980172866086 -0.5952592327977491 0.028038651304771064 -1.4343986561870588
Ni 2.1882924909143076 5.583559192098928 11.484373111348727 -0.3317656388506351 -0.4877012458104117 1.101429998167258
Ni 1.0044557183338136 3.279034032868579 3.7913814527005294 0.022775346023302712 0.5585652198108252 -0.1540414752608573
Ni 3.9026720734219986 3.0064486520222853 2.4338020694314 -1.768372615542922 -1.8949811914038073 0.01823143540636215
Ni 1.0506578630645234 3.2961893746841726 8.153248478585708 -0.0921647923607187 0.6887322024469299 -0.27837359638273995
Ni 3.8264230793534315 3.1284906809213493 7.1889437149918995 -1.4138159469397005 -1.3941765754422184 -0.03270777464566625
Ni 4.189039912239909 7.064927958107585 6.1911473967004405 -0.04687660994688056 -0.5107118477729721 -1.0290138491883762
Ni 0.39674205336290264 7.203070734412806 11.111217607432765 0.8213787569717789 0.44980781319874796 0.1317394693295473
P 0.22157574022152668 5.578195306740581 7.997873084150409 0.25920885052883097 0.36824162228948193 0.16949200548797264
P 8.539923701004039 1.4699500541271606 8.143176192842468 -0.4846318628564686 0.5398025944913414 -1.0034910223269233
P 1.6190660670892025 3.3066080401429274 10.467748646316359 3.0930281041658665 -1.0694115362791323 0.7050013719205988
P 4.153229158974607 6.204497107310943 3.884231217386625 -0.002624582107040641 0.14885838839802107 0.047006193546209364
P 6.739249203544775 4.159065793550978 10.399408201185462 1.7438072674987322 -0.39160600804703527 -0.21461769418201748
P 6.115047500462173 7.7378319219777545 10.161242599943746 0.36393296761179905 0.9343319468327586 -0.07550970030254092
P 2.599775228548437 8.631782510598507 6.093440133799151 -0.9795411963795453 0.04906641850934775 -1.1756852572374075
P 6.960459472255445 3.8198318642944455 1.5336057363340638 -0.1579914610475408 -0.16967686780526908 0.3137275504020016
Ni 5.214614792755824 2.8896432298459462 0.23778922013351947 1.2257022125854826 -1.3651840448646102 0.48274364469482023
Ni 1.3301708382210884 1.0821775080431477 7.051211866853115 0.48554383314777666 0.16294263440522905 0.14922862725324623
Ni 6.7365763521967175 0.7433617800179446 9.18216805981914 0.13521251547981228 -0.048126166083265504 0.7286449794814677
Ni 2.6941159715375305 1.8333032848340216 9.289348489743139 -0.2216884849858698 0.20976473696509038 -0.26461588047701523
Ni 6.151312820283267 1.9183345047604927 2.586330058961218 1.328471519934925 0.5064301896784826 -0.912544418644022
Ni 4.096553800798447 7.125830785252612 10.658730239066854 -0.6613378695943771 -1.3819808047069748 -0.874878528662132
Ni 8.262947207228793 7.285083632408818 0.13463534076072872 -0.4794145803215873 0.20238309978903854 0.29694647428892085
Ni 7.749723383077276 3.7917123771531465 8.221921666435444 -0.3214755697785367 0.6805404106647569 0.48668643139265216
Ni 3.4391141911563263 8.238164238607007 12.69911222752508 -2.073904003287377 0.8359761951699797 0.10493031955650314
Ni 9.230519395225635 4.612077731722273 10.1742822961632 -2.021207444224609 2.7931436302945443 0.025569106718355966
Ni 8.757533802592835 2.2720781984779084 5.767108621662222 -0.5225134683935905 0.6409089123160641 0.33717498279166447
Ni 3.6605608344760077 2.7436182694632905 11.48567680823074 -0.5577437523507942 -0.6338743740667857 -0.12491756131170745
Ni 0.7790961661018735 3.3959940076738873 12.616321111585552 0.895475378976877 -0.24023333786759277 0.40162354018403734
Ni 3.0715698568050622 8.772779964874102 8.232220326323471 0.5292767552593529 -0.9905033518180038 -0.13500245635153527
Ni 5.854171754093083 7.993480152955233 3.5795625290325246 -1.8474695189760895 0.12515307436128123 -1.0658765265426804
Ni 3.24293235700757 8.346969289401407 3.8499814456739125 0.3340181823302376 0.20030282022124213 -0.06328307632936198
Ni 3.433959406413644 4.75827542739613 9.718070209439128 0.2502848085663238 -1.178675450213983 -0.7119772890177996
Ni 7.277337818298121 6.066654344932545 11.450668819502965 -0.0070113983208266355 -0.1133591670501467 -0.6410726915874378
Ni 0.7935568373747319 8.872157305301371 0.019809101368308338 0.7121032730727026 0.6912369711466547 0.44641087170205696
Ni 4.458925167744797 0.4128091628439304 1.6623289844701603 0.026110581044122776 -0.12125888151319762 0.066480243110421
Ni 6.088391717630523 5.5447482995653985 0.39334007725935455 0.3591450593048524 0.2680102508705449 1.3268046737554633
Ni 7.60131649394227 8.600462874904432 11.443257566377332 0.7283032798713328 1.4067441276945838 -0.1816147568934356
Ni 0.11083969069812363 4.815023516221216 5.724316635233064 0.3085889436238556 -0.11062916971349335 0.4698382494870618
Ni 7.989825437846665 8.585043977331964 2.828713128707572 -0.04046607843484643 1.8105927005543978 -0.6261507801702829
P 8.398553502152694 1.6939513614903938 3.5130721697837015 0.7169816842109265 -1.053006612558548 0.1635015922324926
P 1.6320484879226251 3.159364841390749 1.5996833491502274 0.4055434440637338 0.699967151930801 -0.1651905498991413
P 4.573257747857627 1.2993330430761518 8.123815294098168 0.9805115307126147 -0.4258659576711698 0.4857374372158216
P 8.217445094994005 1.4586586208812848 12.380218333374023 1.294944077601441 -0.02555470854065276 0.2517156274755794
P 6.709229628200264 7.39230679158906 1.5230670653045797 -2.0486560273538648 0.9929397291736384 -0.4436819028066682
P 1.8634774128075013 3.2033577926603094 6.037687545731249 -0.7992063346397977 0.40035315811204597 0.38749918496751323
P 7.065155241385482 3.9977037575758962 6.0109026659977545 0.8572921830389365 -0.40045086003217484 -0.8316168897600194
P 2.27706024792939 8.397353446445402 10.600795731531152 -0.02915605273866592 0.11972881802191639 -0.31459864015304534
