# total energy = -340857.6603021444 ev
CRYSTAL
PRIMVEC
9.31203660522735 0.00000000000000 0.00000000000000
0.00000000000000 9.31203660522735 0.00000000000000
0.00000000000000 0.00000000000000 13.62910684682999
PRIMCOORD
 96 1
Ni 1.1656807468032153 7.71141859943642 8.989472348412887 -2.206449256347671 0.5714824420931255 0.13396115957121446
Ni 8.506945889733581 0.7155778685065105 10.081232285947264 0.4712338442830078 0.07244674510650104 0.15805471018530845
Ni 9.159961771266751 8.776110308860813 2.7176443287795062 0.21695225585246508 -0.8557328089716166 -0.020868358808576966
Ni 4.50429730782827 2.3806128554041797 7.761367432778629 -1.2153188124686294 -1.3123489033414495 0.7276479056755211
Ni 2.931447758868396 4.625707641562255 11.150012910661012 -0.8119309812953177 0.8912993932223167 0.4939045464076462
Ni 1.6620867960969188 -0.04885560024047826 10.658547828009374 2.679379514496495 3.5153253706491716 0.42921996174506727
Ni 4.50749133639636 7.440475581310629 1.3599586984618681 1.7429778296189016 0.33760975633623796 0.7908458784902443
Ni 2.136469878733092 8.47410233649844 3.222220759022604 0.9824964223531274 0.3141990907217814 0.370197203353956
Ni 7.8501493213238955 1.8351789331921269 12.573505772721608 1.4977298121455367 0.4898936254760402 1.7763546053071342
Ni 4.438991994860296 2.921614248174801 5.437018833967033 0.46810918261109696 -2.338231405989696 -0.570851493377346
Ni 2.5199674837466475 2.486332407396965 10.970490812264735 -1.6109316276822128 -0.7574289935926956 0.4147510787049309
Ni 4.032968573210561 0.8255018050430065 11.267673287239399 0.18629724997076946 -0.9806567980412271 0.42941099470995076
Ni 5.997165774072912 3.9215966149762873 7.810745438274704 1.1718327162605366 1.0754171190432642 0.032011005688957775
Ni 7.53579358837468 7.072408021012309 11.782294611407858 0.31014574658801425 -2.411634601472195 -0.719064020661252
Ni 4.139554144611021 0.09135759788035072 4.954194390115194 -0.11017819821900379 0.0043762746908247215 0.3703255014017041
Ni 5.759857832296804 0.5708641630767665 1.6362561376566134 0.4661389462586037 -2.2923454420908587 -2.886044529490339
Ni 1.2565848484991171 2.6352784334803445 5.174876621671279 0.1389205604590188 -0.6948992504895903 -0.18503278143604907
Ni 0.24005219897440522 3.2855193280942996 10.219472263503723 0.6631461264477095 -0.4786885007888401 -0.9994852436016399
Ni 8.412791887249739 3.9826463271990216 13.111555249876824 0.5548224649389413 -0.3735031277987374 -1.2696127979255036
Ni 5.354039275453186 1.7149512281116324 13.111991053191653 -0.15870622772637827 -1.1803762349551734 -1.107652582038202
Ni 6.495769464014048 7.863037180035956 5.863132974671153 -0.3110528317833159 0.0635826098476518 0.7314533954645402
Ni 0.5108536741432416 0.551853640272814 12.807899047028876 0.28560533824448875 -0.33492912418028126 0.2110063226816753
Ni 7.083554528872377 8.41358341036428 8.334335184932748 -0.14063780026044168 1.229404086917102 0.1745948739321767
Ni 6.1524998572924705 4.958370838548979 12.963311351356225 0.09554605012812577 -0.011746856123282995 -0.19972817866469472
P 7.788475702646171 0.3277725153425229 0.511163764963409 0.8883259124162894 2.2564032196682944 0.4030332760473704
P 4.790772803072351 8.908145676402935 12.955624265108534 0.6217786192445163 1.412789305447399 0.3361735381103436
P 8.736739017939868 4.429056051763643 8.582862268454727 0.11555051827451067 -0.9821022722385022 -0.07834202754501346
P 3.9041924184930217 4.623519312951466 8.869196220741857 0.05220316436611654 1.9404290393239614 -0.7018314588330493
P 3.4528100663617525 -0.12601141103863067 1.542351697754768 -2.1040162492917247 2.44253669036769 0.19649321666716482
P 6.453492817660902 2.422535644364941 11.317569041972751 -0.9326861836992194 0.068593689908998 -2.2790464109891073
P 2.261009056778676 5.988319339263333 12.773444511454727 1.2267615070879325 1.2246791706376068 -0.991719740723608
P 8.988443368363985 6.721530480354494 4.317414975670425 0.0027749916419758662 0.5925096950770699 -1.396159667310518
Ni 8.844861075386202 1.5684356435917266 3.6036175685698004 -0.2495499872828283 1.2801679477335308 0.7855632899350664
Ni 6.4116445249932745 1.115805478550475 4.9133611094415075 2.696820335680762 2.829735827596281 5.606843487473886
Ni 0.7772403127402663 5.312880073497041 0.7574494412657424 0.27413924658641814 -1.3469526094582482 0.9925882593714905
Ni 6.914261702726967 7.790468478487486 0.28397241979480276 -8.530913090057746 -0.7069070735837438 -2.155208455894824
Ni 3.5869220180749646 5.543678901660627 0.6113501047837192 0.5215050817337341 -1.6705333985052453 -2.2307320401544355
Ni 8.38264882464068 4.949179858383659 2.820843112453394 0.46340174983309873 0.24260055254818866 -0.19652227013288737
Ni 4.085823693188633 8.63604796573358 9.160995407333976 -1.2981769827164416 -1.6609778936063262 0.9657950504380464
Ni 1.6525698946491405 6.133801287716014 2.9279957868853317 0.30532184283680963 -0.7759607338482959 1.314651069112065
Ni 7.492148072635211 3.4245852833008756 5.309504460214439 0.20561240535961364 -0.33514175441171956 0.2362851518531221
Ni 2.4547925392916565 1.6562015889393884 3.3483308776496363 0.9935205413777727 0.5558725034700104 0.8063010367030501
Ni 2.581799407047281 8.413201616861972 13.034060480944914 1.153775858758826 1.2519362065813469 -1.5216935220499856
Ni 0.5790401312481455 4.725057760492145 4.518961903131559 1.09143277774523 0.12266116117736293 -1.3993357510456546
Ni 5.153579062668134 1.702435850865239 3.270113494674334 -2.7834667693264126 3.4424122274292133 0.4940217887118008
Ni 8.502969650087591 2.544960990092867 1.375504212431458 -0.669783172148253 -0.7841466120931979 -0.034366907515644037
Ni 4.845592762781814 6.929728995588767 12.585280843054989 -0.4771856909910685 -0.03797519369219267 0.0882474595841835
Ni 5.01726947030749 3.4468038027278807 10.182292094804561 0.221602867250599 -2.7298602968548664 -0.451707344214306
Ni 2.7652372168513755 1.8243955947610828 13.49406950382102 -0.2295545179975079 -0.9013966295573186 -0.549229544232196
Ni 2.9786784087149036 6.643532861443936 8.10513430225687 2.2743065823112767 -2.4103757893644295 -0.6003358759897081
Ni 5.3738552894266425 7.00741000525351 4.009288064030816 -0.959030220910387 -0.42521598279199674 -1.15086074199456
Ni 2.579359653447166 7.22808664958761 10.80427002700741 0.8979436380117117 -1.868761852695962 0.8968604322498619
Ni 6.065152953593684 6.240852460948558 8.056355991920517 -2.429869636422983 1.809511037454445 2.399591554264732
Ni 3.2229424418623327 7.200662701677915 5.097994584750391 -0.4975323729682205 -1.351921523427749 0.7838920728802306
Ni 0.3961200706813275 6.099784417864025 12.133339768725222 -1.9085057082528036 0.47401912033762883 -1.611886278285998
Ni 7.4957052706323255 4.495022519333175 10.629108755370423 -0.7770549953537392 -0.3835029193239266 0.052241216692903575
P 0.5939505643187741 2.709662982173938 12.189559327541925 1.141390083499963 -0.9637253123932112 1.1518521593735518
P 3.9291579887293167 5.575377074388844 2.5792544274331153 0.7695892831043133 0.1163015375079223 3.698674593735211
P 1.6552703852752222 0.24910629220109293 5.086832246428031 0.4856870435938603 0.7065651168632928 -0.13285198566743572
P 2.577078204469959 5.062321103579849 6.265696043504846 -1.0910401702925017 0.3064040201573949 -0.597990515685983
P 6.2198351942483265 1.1649544079451655 7.383745722885963 0.5461953853915625 -0.7720747685303283 -1.9689135199168992
P 0.8019004481747147 3.556769643429264 2.3567312062329737 1.5573192416733954 -0.01873794272913547 1.0069270445916658
P 6.234389907519245 7.283772628704747 10.094588540102398 -0.47698385939290755 0.054326124246390314 0.22776271620440774
P 8.020215046510565 5.7808750989970346 0.32622857966733537 -0.4169401159364497 1.706946647026957 -0.14564528077736208
Ni 6.125169029749195 4.670144680416265 3.9494423981458486 -1.692686794673833 1.297531635822959 0.4148955747025952
Ni 5.5491357551326415 0.8823685504063062 9.423805292656938 1.778767071403369 1.409738177325901 1.0570224185861603
Ni 8.822530811519497 8.880135070184817 5.112959027633542 0.09725120574469058 -0.7163916160354115 0.3393437083082091
Ni 0.9962296160348967 0.9866847784771935 8.411979877654586 -0.20877460513767915 -0.1676636940299822 0.2519053748888823
Ni 4.969200737163232 5.437503059872401 10.995077382609715 1.56994927173258 2.087804672528869 -1.6820401135932648
Ni -0.4473390658214595 7.833778760907855 0.5082211613846439 6.443607468652483 -0.6687603873106934 0.04649711512027476
Ni 8.84087552370357 1.5382367087628177 6.65558356806191 -0.7152942692061746 -0.00493600384903666 -0.7028028216073832
Ni 0.5446153941912504 6.432875968536264 6.33292801685398 0.3903888478104825 0.938387862069687 0.46203777960603654
Ni 7.062732814941622 -0.08957620527080083 11.74560518703971 -1.970423785913839 0.1103779729346357 -0.34774761610118815
Ni 4.781386270137556 4.999697657164674 5.941063546917892 0.026182829042954905 2.1288428214171016 0.43161957232549536
Ni 8.291884403494404 6.3765660829641355 9.170085817503566 -0.01760845711038258 1.0913016514840044 0.45206009956803433
Ni 1.4953827161378905 5.508563211484921 9.297872102726098 -1.4384687124913742 -2.2398527715087813 0.8483267463155326
Ni 9.346956779067959 4.095852756651703 6.494365208888485 -0.4938292130850205 -0.7173524372867839 3.2193651715329206
Ni 3.4933826100094727 3.4873111621191093 1.799778294695186 -0.30879308921486176 -0.9483313464356442 -0.37150718041463116
Ni 2.065800832659521 8.380814353422272 7.067495921683832 -0.18665514753082046 2.1460501864343238 -2.469920224586965
Ni 7.458280195369487 2.237281987415722 8.609233956223914 1.632668505138672 1.6501900589622032 0.9807413873352335
Ni 1.6717620021676052 7.379444493161179 1.0891469800527258 0.8798325302332975 0.936378287838826 0.7681057565802514
Ni 7.299193361383338 7.48839532186862 2.3970327696144214 0.007147666788374786 0.6302545179260114 3.325796501114982
Ni 3.0262349798438706 4.134879502216908 4.06519473841636 -0.29607049944187075 0.8921946513430763 0.4061779923239392
Ni 2.3768694166742312 3.2086857137639484 8.531903079136898 -1.3642625614916053 0.16355789939172474 -0.3567462200553727
Ni 1.3277194964047712 0.9235128531038245 1.589507851308143 -0.4664963295980224 -0.32592537801977417 -1.296709654142296
Ni 5.9717718501511 3.24410870114883 0.9240631944693466 0.473755582263597 0.17339082632174657 1.9864854673623917
Ni 2.6736160883340654 1.5805226671526036 6.605251078810064 -0.3006707172180435 -0.7646136842665928 0.010562863117510842
Ni 6.493292462267365 5.505490239393173 1.7653237591210373 -2.9182673940797867 -0.3088185431361585 -0.9408661484068507
P 9.077131205339171 8.49029596821829 7.395998500699061 -0.18308517079137498 0.3541789735488287 0.1459532989360841
P 4.0498233595319695 3.4628484418614636 13.106689710731557 0.24127334909633286 1.4662340555301006 0.21012546273861876
P 6.957748913843528 3.0303229639295597 3.0424258179527275 0.8259008132118486 -1.4672555548160795 -0.6174784492072656
P 9.38988526798602 8.16219566918598 10.905179912074777 -3.013636552310416 -2.1621897723086634 0.8769544373545543
P 3.019986603257315 1.2350461077469534 9.242837966173877 0.7145849018439758 -0.009251086284622777 -0.6578010600857123
P 4.253831458277494 8.07728851908731 7.147117559784696 1.314273374057672 -0.30115228484015233 -2.404524472789975
P 6.942262996908444 5.531582566063109 6.476210462251902 1.5215107166152182 -1.5227049940336355 -3.7187973326270147
P 6.173275011040019 9.045349224281178 3.650256904089563 -0.3828670855121406 -4.404859701551266 -2.201854180777821
