# total energy = -381166.0512910049 ev
CRYSTAL
PRIMVEC
9.31035127195023 0.00000000000000 0.00000000000000
0.00000000000000 9.31035127195023 0.00000000000000
0.00000000000000 0.00000000000000 13.62664019123269
PRIMCOORD
 96 1
Ni 1.8740154230559456 1.2991570978065887 3.1681663450157056 -1.9053221683184993 0.33383640533673475 -0.6197191656123263
Ni 4.116553167795295 1.745662921243824 4.877056172076493 2.014166735327744 -0.21578188969344775 1.2221862290124241
Ni 5.558363466876026 4.00802240371406 4.1202875496665285 -1.179755056431407 0.5724157525406722 -1.1622772113616175
Ni 5.5576465698326825 0.3341987809043108 11.760757444367965 0.25699435937601545 0.7095694509072553 0.6943354075663203
Ni 2.22750152753156 2.0553717543194243 11.090259467325858 0.7152924694339616 -0.29572802850078744 -0.2934430891213527
Ni 2.600576610957755 0.08893247477944184 5.004724363074514 -1.406802748846661 0.11096469867604114 -0.5386895639328205
Ni 3.966442375200137 8.259966698837939 -0.031722228650388845 1.3389060850046879 0.8438131747158951 -0.33715852773143223
Ni 1.2204846300630499 4.048866914482214 10.258843242001412 0.9503018398984536 0.6229492425138498 -0.9315129893267248
Ni 1.4251261497083736 9.08426795376598 9.807147828798467 1.0080290194065928 -1.104085176401918 -0.6731628872537632
Ni 9.127849707790539 3.4007081941387884 5.932794137438724 -0.0031292896576010625 -0.33428531994869526 -0.9225084718352694
Ni 0.5216077714908751 1.0151913858328683 7.002825353982006 -0.30517991794230664 0.19157983852594748 -0.43785424038129755
Ni 3.6058524727495738 5.350705393437932 8.042756205056074 -0.7065088097040607 0.27248268481960175 1.0200023897183852
Ni 6.265223951612707 7.985739614232235 7.367024879597561 0.9476507754288518 -1.1560805956326023 -0.6756923385438364
Ni 7.638435582961558 0.5977031340188623 8.42672812354109 0.23608743402001925 -1.820324326019865 0.859724446629513
Ni 5.706044257804785 2.1824487380154673 8.73238695383936 1.0487915460359356 1.8883631718666576 1.365735803603022
Ni 0.9518716872383348 3.299467435056748 1.9963981276707705 0.3148356958645159 0.4821510054161438 -0.8133340322904316
Ni 6.162689053712164 5.272544995011066 7.583810821364147 0.08996444227529021 0.24095144698053983 1.5868339633030606
Ni 5.981528239824143 3.386286460111008 0.3925290622841978 -0.3983469263152946 0.1153034352607111 -0.6938186158309019
Ni 8.227380469595053 4.597283842288772 9.720318562357873 1.4980257461194006 0.028550300833866955 -0.32514993330633035
Ni 8.143419722362955 2.471851695097143 0.08963261319060328 -0.10349307288934434 -1.3858258894846778 0.19067815264728452
Ni 2.383049565234673 5.774596373780604 2.3046601321679865 1.1204191376752508 1.7570052542462449 0.3859958609491094
Ni 8.75914117908289 7.536962065099211 9.559265313982955 0.3053961477181708 -0.3024627761214597 0.4729711386890887
Ni 4.667940097638561 5.403923360967171 5.961027777489883 -0.9874082578324479 0.29618208531907053 -1.7901722279165169
Ni 7.3948302434929545 1.343055403772362 2.075705561366985 0.9719453863101584 -0.0021856947974091393 0.4775029651211712
P 3.6688090676468295 0.1730105324368149 2.862289652499069 0.7152605877547618 -0.3462370929939327 0.23306355959203087
Ni 5.575122099058081 8.828736054394483 9.442266785474175 1.9894913440682511 -1.174500492900687 1.310634491753504
P 0.6130465928166555 0.6242646349922993 0.9316617078618971 0.2456642790751769 -0.1499307955265934 -0.5027239444714889
Ni 7.839176065448947 9.122123841795002 0.11745939089378542 0.582548727209616 -0.013947206208711465 -0.27847335518539784
P 4.678991484527505 6.074073130873938 9.795741717528335 -1.4992927857572824 -0.2942740696630803 0.7847654766241194
P 4.086815906023358 0.9531378950032015 9.685884228399354 -1.722522389978027 1.7630985116281763 3.066352137536577
P 3.274673969778518 5.1455331837735105 4.173281137731553 0.6231371901549396 0.5933910692407587 1.3485109550843033
Ni 2.857616787225639 7.1083972884479865 5.516950093648802 -0.15533474015098409 -1.4987356277022317 -0.6394639523394213
Ni 0.03099509022071188 7.184723547686039 0.4484023419791713 0.10932870573451493 -0.04009403980740837 0.017134345687441457
Ni 8.142395583729607 2.7553891309151 8.048193450164028 -0.12965327622447995 1.769013848671347 -0.9403041052557936
Ni 9.160529040545548 3.3218122779661554 11.873736694258412 -0.0717360921927216 0.9789804387800687 -0.9261355270648953
Ni 4.131626626407932 2.1940401252747224 12.887667458537143 0.9033380695544055 -0.7173334111233904 -1.1976807876718922
Ni 4.0890503903142985 7.51811791424561 8.135390475477507 0.09697481215485235 0.40600032909549433 0.11011906284629422
Ni 5.867690575551924 -0.30660289991119255 3.4026130919968156 -2.1842549796388187 1.7239755774847858 1.2330434834419022
Ni 7.376907817409367 0.4122241792385981 6.1551532554409665 0.08202796103703293 -0.23363820114857828 -0.848467385658455
Ni 3.501176194070212 8.575624846338169 10.89879116361075 0.02076860000591907 -0.6393978749881762 0.02255731647522567
Ni 3.4611044424526747 3.401676470664863 9.468756596743278 0.1246699640772756 -0.8309206350239432 0.046862983100125745
Ni 8.808411557698134 4.6448690473345975 0.3220301518698959 1.9932839783414638 0.33100253543236546 -0.23916170206996878
Ni 7.758986010457811 8.46712201331057 2.7103791690145833 2.9983755123862883 -1.5919957100096582 -2.32314751507338
Ni 0.5244762906993703 5.704880463903253 11.849971091754014 -0.8572536164915172 -0.4442467741712027 0.7315742373131207
Ni 4.747506359098476 6.239769451398407 1.4077818964350672 -1.7050604857478375 -0.9193622128968036 -0.8495606187226337
Ni 5.155336983600012 1.9628454839720528 2.6376811536439475 0.730009206818846 0.6706339501843225 0.9885896797350587
Ni 2.4397309834148695 0.3138016634685067 12.664830719517711 -1.1724780631540193 0.36383192325756053 1.0612302860199208
Ni 7.618483500313699 3.6808380414130606 2.084262705166167 0.13903060367432188 0.04170329327605721 2.22980130081005
Ni 3.2544053351894426 1.64370526511844 1.2113670031208903 -0.7155500939707224 -1.2157826394789257 0.7946729655458186
Ni 3.9754920365784474 3.3459912600643764 7.089872482640967 1.7607199840936707 -0.9187315212913404 -1.1583315964503083
Ni 7.569045535376635 2.04845416336872 10.378648841400684 -0.5282359726996645 1.0310211094263921 0.44029961659799655
Ni 5.926941650666702 8.117406601075919 1.0077086565635807 1.7329325295677573 -1.167216557644764 0.3504349331253642
Ni 8.739999096990498 0.6466122710070704 4.029520004663152 1.5697962910944836 -0.1942697266532848 1.3256602757383749
Ni 6.677486303291276 6.42002716121884 9.523264047915413 0.991505310719957 1.0634943994637491 0.3442311183074975
Ni 4.625484896110687 8.571779671287509 5.591705696637346 1.7238907310804632 -0.1830913414389621 0.4742775162053381
Ni 3.4261254529482397 3.208058406854847 3.3204166563194386 -1.7377057825866846 1.2294238844114438 -0.7138871044460027
P 2.373385420676354 2.138084914489081 7.475206505508336 -1.7673174348055303 -0.8775409059856436 0.10558517953168267
Ni 4.188149768617521 7.363994360277972 3.3488690896240842 -1.7619831670768107 -0.22376207968544687 0.5759335358859435
P 1.6559949287186142 5.133280761578184 14.186831073589579 -0.8958037088505734 -1.1458887427012652 -2.542535891171163
Ni 6.974821679605792 2.118551797645774 4.44090811436289 -0.19484668220267734 -0.11021085122915214 -0.6868771515160621
P 6.650393181263619 7.010992394065395 12.727922314507545 0.06059910173929564 0.9449840272299662 1.1214740613023266
P 6.225496682990023 6.721403229959473 5.262227263797648 -1.3619598815003575 0.043241070076822305 0.6932221198974836
P 9.31491328434713 2.72625704197196 3.7685974119397585 -0.5402129425558826 0.4981288689016389 1.106070839373379
Ni 4.51252240485242 0.5879803342479064 7.75143252251931 -2.2918713306679175 -0.9536185629765125 -4.1763408239071245
Ni 5.624653167507268 0.9652227308767058 0.7521097226633531 -0.3117110341926051 0.05067592908831273 -2.37567386710687
Ni 6.8664957432512255 5.63561145088409 0.9750404962300269 -0.22087833037974863 0.917737275698871 -0.9289079476037098
Ni 0.7496871692779248 7.779990162792654 3.298682572449555 0.4236136713018833 0.1625651964611523 0.4730171614356757
Ni 1.7393225720682797 2.8318550454213347 13.352703673992124 -0.07748276486851172 0.606060437178311 -0.057180048755417656
Ni 4.580553141160354 6.640961795485607 11.996621226803578 0.22814221103101354 -0.5811215078447862 -0.7807946649018295
Ni 7.5195237772786605 5.1449373212959255 12.050433194740158 -1.0878825985001266 0.19134663946921887 -0.14751010190024275
Ni 0.8083386577746345 5.874915408092632 5.962786502833876 2.212749487534086 1.6708272755965805 -1.5596283494225465
Ni 6.821899160944533 3.7951226025434672 6.004333945118557 -0.746070888267399 -0.8073513323444353 2.3106727796451367
Ni 2.2054732365633694 6.9754268524345875 12.992688220211358 0.03536552398348748 -0.9434516497458397 -0.5830475212229056
Ni 1.059722795681075 4.971774099099229 3.931094695787697 -0.7315361849863337 -1.520642455077652 0.7094113280628362
Ni 0.17656801763501684 1.1110507619142265 12.290289255775587 0.2335063035564043 -0.21604517065716342 0.1087142120789676
Ni 3.7553208511110854 4.085689353526675 11.826779006884292 -0.23644070359437988 1.2996147436042325 -0.7765225198890369
Ni 2.115823864740584 6.433052342564783 10.398421234270147 0.8778666647561785 0.4116428720932524 -1.2617958729842464
Ni 8.851332276786621 7.754833593817146 7.290375551172444 0.8339439952312993 1.2566822059067648 -0.2391539887604849
Ni 6.080450721454332 4.20703116087597 10.215741902099406 -1.81413568071065 -0.020669355423893435 -0.15855684663270758
Ni 1.5209017326288214 4.334471248269291 7.627988437866288 -0.4014659315602505 -1.4910786253776063 0.2516557207719215
Ni 6.390159554529932 6.708443221072017 3.0706404160673544 0.4808484845546364 -1.428144447747231 0.45252469790927874
Ni 8.834452610038806 5.973530648132817 2.456733546798686 -0.5313315809058526 -0.1485817376978667 -0.23553721794350402
Ni 0.4493436184867301 8.140831444725947 11.746272399951941 0.010553350035814084 -0.6438086024613622 0.6179322489152326
Ni 7.729602542031939 4.996046184709574 4.368441926737439 1.0353323352072363 0.5173190686768445 -0.42700855591604525
Ni 0.5324263995995133 1.77655466656608 9.411429971224072 -0.06402098293665104 1.8768644271984387 -0.80208185641538
Ni 2.3298781494614955 8.64818972368647 7.190110516897448 -0.8626341640771401 0.13709944808988 1.187453196406613
Ni 8.540319994541305 5.38904541972999 7.151329179957929 -3.1244798949172448 -1.315196914313206 2.8482948215453914
Ni 2.0759848719033527 3.0515700236792966 5.326163307642433 0.23315123420983072 -0.31211598294050763 0.4351021315574571
P 1.1810552926791578 6.383195411823167 8.240274374988902 -0.11439377896224816 0.6574074241917194 0.7261489525324913
Ni 3.7761574171241077 3.9961051541623758 1.1786923255414878 -0.5854468746930176 0.4050752461780636 -0.9672814051755857
P 5.833921931705081 1.8836981883166888 6.605254736516374 0.6765359174910542 0.40809243573783266 -1.5243520427187554
Ni 2.2591846527068573 8.094167964450135 1.4985354759116258 -0.16114646173675473 1.3365828361881495 0.431350892045141
P 0.7381832993200649 8.324748122572796 5.41329143635694 0.6725653628790803 0.3883088253530022 0.9335184497925277
P 6.188571830082227 2.7889622573864847 11.79448419163435 -1.2367438151116248 -0.18882130194420385 2.1863378303097765
P 8.63686833661237 0.2855624372066217 10.449071406935047 0.38975892753596747 -2.2367864738786314 -0.12887294641502967
Ni 8.159498698906516 7.39133886178836 5.039690318087253 0.24272833637530455 0.143357770294766 -1.2727117485658017
