# total energy = -340861.39628691535 ev
CRYSTAL
PRIMVEC
9.34488002079085 0.00000000000000 0.00000000000000

0.00000000000000 9.34488002079085 0.00000000000000

0.00000000000000 0.00000000000000 13.67717650537760

PRIMCOORD
 96 1
Ni 1.0587842517236503 2.526182727424744 12.050590980637107 0.43398061635850427 1.518498669261772 -2.092505420438648
Ni 7.128265138264876 4.880344903347481 0.05718318984958085 -0.22570043435874035 1.525904989028172 1.1653777046638125
Ni 3.82485939427269 7.467035728934735 10.947485831930422 -1.826514513990977 0.2581806663746328 1.4087025369725352
Ni 7.003781991450542 3.711711586928801 2.085017482855876 0.687846714518183 -0.5241209220900264 0.8472335132513538
Ni 8.842910449670017 4.529341864724767 6.96697624698369 0.8474656838668178 -0.3027196293272722 -0.2703895497359988
Ni 8.642528187291838 0.6537276235717615 9.24362357758624 0.31730446911998256 -1.3384096049842433 0.5274317316308142
Ni 1.7257750635150337 6.188534658060976 0.7607835036272891 1.0369140778720594 -0.17563308538870398 1.3260533974117357
Ni 5.163719045228557 7.085091792548923 5.052185098665003 2.360629314068922 0.610725189643832 2.4736984606824755
Ni 0.3232431380201565 6.725725086303746 6.764348409935479 -0.6057650174250794 0.4119210654553035 -0.1862535412170276
Ni 4.721332424840409 3.452465925272527 0.8605541152152498 1.0529135386241093 -1.6277710678370547 0.5188807567370097
Ni 4.313933035266229 9.3599252819386 7.2455527274598825 0.308855567021681 -1.7497524293385736 0.9196182947716679
Ni 6.831415679387607 9.192941620770121 11.1069477991667 -0.0364268753684663 -2.031310336986566 -0.05181389934749787
Ni 5.951688673824863 7.905478809952292 1.1246862146366476 2.512231840870983 0.7439507566006025 0.7430171890427397
Ni 7.978069837987254 8.556807602821612 13.220673687947679 -1.6626717363689816 -0.4761834749787992 -1.0965204766807826
Ni 4.289243862239919 0.9540001120022242 2.986192857052225 -0.7034695086571047 -0.8310247647019752 -1.203048993962341
Ni 0.531571351883678 1.3910227712559662 7.439891655925832 1.1942146835001626 -0.8530094965031825 -0.7789627538994133
Ni 6.714212194112825 8.524184626653993 6.485730811987176 0.9211211045694395 0.43964347107123636 0.45450701844663016
Ni 5.585677757881841 5.724748262415353 1.910195336322344 -0.9842871957049629 -1.2203679448567628 0.28664097859785476
Ni 8.01752392145322 6.07570457663794 11.45236446851041 0.41533240512969755 2.0728135984366753 0.9069016185359479
Ni 8.549228905121257 2.9040429512395893 8.563293884047031 -1.4167624311625342 0.7996364801986809 0.20790608648979678
Ni 1.7657618051424289 6.354396933626444 12.28391020715175 -0.35100597513748577 0.5512895120850183 -2.0669373421615562
Ni 9.130742099323067 2.572224951308403 0.5325273331102456 -0.4362781541434293 1.2966677451607669 -0.1881291609731857
Ni 7.971547111729737 3.6910407123132836 12.04730812428429 -0.48762668381873436 -1.790546323426484 -1.0911257880277727
Ni 9.13885345518485 5.46996010853105 1.8622019014894449 -1.083312976851573 -0.7552461270087637 0.4572452433133996
P 3.8642854430985794 4.378450086959507 2.6016454370914195 -0.9192220877745138 -0.33589148809355057 0.21236566492304715
P 1.8138225231115088 5.2327496739739585 6.637465497930702 -0.41585408196112256 -0.5441580432465597 0.06256085345135678
P 3.441812762043915 3.47034268076054 8.685184761142402 0.7786027994568333 -0.1956432099620437 0.7933678735811498
P 6.07511584919636 6.658469984763114 7.49249398558711 0.6960035392973627 1.4515962510122677 -1.8531269743721825
P 3.809944965752633 3.3480929602722056 12.473899093966017 -0.9390491498027698 0.9457005936810164 -0.697903841643869
P 0.4031493381387661 1.7395587615520536 5.039533065599023 1.0072319774265945 -0.062409415475157035 -0.3666148853193364
P 2.078890045023419 8.625894300847163 12.5636632080231 1.1670802891772158 -1.5263099377760745 -1.200783594966932
P 0.9702415134858449 2.1343332182123267 9.468900600351283 0.5653099947338264 -0.3304908859032695 1.9169576956748986
Ni 3.4746973948522357 3.1684282969096675 4.368927654213932 -0.19925175324890848 0.8041819334775182 -0.0817130008997754
Ni 8.253584935767226 3.6255517930973955 4.864260495848281 -0.004218408956721767 0.17252462166670932 -0.9380842147863392
Ni 8.919706673716274 8.668862059202564 1.7364684097277534 0.5504575031020262 0.9235528539393836 1.3031034734837814
Ni 3.455306768800157 6.506531580435042 7.027538545450348 0.16120945376420623 2.27991621518857 -0.03981019001840241
Ni 5.847427847384842 5.158850362735482 11.569852038137952 -0.378305177173071 -0.39575602565966683 -0.2968492865894243
Ni 4.1398566101586995 5.401153756906253 13.43242306238839 -0.5192507384819187 -0.9244730517608079 -1.7456808303723612
Ni 0.8858011775790576 6.898670780928239 9.236607441663397 0.26590143205765815 1.425362257016403 0.3717578629728565
Ni 7.929953050738025 5.962547424414027 8.754637778464938 -1.1243935489419667 2.955600840422923 -2.137167025012081
Ni 1.4341213579317191 4.146463440336444 2.454328075935759 0.9082977275525261 1.2214634919137868 -0.5843664971446452
Ni 5.53556116630724 7.4790812792870875 9.576759205600966 1.7881359142127784 -0.098489706137482 -1.424288307225934
Ni 4.554255314871679 7.911674465408932 3.1220206882170274 -1.144076886303507 0.12577528132631244 -1.6669600793316903
Ni -0.16212525804343103 4.756422449334653 10.080462256273798 2.4114875343713695 -1.9708202500213088 1.3937844822101222
Ni 5.090875705432917 3.2244041282600056 10.572457106763181 -0.6758692304413327 1.3870664467599982 -1.8712020867063386
Ni 8.015262460487145 1.6791254224297436 6.279410812841049 -2.6290617400785496 -0.5134012216796771 -0.31026504577469793
Ni 3.2744459607944063 5.036525883206947 10.966579290797702 0.3402464226281366 -0.946481437711099 -0.1422928193653614
Ni 6.370853267350642 4.170517161521047 6.437286019449066 0.6357535933673696 -0.09986473210813769 -0.47819664875408613
Ni 5.456662344255336 2.6981004852464756 8.19171248512105 0.2842028014700073 0.1890781551500163 1.5377246073709194
Ni 9.129069365798575 8.684066179003398 4.427890109220291 -1.5783015003520176 -0.6710556111027733 0.6919499380532793
Ni 1.8369791358137022 4.863290497301676 8.996860806667492 0.7392219836663656 -0.651234205501472 -1.3696978735745635
Ni 3.063410535187614 1.2281975816986552 12.969341270696658 -1.553767262656079 -0.03417124656507019 1.2153630354430038
Ni 5.178549369828389 1.7594540111254875 12.284703587465879 2.374664452005749 -1.0203893407441587 0.5447727940124231
Ni 5.634532790653055 2.5082125231364802 3.738587461880983 0.5885190858604381 2.767477850097324 1.241522981667823
Ni 2.742582114165943 1.3245432947574178 8.460031090793692 0.16165142639763128 0.004966085756023706 -0.6700698501507363
Ni 7.015771472522744 1.3235527374747573 0.4953328416343497 -0.5776592603277987 0.1420148831136264 2.3833344689759213
P 8.389356697651877 7.950586545833441 9.736015585476693 -0.5123871785928659 -0.6060745782456982 1.0204772724722748
P 3.0661112055148676 8.088816011164694 5.106605941979166 0.3239417719308421 -0.03549536469313242 -0.40754427654384645
P 8.268219017886528 6.896913943483519 0.7173690600066878 -1.3164395284710553 -0.7433527180052876 -0.5103086987972824
P 7.117172765675083 4.294934894175204 9.598792563724142 -1.945261684825914 -2.426840876898988 1.7761563732533991
P 9.324592290563704 6.247678403739823 3.9832317484980417 0.8563393322073638 -0.4185079746442018 1.09435560781898
P 7.845120229870183 1.4300656800008265 12.342667074797555 -0.29725423533732676 0.8378888388116601 -2.3344822233599087
P 1.103499502643745 1.039627247672199 1.2292516841654864 -0.5056493456484001 0.4115909358093943 0.7721346752339864
P 6.049099703206487 7.191184215473862 11.910824282541725 -0.5808091188106901 1.7736114953443582 0.08254243877960624
Ni 6.387244186914665 0.4638293820937387 8.564237716929567 0.3082505864478304 -0.7920671524918552 -1.065221923677817
Ni 5.358840140152608 0.43320714473949445 5.075928569832773 -0.6419304116020429 -1.522834063412332 -2.0473337089980164
Ni 3.5928166783694766 5.763221133478682 4.374918656798022 -1.255930929563037 -1.1367073333123134 -0.5870165331729826
Ni 1.6266632659688423 7.121639618327081 2.9995822011521858 0.6420160293373137 0.4713659989854979 0.4659965071434684
Ni 1.7444554786852051 9.173485580557866 10.321276076568566 -0.00851420811859824 -0.1522357895106862 0.10958787293317257
Ni 4.67813104448438 8.8103622325426 13.157717231218593 -0.7397004659646809 -2.4899668588251958 -2.9440115929234265
Ni 2.205326271762998 3.4939758823440132 14.085713345574977 0.11882841769483406 0.40540537582397274 -1.3100002006036149
Ni 7.25957004749753 1.1557560717440942 3.1781245444237096 0.8528158924351378 -0.6634803698586768 -0.41750164486687447
Ni 2.4432282274419475 2.1896081835607824 2.4871258013598463 0.9378990953587266 0.5633379586091202 -1.297787203477191
Ni 7.344860767486602 6.564254904350074 3.285641127064474 -0.6324229863322398 0.4125676979003669 -1.4237694586079868
Ni 1.4592030159190827 4.596073652983994 4.556606486685994 -1.0131234032103646 0.39770877851066344 2.069303528400888
Ni -0.009627095401856156 2.308624575560433 2.971243852476076 -0.12180832625876441 -0.2947672072494149 -0.1447068281234927
Ni 1.8506506952904207 3.1026029620128757 6.960725456734902 -0.5260639047490101 2.1865034093533637 0.025226635777272684
Ni 3.1081631656278095 1.9342499919949492 10.656695593261425 -1.4498286175888837 1.5118477396041576 0.8099604878325083
Ni 5.201079875568901 5.110313055885122 8.467512601741785 -0.25018119310892395 -0.7355031400538817 2.1035876463947383
Ni 1.5838917500939678 8.666161388875311 7.162778583661571 3.1964039347510567 -0.5822162835708617 0.01786968119156922
Ni 2.5671039570546488 8.823566548018064 1.1495613507754565 0.5923955380967088 -0.7241679175467206 0.10473568704719383
Ni 0.4044108969421544 0.5973107138842388 12.81763461939321 0.8466251902433936 -1.2524370574771655 0.8886953799405661
Ni 3.995954802652213 4.372394604703243 6.545239942475004 -0.4958313311167138 -1.9533040955144165 -0.422147371169002
Ni 1.650810435953696 0.33242448264481544 3.398108627142536 0.13383980350200175 -1.1422295486821232 0.8879844699164707
Ni 4.571889103479039 0.3943866441392315 9.989687026197993 0.19570465932759845 -0.7276815871269339 0.05092943986001552
Ni 6.874738543183962 1.897487233976213 10.277276643458395 0.8961325529449018 2.0624314838714026 0.41726433204508784
Ni 3.223450950497446 1.6622672588644665 6.052985304320922 0.13326876148988015 -1.5201562594698528 -1.109174160889051
Ni 7.566820357842734 6.477740005077715 5.6377595777257214 0.23770208680530677 -1.1312149427391744 0.471246442688498
P 3.1880245103222986 7.820029227002795 8.793330254208856 -0.246242263065834 1.2061903678048 1.0258709326840203
P 8.88019652097016 8.851554463693233 6.918914594526608 -1.893380679685907 -0.036442044877117885 -0.4670804842362665
P 6.768094772337541 8.55515355905717 3.8543789357839726 -0.35654978777385044 -0.16637454290491346 0.5418867307138797
P 4.007355556282833 6.9945585948657705 0.9392024944824812 -0.9626670463320262 2.3682667760095213 1.7835408386429286
P 4.957570991874892 0.8590066030830935 0.8790280085368665 -0.5152997242539706 1.712644982963315 1.7542271772804756
P 6.375095842882036 4.84696499189783 4.358506244009942 -0.12758765194470284 -0.5300213467348613 -0.5416093086827769
P 0.5014060791626611 4.559479102805709 12.405158156501392 0.7283899260478681 1.1165306012541223 0.11566801768898144
P 5.399892198102865 1.9621351139898422 6.325953922294053 0.3596237987134839 1.317812240448866 -0.37057232730518763
