# total energy = -340892.7893770671 ev
CRYSTAL
PRIMVEC
9.06970740612805 0.00000000000000 0.00000000000000

0.00000000000000 9.06970740612805 0.00000000000000

0.00000000000000 0.00000000000000 13.27443356894579

PRIMCOORD
 96 1
Ni 6.339489623565385 2.3290282891990297 11.522447351967859 0.8752407970975572 -1.2259822057197467 0.22670136481942893
Ni 4.657231235029429 0.6239768191278774 5.957764687691293 -0.19940987609332755 -2.679354317685515 0.42206535297815695
Ni 2.8353809807069132 1.5808771998047386 4.855508642208487 -0.8389753870076195 -0.08807853810648703 -0.10399572355737574
Ni 3.5224475911152724 4.206539337513626 5.139329715148423 0.14246534038748368 0.10530621483868317 -0.8961127554505599
Ni 5.033279441074672 4.622013561398787 2.6091425727460105 -0.26175784220292986 0.09037324767793468 0.33549296710355125
Ni 7.417578526849837 5.989707289998725 2.4693901731393986 -0.9606122206855263 -0.17969491416290345 0.3935194230196642
Ni 5.183909140703234 4.4954004468266096 11.499309621553454 -0.7553338016265637 0.3092936830003641 0.020572939055345213
Ni 5.503580045875938 7.894971642796907 12.587919385361095 -0.16129764260263835 -0.3076877719658249 -0.0027001725399824466
Ni 2.126601490908455 6.346074231099726 0.5573697953380057 -0.7809851836460808 0.04861698967675498 -0.2889079202551605
Ni 2.701140242255424 1.7054677696384057 0.24155079487581774 0.049458511741443854 -1.266937822196502 0.027808537571835976
Ni 0.48282496367753436 -0.13479671151189576 4.594640277653064 0.11612413138979354 0.031229390327926862 0.2230761093620158
Ni 8.481772638477802 2.303297529453953 1.2358229046783704 -0.11784959872133252 0.8218778080953846 0.8063396032504694
Ni 6.829262890041898 0.7484168318195749 4.582612938739443 0.8078082173761959 -1.1298103490821638 0.7641724829641162
Ni 0.8107674419512286 7.006947526688282 2.495633371349613 0.22278326071194535 1.7644663385099806 -0.3181974132478972
Ni 7.752241658268086 3.702490351672026 3.832514583177627 -0.430805046844 0.27932798987620927 -0.5249750425602056
Ni 7.689089286006906 4.128594272568548 12.82575794901955 -0.36298243077307163 -0.5602402935204029 -0.2654383763783106
Ni 8.1461843969101 9.139362700006533 6.983122312456931 -0.3494090629640112 -1.593458924818746 -0.8799394881248073
Ni 7.059025786278069 0.4332055017496746 0.3844113831904443 -0.612756361141248 0.6213667285180782 -0.6163358509623902
Ni 1.974466219860196 6.5842991642911874 9.145579984393299 -0.6860286874728379 0.08773889537888116 0.05716667901897897
Ni 9.290101236123267 4.879711156265497 1.5056657446542203 0.20229362539902582 -1.1383975765305427 -0.46069797774869053
Ni 6.507242930666172 1.8212788627596181 6.999569319761028 -0.7101541197661317 0.18671222602100102 0.8614823098608841
Ni 3.1980876472438706 3.9982807173985595 0.5104313389020897 0.330497827881805 1.2773919276502903 -0.6238373015457579
Ni 6.160634994671164 5.395596110195684 4.855070575343598 -0.9263080480870176 0.30484181787659753 -0.39172813544719637
Ni 5.431602848365565 2.8411311751652777 9.308019349959139 -0.5047443173356274 0.5004030096477963 -0.5311737151717497
P 0.24702073537714153 5.79723903037579 12.675092877532332 0.2523355204477654 -1.3990722129716227 -0.7974361301132524
P 3.9949974833387367 5.893876762164225 12.799527448399623 0.48618738026904657 0.6335982375872636 -0.050093574222281466
P 2.3572713578793847 8.47376408688989 1.3734130860533198 -0.45624379863207876 0.00932873360009361 0.0455612335695667
P 6.34153030771859 7.7910781451304105 5.801870022947463 -0.08520353055153713 0.6831189700252105 1.7067062488813767
P 4.648841755732921 0.8459996271136269 12.487618398774975 0.451289539950597 1.2696341380817424 0.7095918195047586
P 3.9668360420245095 6.28953367549493 8.284507410638733 1.0092621204827457 0.8606950380728983 0.21389290020085097
P 4.484371682691957 0.8934097083316168 3.5887562215334086 1.1847671649340175 0.45663794874670394 -0.15399365274205737
P 0.20102190062243452 5.458721273334821 3.7790450304807206 -0.32359955810007496 -1.1487637502562151 0.051221774289453716
Ni 1.675220295634236 1.0845011863791891 2.723475303569568 -0.6231934973141718 0.0033630029349619502 -1.0471167294366743
Ni 1.8350648179279356 6.553679832285766 4.697702990126523 0.9918218135191114 -0.4193343272002391 0.397739888858915
Ni 6.009071115185802 5.827513713502003 9.251337306919723 -0.5702434274797018 0.004331023275186089 0.2855811698747727
Ni 8.745111591314704 2.5579658420665714 10.2708404355925 -0.7807460710520813 0.46466441859560614 -0.873948817759011
Ni 2.473291054269591 5.201277630273844 7.114604952904023 -0.9034985063916697 0.32754414457011977 -0.4864740582715299
Ni 0.4545610346702797 9.07895844907167 9.047017660705707 1.5729754601534136 0.8866510958170278 0.5298938200180616
Ni 1.2464861596069168 1.14046128071374 11.247759474326934 1.281322115942632 -0.7052412558455466 0.544194810021766
Ni 4.144992303452967 6.96150829287692 1.6955699980099947 0.9148555832757017 -0.9910941913244673 -0.7544316015272684
Ni 5.809918481247703 8.247756049495615 7.9510006669073 -0.6659393729221306 -0.74962389572598 -0.19434634552749108
Ni 5.30187882417317 2.5487419496940857 4.895213100063975 -0.39409483590716 1.7554502510542993 -0.7134929543313777
Ni 0.9061209031792462 7.326210295030345 6.71938519946747 -1.7210864288624488 -0.05068261395653207 1.5866899815260285
Ni 5.022812998795568 4.673964845085709 7.070176084491181 0.330833871064985 -0.16940793041459856 0.9430983801714791
Ni 8.110159519325522 7.379667150136965 8.895636082338033 -0.6051132427736934 -0.2981572067675704 1.0591109256840727
Ni 4.539134575656627 0.27108901776540695 10.364000841583872 1.0886282184168994 -0.21892172087401007 -0.4461802437484897
Ni 7.89230514883672 7.0369229094720245 4.650644813553618 1.8309039013079242 0.4987970986132571 -0.14345367244268198
Ni 7.139818739330288 6.140681638506495 7.15429580619849 -0.15651410517106593 -0.1428029262325605 -1.5055868462961104
Ni 2.547426842128687 4.907618645773992 2.8748441843469563 -0.9634574034438051 0.6670632021139286 -0.7776628041410671
Ni 2.304884728239779 5.363217254964834 11.499933617418968 -0.11431098944045476 -0.2708955428381399 0.332391188249776
Ni 1.1529774768533965 3.205452249610104 3.99026853792771 -0.340718991389181 0.5722838549484983 -0.3905086612177984
Ni 3.595504083800006 2.722871261060219 2.5854352647101786 -0.0021178176739511914 -0.9465734832042728 0.3402453941868721
Ni 1.2397564367550147 3.6163734804067813 8.477464527487701 -0.27305244128014267 -0.7507433540424039 -0.7821689195415368
Ni 3.5187743596395036 2.922268777096703 7.338731026023675 -0.10626215099404925 -0.8399189818678116 -0.26570114312139403
Ni 4.252667869083403 6.726630081696714 6.093257045756747 -0.10208719368075321 1.5295490135386627 -0.4183074285976215
Ni 0.7067696426502355 7.292842841698609 11.188090776657956 -0.5526172297575063 1.1498816659107423 0.12434780485116649
P 0.10698808181348947 5.659025760106061 8.091032413500217 0.5278428510263039 0.38743053651310694 0.33696698054591645
P 8.70068816472627 1.8454042843041736 8.04025837782701 -0.0916459437427712 -0.08173588371791085 0.5174190845898187
P 2.044439012046754 3.34108972299312 10.54170543158642 -1.57124099396081 -0.41604897158074794 0.04226610775806269
P 4.0768606618579675 6.049231779320873 3.9713917560251977 -0.2738875355869283 0.11958432202425212 -0.36512981613337764
P 7.066780386060249 4.111679268365316 10.408151269981143 -0.18744910418702557 0.7232261224587415 -0.2920966023957872
P 6.382380269612077 7.86557672128341 10.311167982342766 -1.4977390681169171 -0.8990664387622451 -0.6529982393804303
P 2.398139459187567 8.450019593053934 5.817759243249684 1.3221116391551682 0.6870090491082361 -1.1617241670716252
P 6.744642520489004 3.8710236536047047 1.6510876183238026 1.4485312389336988 -0.1753086121697497 -0.334670728312572
Ni 5.193786052004746 2.688751022018634 0.4856465496333656 0.2741495309990633 0.08243316689525158 -0.5067682897441917
Ni 1.431798420132613 0.99289714216866 6.865311348865578 -0.2588157288554704 1.5083065592201186 0.49170162521905636
Ni 6.961934569122257 0.8580505472663525 9.23592606019472 -0.15585461721019608 0.5274623277584335 -0.49872047973905076
Ni 2.8713333006327093 1.5788183762368386 9.267744407511488 -1.2743312864470957 0.5657470822712449 0.10492646290176122
Ni 6.3351905822826335 1.8768308202635282 2.559868666668093 0.1194809636771684 0.12086293162635958 -0.3033408078510389
Ni 4.023240552019092 7.016896995648574 10.753167472336653 0.5421536112220212 -1.161660146602909 -0.7559398106416788
Ni 8.311425395075608 7.356530326693295 0.37115963378489936 -0.550975066168393 -0.06931822677984836 0.20711547226770138
Ni 7.74945725811238 3.8938339675838614 8.105860478042771 -0.2484582968805463 -0.3506447351433251 0.5052744788074847
Ni 2.9364991479250513 8.438809434772327 12.481896320409389 -0.26822853752893805 0.019749928933417597 0.053773851287346096
Ni 0.21695193460771903 5.005326603029439 10.214503948403024 -0.9084026285615064 0.15126494095698467 0.6500142170514418
Ni 8.4374126998408 2.296150600064062 5.777073443059187 1.3700020350785438 0.7363878566516802 -0.3107849228339099
Ni 3.832831115964057 2.5144493862128963 11.315737837867758 0.07083826296880058 0.09362672161822586 0.5789298995101062
Ni 0.8368120135705311 3.4734167531942703 12.464427157087218 1.1729195215668122 -0.0312972674513848 0.23047317315703533
Ni 3.10974869767847 8.646006899127729 8.021009737923247 0.5163219948708978 -1.483610342025019 -0.6020698279616792
Ni 5.632206635479276 7.790280010883825 3.776695976277698 -0.4726651774128957 -0.036337400978453546 -0.9545382465773044
Ni 3.2202812211233924 8.12723777826101 3.4654499222601585 -1.1248270369349596 1.0691760232295588 1.0839441826776686
Ni 3.4827766911769698 4.542209206447456 9.45410421923583 0.968243511978539 -0.6275453465249644 -0.13252674111753304
Ni 6.983366287584582 6.148898793363399 11.61377567707502 1.5671423984114043 0.31153825606016666 -1.1869042658816784
Ni 0.5312327127037578 9.43503515953755 0.3272468317201351 0.6238509283925128 -0.9082524761368874 0.13540200578279907
Ni 4.723240565105096 0.28852462317038924 1.410355818021471 -0.7018689969392041 0.08606125056614211 0.13998551138842344
Ni 6.015809907745052 5.536194713497824 0.3871776439314554 -1.2405274505237731 1.0202826399629654 1.0967125380869305
Ni 7.850384961476219 9.067421781325551 11.130054626311546 1.7692367633154304 -0.26284413328857315 1.7204217986952566
Ni 0.08917245567064369 5.007693796647158 6.03401281039164 0.043267552439383544 -1.0884646962558415 -0.8510271759658311
Ni 7.989904269603997 8.630851418149927 2.497213314369561 0.14330403423869514 0.6273288596387842 0.8045737695992982
P 8.6346969740653 1.6300803621653446 3.4583084346946764 -0.6275134648457644 -1.041917701734238 0.6332125721130708
P 1.505988626235794 3.0767349629332887 1.5416797385899796 1.150802892173431 -0.034903496745404404 0.31584742495848184
P 4.686744062738445 1.1250971964669443 8.062333138540279 0.4371011642653569 0.6943942858287138 1.107406527465667
P 8.413341696540332 1.7771184576842651 12.31214314283846 -0.5586323256033348 -0.1037740944648729 0.6434864432352531
P 6.24487443651546 7.675103797276942 1.5154093312577224 1.0118131690393737 -0.3737869775877434 -0.597794340514777
P 1.7317789906537269 3.2722234351029664 6.0837392948662 0.0729761352474098 -0.5252005283074503 0.5104377681759791
P 6.667450241253774 3.760790430502252 6.1028010987986026 1.6100857347421496 0.4133112609346108 -0.5291803388908047
P 2.382684677867296 8.498642294144295 10.158273576789515 -0.4914565990877858 0.79587161383961 0.8222020242040226
