# total energy = -340890.5758016032 ev
CRYSTAL
PRIMVEC
9.04968596676437 0.00000000000000 0.00000000000000

0.00000000000000 9.04968596676437 0.00000000000000

0.00000000000000 0.00000000000000 13.24513016863755

PRIMCOORD
 96 1
Ni 6.443901262447966 2.0494099746038823 11.568548360012732 -0.2626443585729412 -2.0801983209365202 0.3433893391324925
Ni 4.80634249442277 0.3523730507861634 5.947990238190802 -0.9384752795771708 0.23564571849691032 -0.42419062685127595
Ni 2.9080622748148035 1.6634408697789864 4.708127158015875 -0.07213564162398545 -0.7069996332975502 1.072933433389462
Ni 3.4438941786057082 4.326356202492931 4.936261595540876 0.09110601207890116 0.14583939906603915 -1.6175715015962335
Ni 5.051607082440692 4.6572308193887775 2.633860411073832 -0.6490436256080564 0.1336369434625763 0.637808161903553
Ni 7.136021242213688 5.974231612475932 2.379593195494837 1.1883114306418503 0.7599949545476589 1.4543920685898502
Ni 4.900468277758849 4.629059147095227 11.435129745346307 0.85519596263154 -0.38420843003138344 0.275298557001842
Ni 5.703808897578451 7.839389981587788 12.353680106776809 -0.7664291402087767 0.028209629664996575 0.757527723954089
Ni 1.7633313030511364 6.683935131999561 0.4073363182692584 0.4532780311355355 -0.8178303774988884 -0.26169485017547833
Ni 2.60883440960882 1.6210883396364189 0.4108132076027573 0.9635504773782437 -0.850739212411767 -1.072821590401946
Ni 0.6635953697209841 0.1224513002904025 4.738657178462235 0.7849289987851773 -0.9451120681673981 0.14065811197541583
Ni 8.792620549431183 2.3116608231084697 1.4064868024479984 -0.10743483114591174 -0.2830913135733834 0.3509316702561246
Ni 6.9253264544403415 0.7602650197713948 4.684722860269143 0.5406184055244173 0.8633813266558099 1.0370796569156462
Ni 0.8503247792200681 7.485248622171313 2.573251044540321 0.03333538092733614 0.11107757010482161 0.018395728898368317
Ni 7.645916746135234 3.8898355520747914 3.646212577084191 1.1002388060726342 -0.5958367025677739 0.32019696017642924
Ni 7.2535947617889525 4.015119404060626 12.703364495873792 3.200143861409463 -0.20434253750825454 -1.2616871153205238
Ni 8.15331453674068 8.901361575540818 6.9845937525507455 -1.1282864562384698 0.817835519705211 0.3233272782752948
Ni 6.461973485245981 0.5964150262352252 0.49494270786287836 1.5220375356529658 1.0408092991614075 -0.8336722296271513
Ni 2.0211568551369816 6.602478908962542 9.456837632575414 -0.8267626469915117 -0.7891286386888215 -1.3637259722618449
Ni 0.21715083371430968 4.861645125128161 1.3371752579262193 -0.42598551396816964 -0.5918928874286774 -0.12947072790002864
Ni 6.451566346428897 1.8387785346320313 6.998872347007785 1.7263240231123045 1.7618229873498625 -0.802532056578921
Ni 3.3424200502961754 4.601113716949875 0.6064203589971104 0.10963312434881119 -0.3773698098429953 0.4404199442259447
Ni 6.250808113804384 5.669682531944344 4.713014893385533 -0.7394549256127781 1.1975314065782214 -0.2094495197175167
Ni 4.995842917752978 2.619196299996265 9.640295580611562 0.9451385505299593 0.7918180125955266 -0.86796843180586
P 0.27671677146033424 5.506417148119117 12.43199789873403 -0.28658287166640967 -0.7079267730975098 -0.5140103160185858
P 4.1663939540313875 6.203550653888894 12.752636415876832 -0.48017614107796003 0.9414019663056626 -2.2634621833976047
P 2.6244179687766622 8.341140768174226 1.4731630784275729 -1.3325436331217695 0.9590441048674582 -0.6476853118079491
P 6.556479355391031 7.848665909663885 5.830214910619345 0.10022391521976932 -0.20527327685264002 -0.5346650161544598
P 4.617502698165301 1.267381365144483 12.717563453094664 0.9199641081468608 -1.5761749409273178 1.6399251867010853
P 4.04581593872806 6.160600844475086 8.150390583217376 -0.25841952185831624 -0.10658996664711319 -0.42432406710534665
P 4.839437195861097 1.2088027481331922 3.7931930510821643 0.2840806740698462 -0.8623737113269019 0.42787450346076633
P 0.017935572540503195 5.626271188548211 3.422898907252982 1.3915219114281905 -0.8371882132002096 0.7399416354412095
Ni 1.8855835102511251 1.0101621420158073 2.5451707740746428 -1.510914686266927 0.16893998963924453 0.7994552174258103
Ni 1.8217198766579414 6.524714957784105 4.7647637124270386 0.6496738029928876 -0.3873480041016297 -1.1926751069271848
Ni 5.892965432843397 5.404372889596126 9.268571586405772 -0.28230429889571385 0.39492350245604246 -0.9511101947323619
Ni 8.520976126933435 2.335796335478177 10.168273261985643 0.3510373425960535 -0.9473864660238717 0.6289620243668329
Ni 2.3989450438830566 5.224383686176141 6.7627253175622215 -0.7693874515061523 0.24531897992061621 2.154407814370399
Ni 0.42688816471648444 8.953379170254381 9.164888429761238 0.7293826289784405 0.6418432512048753 -0.09566303532196427
Ni 1.265680024190038 0.7868439473416344 11.566203586388813 -1.1341858524420403 2.18471649265627 -0.14152714484393045
Ni 4.056874654931953 6.720830701527605 1.588475081489456 0.6973060601588701 0.7228273443584261 0.5316830507080005
Ni 5.625764406136249 7.968248459515143 7.780242139331633 -0.44196646277745816 -0.0964618770741758 1.475878006377768
Ni 5.507874147553508 3.142087152910274 4.643133218650296 -0.06877186735807511 -0.5473716650878508 0.5576457933203492
Ni 0.556058856808352 7.308426808826093 6.5195711163026875 0.6738863956833491 -1.1365960045454295 1.8702260959463144
Ni 4.870649562626422 4.282872461609377 6.919693024950224 0.5752002572643449 0.6296906750027413 0.6571228030717651
Ni 8.050908290780574 7.107261340334824 9.11960289640944 0.03772631090618019 -0.4988690895017731 -0.550572945633968
Ni 4.531213942842784 0.37629046572500785 10.721204547337313 0.015428161629612141 -0.7669978682280533 -0.8479020000732882
Ni 8.277946811339707 7.3011056129104235 4.463542201411139 -0.9165244863376925 0.13913679023488296 0.3292439008700459
Ni 6.9492266749759235 6.10441134454876 7.136356985561613 1.0575813764134239 -0.63982133567884 -0.6217089423488454
Ni 2.31329881626142 5.174022183987383 2.6833440937275843 0.09605230034058296 0.6616484588562606 0.39568917697747336
Ni 2.467215874523127 5.01698298408055 11.68791371740172 -1.107602445526557 0.5059961874648575 -0.9037972685790112
Ni 1.2720872018269904 3.241615598745308 3.740901250884985 -1.1496762347681555 0.026877284006818224 -0.4712829523533884
Ni 3.6905524182565257 2.6772952836533768 2.610946606304392 0.6474035189014721 0.5252547785841535 -0.1604414652499301
Ni 1.0560530993561836 3.376609763731778 8.310339257150028 1.0005756484523411 -0.04911912612415412 -0.421485569215287
Ni 3.2768822248063305 2.458537225718272 7.257258074652566 0.8602795478020345 0.9944361112135068 -0.06328487610157488
Ni 4.175488888388926 7.0315064194323815 5.842903475258853 0.17303549986485683 -0.7790352590085615 1.1492342621347302
Ni 0.8752150353961617 7.4082991427263885 11.405990661627065 0.06635940126184056 -0.9084661348095903 0.05389752134940395
P 0.4604742641006963 5.580968460793149 8.084721537281576 -0.4282185170637464 0.6331858326401935 -0.16412097098404638
P 8.647463587147682 1.7399559642993732 8.041635077610255 -1.2247398486722132 -0.7043285142232902 0.044468771836336324
P 1.6481830993045488 3.0890559933727846 10.574766149526422 -0.0516550051721304 0.6421263296629328 -0.1850042421909588
P 4.19157922996873 6.411521486197943 3.8119485251677347 -0.08508037471011154 -3.0070660981817503 -0.3165449652461387
P 6.7886490478712815 3.7851940336904937 10.512209290581227 0.31881627777881866 1.6746368791506578 -1.3130058201991581
P 6.086601562642654 7.860177110164173 10.23782371821592 0.8210553121940891 -0.3242467047657706 -1.150286871768961
P 2.46586747131987 8.408723822683775 5.778306817105509 -0.24787439935261824 0.8771801802121151 0.7283325904473714
P 6.771318899319354 3.93873100514323 1.5623694524932457 1.0269790781465347 -0.48814090445099156 0.1125577541947739
Ni 5.162782474064932 3.3297323906252614 0.17997110404812908 -0.39979034363004046 -1.9101285885682069 0.759851229880943
Ni 1.5179671684880087 0.9527599841751434 7.066780285242146 -0.6238190467133128 -0.33656280312896225 -0.22397650968909813
Ni 6.6601616070669705 0.6421865277213532 9.20765724545649 0.9529248793435975 0.41756746510780346 0.3404842496705555
Ni 2.6800916366050975 1.6030975640117553 9.519712135496679 -0.3227827186257344 -0.6714456474523404 -1.9388496106519835
Ni 6.408010208057918 2.0013380429548824 2.503157607154371 0.061118207467559256 0.3518773219988456 -0.07697240089099647
Ni 4.165416587951174 6.74105674957646 10.417215642364662 0.20180383024680085 1.2450955295104298 0.5477856126968179
Ni 8.291249849653717 7.1669440190293185 0.05825735316085035 -1.237132051688979 0.19023155202816916 0.6250212945515301
Ni 7.754123840775123 4.041291095764111 8.462432803697263 -0.6406965391949417 -0.3278326223448161 -1.459284877905777
Ni 2.9754281368620843 8.449845595540149 12.420131045576777 1.3441087122515496 -0.6771907774662337 0.5119146098318216
Ni 0.12827658312219115 4.685972621895785 10.27408852463479 0.21865741146902987 1.405474774063857 1.1174906511745464
Ni 8.894520012979326 2.2146662893332474 5.778095054454797 -1.4614448616715734 0.7904337306534903 0.2120450483588348
Ni 3.561748238444738 2.50855483984177 11.481130203886412 -0.8169523457693092 2.002463587958203 0.5965234442221533
Ni 0.9213123255756941 3.220602228020726 12.629390553161958 -0.671456703195934 0.24277590178378833 -0.016906803057667657
Ni 3.1828016898998914 8.478895087368704 8.13281428320821 0.43692272970596363 -0.13888482212507694 -0.4317319295336436
Ni 5.8594815949101715 8.016655229543476 3.678080141110695 -1.0904778700311284 -0.6272185593131651 -0.2304819149077837
Ni 3.2338419185332428 8.269168615989644 3.548489543591773 0.2037064465861524 0.7676861525443296 1.2651082251869308
Ni 3.4805997047292667 4.443196697508037 9.448625042595845 -0.9292118519973739 -0.31110451095685776 -0.6895837518139478
Ni 7.114510138763071 6.21881747404926 11.167710621208297 0.8622772949583536 -1.3646068322049014 1.1754934529415755
Ni 0.6471258463008005 8.99749638915289 0.5627710088610748 -0.10558209420788912 0.4532605476340387 0.009709513978280052
Ni 4.573331181151225 0.2667476374421606 1.721628540358192 -0.8766934703836837 0.2048824691721246 0.1971863860794475
Ni 6.155225331033913 5.724433131808133 0.34821472010229376 -1.4689707377349734 1.532243272541374 -0.502456035522083
Ni 8.005759407686286 8.646676264471953 11.12609473550026 -0.8581982397929736 0.5756933948506795 0.3264221151505346
Ni 0.09936102664536799 4.8879887608642765 5.705035130021682 -0.5854903263364433 -0.1522584152185055 0.13525185335817996
Ni 7.938438794068644 8.991351652407847 2.505714143429003 0.4457125600834518 -0.3906801537986562 -0.6600073237084118
P 8.696639580479884 1.5820117957997504 3.657550023614663 -0.43421921473187153 1.714776170373705 -1.5477858482616635
P 1.969808937182082 3.27675552920334 1.475110570839257 -2.5298703798883526 0.15766930182143168 0.9983876396620869
P 4.84838733524379 1.1582240534821642 8.12135738082349 -1.4885741137881976 -1.1247607024733983 -0.0034211098664070115
P 8.23325946222774 1.1810926098219652 12.592529372440442 1.0945929206407665 1.0578022341749782 0.206053092441458
P 6.331902349404287 7.7713001446662755 1.5190838997315113 -0.020889441854499508 -0.3209976017008537 -0.9452079703153142
P 1.697549136041238 3.1958694363797777 5.904493827746948 1.5644602235935507 0.8020923979383412 0.5385679507532919
P 6.9193898604716395 4.188520436125101 6.059143910568816 0.5467371168276455 -1.6832588164917137 0.6491166449378369
P 2.3957595544364363 8.628269203294607 10.22627360406614 0.3150951201734896 -1.12835150514845 -0.1753060410665884
