# total energy = -340860.8451906765 ev
CRYSTAL
PRIMVEC
9.41155821647476 0.00000000000000 0.00000000000000

0.00000000000000 9.41155821647476 0.00000000000000

0.00000000000000 0.00000000000000 13.77476678469493

PRIMCOORD
 96 1
Ni 8.619424755230058 7.09790524071731 5.771737669760283 -0.5499715646045431 -0.21634496128576935 -0.6124977081632226
Ni 3.0547658302198335 3.638150660743368 7.009482712706927 -0.9969552780909345 -0.34654048316696445 -1.605533082374461
Ni 8.037028138290315 7.8929654208892295 7.778775929548298 -0.16795474290783977 0.5996743311463091 1.8753397630237962
Ni 3.242112302591038 8.927126230549266 0.9222630326777089 0.5905196612302346 0.865059228578865 0.4018094309425983
Ni 4.638683973880631 5.928048588665633 2.987058141237332 1.3458367506862499 -0.8888367906144369 0.4417911135418585
Ni 6.431689288756071 4.968559079708557 1.2351436883317843 -0.5204509294376068 0.014892857951432416 -0.37895618049350865
Ni 8.704815820427683 5.650012343976086 9.291782689903517 -0.6764130187599448 1.0558317407121687 0.09930114629518383
Ni 8.72825059970048 1.0840985360943576 0.809499392364821 0.719816068335928 0.3878231439658353 1.5424289548251242
Ni 9.347051122755554 1.347433927280246 9.30161776795174 0.038277555423959886 0.6539333496001898 -0.23004328470846833
Ni 1.3126299860148631 8.060698206511635 2.7382306666173135 -0.059190394317227085 0.8236994346851556 -0.17392124490391983
Ni 5.742386785165846 1.883553913824669 6.805147437096635 -0.7650322598612501 -1.0549213130827575 -1.337483236515232
Ni 5.877753223029558 7.318625097546883 6.50434839837127 -0.9290056495238388 -1.3502405361809002 -0.7177278183483315
Ni 2.72108845498379 0.3140843939147144 8.170930137738425 1.0426083000433592 -0.10746696993542783 0.536560690515276
Ni 5.789058700994682 3.5594323901258274 10.2498858763759 -0.0073034756399487115 -1.231487451808692 -0.19992692493906214
Ni 4.177734100610036 6.6802485339747735 0.9484422222460673 -0.9128362388528279 -0.3390822271167064 -0.9142552306875416
Ni 6.998585069767179 1.0512804335545007 12.950746069877352 1.5110278148060237 0.5283933242131351 0.015924384539740318
Ni 7.790087681037444 6.435105684288612 11.592663905942793 -0.4482096154736926 -0.2525527786648941 0.6019219895299054
Ni 3.442936125933586 5.983190906641262 10.824239375899364 1.7632787459597827 1.6820218587608193 -1.0404840546115048
Ni 8.648911166258841 0.5674303575021503 6.832532247237221 0.6835699415197002 0.9483663134386376 -0.478598255067879
Ni 8.26874069479484 3.232192520521348 2.9054147584117658 -0.7034854494967047 -0.9358874642453365 -0.5316529688010134
Ni 5.327638249827042 9.048902378746343 7.9438386561828755 -0.1841984584602118 -0.03975568263138315 -0.2208418207148584
Ni 2.744956165921868 7.893671287734796 12.270355370501349 0.8404794823569719 0.8342597266995051 0.1949886070971803
Ni 3.84051797958822 8.967755926180056 5.861080648137284 0.7234696059281153 1.244274062050399 1.6937208923653027
Ni 5.108038368392434 1.5563893366837163 11.721981535517898 0.6653464765331379 -0.429327433857209 -4.068616486545251
P 1.448655232934436 2.1762533657861103 0.287361216297373 -0.767689237868123 -0.8325527713107274 -0.03053827779817321
P 0.796506736627433 8.779684763847403 8.151590327325707 -1.6253622012852462 -0.2911154694294406 -0.24370175603216737
P 3.632371964167666 3.6420188110570706 2.9633240744220144 -3.143478033286302 0.6698525919336076 -0.7008644669340897
P 4.77733504546571 1.3250814771706505 9.174421503536509 -0.4148410673155759 2.1370140443739842 0.10749962294557616
P 3.211600031746697 1.5840687285878512 6.4574731928909115 0.37229445220261687 -0.11470771065824116 -1.2250424675142966
P 2.16878058878105 4.483252094486959 10.604848431051042 -1.9752895986465722 -1.1203265779614449 -0.7949385605023794
P 7.458377321411046 1.9909586130460186 10.765420903392025 -0.6527100187160502 -0.08862721152110543 -0.7243761769027847
P 8.338442692905014 8.598709916202175 13.531861773781339 -3.7023276171067656 -0.5833370274388663 -0.9026456714730713
Ni 1.1396643741773271 3.836631006158636 4.1715638832239925 -0.6718721934667977 0.9026366726120068 0.6790602265748047
Ni 1.1705248726654802 2.0857141783948223 7.510278298831836 0.6160345176718874 0.438165086753497 1.6699559287352206
Ni 2.76321458832718 0.19222542400775772 4.004517200175478 -0.03868636082660434 0.7390232373919983 -1.1664663097423007
Ni 0.8568056471988721 8.810422912082323 -0.043280931502735716 2.740588224795332 1.8188063467134419 0.014716223164252074
Ni 8.679338733081714 3.1563447750757767 13.48268638354023 1.1531307689756591 -1.343071786346603 0.18880484688397162
Ni 8.141665839477046 5.399062563040399 3.7991494766590717 -0.37084512135060005 1.0846409516343771 3.1363619910668112
Ni 6.499320744119251 4.326756709045967 12.70399854956227 -0.12015716380858661 -0.4753846332265877 -0.9362579602108778
Ni 3.359173260259733 4.863864909174182 4.7543746087131336 -0.8940090788439957 -2.493576944773957 0.5014170527346073
Ni 3.3607826366676234 3.365940170419227 0.5197382287925231 -1.6241938920087577 0.43413462543786524 0.999507355088827
Ni 9.636023597772406 4.903289925388538 6.62562102821851 0.14897408804027892 0.5452281363822867 -0.32351676857828154
Ni 8.593721790493507 8.872633310071556 10.235423135288148 -0.6817938234558839 -1.4109483955839184 0.30328090114738093
Ni 6.233143062435217 7.60315531721564 10.082564375835512 0.9817983678448382 -0.9919868783420659 -2.376298902285378
Ni 5.085780033862247 1.9780836017828913 0.014261333747819044 -0.35317598620561114 0.012194742293978997 2.7667134611274737
Ni 7.056663793820364 3.6775192076100787 5.229810751966335 -0.30518994524463566 0.37324653170324107 0.664098720168966
Ni 1.4967765286861674 3.080261740681684 12.04097782152196 0.9437804938401682 1.092846113152989 1.3941467506455474
Ni 7.015365877575772 1.1528217321786807 8.506524647327026 0.9261077591507535 0.1514850273875907 2.2380303735880616
Ni 6.725424012091009 8.463955229604622 11.929127102329335 0.7106053483709375 2.1682773732636402 1.119375526902085
Ni 3.8934674045636246 6.943254520632731 4.972346290623968 0.7917604198847138 1.713942875839132 -0.34406245394011714
Ni 6.765818418773276 7.715726961746533 4.07726195496794 -0.9604435563181459 0.19242573146601052 0.8190760769805314
Ni 9.330430311431957 1.6562083202047146 11.76126726067473 -1.3862735185450576 -1.8140485203134822 -0.14763968549957154
Ni 6.40960036226882 1.0752234369561056 2.3370686563219674 0.07234107276657219 -0.19623096414471364 -0.2722142616495634
Ni 5.162747754702783 6.76596900370033 12.369726363864363 -0.6358132429607114 -0.89083428066044 -1.01615679072005
Ni 8.189871839250246 8.27023713250744 1.963372395565498 1.0938974372356387 1.643015652700951 0.0003026188420833498
Ni 5.500641507896342 3.883444095356585 7.663550225678075 0.30826704150806267 1.185705617587887 -0.10243789215195262
P 8.548141615385815 5.136056576382441 13.294647220504576 -0.012425370247546343 3.1223201682617647 0.417136805328288
P 5.510815402030436 5.301078833317872 5.120796676337095 0.6726196131557834 0.38891586280938184 0.6325008907580268
P 4.590873259540948 9.051490557180085 12.9050002513499 0.7712407026648073 -0.19238922180112028 -0.43234128098286834
P 4.511439710519902 4.954451154355175 13.446306947475543 0.5243556638086518 0.5952651463350199 0.08634844278925774
P 6.440385568293445 5.508010757764052 10.170103158555246 1.302824765901098 -0.30922786275943515 -0.34652557076862905
P 6.943913329688593 8.989430744117907 5.844551128925713 0.3960874408571565 0.8025176584012178 1.3364650796633628
P 4.600040116975368 7.265967430867646 8.869241384589662 -1.7987846521758764 -0.26258110943517354 -0.5015504929886782
P 8.975209880069233 0.8897159830065496 3.61757040699404 1.7394500189713014 -0.60705802520489 -1.2659515470238327
Ni 3.8160102827101627 1.5840122592402062 2.1674460298650327 -0.6801251775042093 1.1356058727180183 0.02823174115218364
Ni 0.4632246468249067 7.394162261580405 11.830815850390467 -0.3514831718842205 0.1476592258835973 -0.39353125009420614
Ni 5.6190389067926425 3.4717637279065086 2.9907634715986573 2.353166172922657 -0.5883267673439738 0.4752090268806719
Ni 7.255266489488864 5.659941537603717 7.325200011924384 0.27711272739244536 -1.4473385041771782 -0.07383025571758897
Ni 9.015557228961796 4.429530921760402 11.320282125264127 0.5026360127433731 -0.7035790376517753 -0.32421456597625453
Ni 1.1801152502072394 1.8213341042774955 5.389625593893076 -0.17933624527190406 -0.5163412781446075 -2.868849248657975
Ni 0.7065821239696842 3.6661876918492564 9.183719181626305 1.0710814677823874 1.0140276601921892 0.2631454665790758
Ni 8.780014168375333 5.369086750998688 1.8183656989029413 1.0130362428131972 0.24918000553791925 -3.063722413223214
Ni 0.9460027464277906 8.836332931093573 5.156777062345087 -0.5749230923435582 -0.6030638164438323 0.17770153788195847
Ni 7.745740420020008 3.55860417302703 8.718559518488753 0.07442238077563312 -0.5708530360392426 -0.4849463087730938
Ni 1.3521773524824507 6.111348091122257 8.251498720647144 0.7039004255469361 -0.312222683721701 -0.5637981860749904
Ni 3.653500911744947 3.691373020899057 9.146361884691562 -0.15081525501407575 -0.27473162875477847 1.3841667566147
Ni 3.850833047091428 3.643647010580843 11.847965591270343 0.25912940344114727 0.05298400839619907 -0.22776528730756906
Ni 1.9104803810935334 5.309596293254371 2.5314436801634224 0.7826098637336972 1.3139869531655046 -0.5516666929187789
Ni 4.809710804782346 1.6536295533289127 4.544461102711281 -0.7012334202377343 0.09656626386252402 -0.13770391444309832
Ni 4.331490722690231 9.024178216035645 10.301293688160587 -1.1393946503364893 -0.6789494120285532 0.8647928622913559
Ni 0.9750091680015901 2.178455670344277 2.543235421107554 1.1774469771235205 -0.7675709671227039 -0.5185997351614811
Ni 1.9464984133332903 5.70392174786146 12.709549486435801 0.0546030320568608 -0.8465416293906518 0.9037059944167855
Ni 2.933187324739515 1.0409088967036484 12.471232839724161 -1.368697200224191 0.19170942212527628 0.9445353697283216
Ni 6.159017632092827 7.891384279155161 0.2978268687276342 0.9016779082431633 0.7352578568122949 2.2546780094470718
Ni 1.9587052039826145 7.643408550528793 9.79314296950488 0.20119807834200187 1.2683606706859576 0.7430475280600429
Ni 7.223173076910455 1.384873104769076 4.57448961947746 -0.425588535640067 -0.06878677975641058 1.2776235840451222
Ni 2.3075445990614196 1.7663894290186244 10.136285548562068 0.6753233852401918 0.3323719049760663 -0.543455103642264
Ni 3.771173620679799 5.774169616332206 7.562071043336306 0.9658310458823043 0.07602854892048842 0.32149768126572376
P 0.5875052105900525 6.7797287014098995 4.2023227368863845 -0.24033978153846994 -1.4861629332435438 -0.21086671178001745
P 8.854064306254195 2.999115288115396 6.4355847325878015 -0.7735456966489 -1.2777680800427864 -0.09114740683979786
P 6.963818774733559 2.6893903278388986 0.8642125432983466 -0.5980079991874798 0.13952502681223714 0.9413384600575787
P 1.2961127018286145 9.510849877158671 11.013242282468163 0.2824927607574361 -1.4673316594696535 0.30277979314124626
P 1.8573333134013705 7.233554025319248 0.8540508841895759 1.149731256375807 -2.6883143550922797 -0.45955332262128595
P 4.660415261166128 9.251975564436762 3.013808612372702 0.12568169317124162 -0.796669427150557 0.2817124309479858
P 6.803502296768569 6.8066928149105275 2.2411686455275523 -1.069808771717551 -2.0075443449152197 -0.8857391255257197
P 2.251752883587869 6.451792376517795 6.216758481215934 -1.4518019392651704 -0.290606391003506 0.12070352323035988
