# total energy = -381167.0773095671 ev
CRYSTAL
PRIMVEC
9.29105789438468 0.00000000000000 0.00000000000000
0.00000000000000 9.29105789438468 0.00000000000000
0.00000000000000 0.00000000000000 13.59840238295858
PRIMCOORD
 96 1
Ni 6.311833756530387 0.5239013878266691 0.9585705260878102 -1.5000067811051716 1.4483602605734733 0.8064573597752562
Ni 0.9068574266972613 4.818370521072398 12.274843104640086 0.7921810523619002 -0.5018016897675358 -0.4035451826867824
Ni 0.6338805697731408 9.145485644603358 1.5406042052360602 -1.5456754867868798 1.8877257953929747 -0.8659182341450505
Ni 6.3518410520218085 6.134077236014391 0.6630870104088314 0.3752609910301085 -1.1769414982420117 0.1651123883630382
Ni 6.4250545885922685 2.072965101317476 12.301019731281407 0.7472317413447195 0.7083196376605544 0.7606793822091932
Ni 8.664626940897245 5.477886977914728 10.337600848610379 -0.7893865203358986 0.5639827912819706 0.4070187430576796
Ni 8.185979508980948 4.433785759744851 8.369272570923638 -2.846902826293871 0.454364836441811 -0.1636031508073634
Ni 7.643316687855202 3.5716127471062156 0.909970860213094 -0.402942516105777 1.4929305909846806 0.5473595809029927
Ni 1.5826666827439013 2.000346192455202 0.7098201027433186 0.5717639778892862 0.6933532461587091 -1.1902574986246275
Ni 0.06854292174381445 7.110595298725698 13.185799746100658 -1.4543766419708823 -0.7310731293069861 -0.5381750861902473
Ni 2.2143564210546924 1.2216440443532437 2.7975310421180253 -0.8316667691613483 -0.25610090102746863 1.2619300845692656
Ni 4.0504645822972005 4.593303933523815 6.653507766760133 -0.2516274386371473 -0.7834177043469733 0.4943804576028002
Ni 4.122172967481314 2.559677171526051 11.519559997182736 0.7841216723925335 -0.4798452401011027 -0.1450719247723953
Ni 3.281945433697936 7.154049576713014 5.311808388124039 0.5602438930648287 0.0010526096342304452 -1.3588904985464145
Ni 4.8175343258577605 6.162842351397912 3.009748096535016 -0.323197694675966 0.588321110917019 0.4881064516686303
Ni 4.0122504609882785 7.2121186888406 10.443002326309609 1.1057803047161536 1.0885060910167383 -0.9877540712076408
Ni 8.053015178795688 2.9724231294709917 5.085517239138909 -0.3256741812409165 0.8864598057418283 -1.4817707177131192
Ni 2.5687545351338352 2.2626141759972014 7.34723018251589 -0.1536882056864966 0.36743172479367686 -1.5160286104547245
Ni 8.90817344268931 2.420394921941308 12.954953191407343 -0.33252051473878863 -0.19847656564578076 -0.6572169054474681
Ni 2.2590185365742617 6.063186463929034 2.663396967738066 1.4790738876072462 0.20912736049140757 2.145890006707375
Ni 4.380836020542433 1.1659534430584038 2.602258090066967 1.854449292728032 -0.5848591205103476 0.9771649828378848
Ni 2.0714506588731885 7.242519030421633 0.6129561781855349 -0.17354020741541726 0.40686936196400897 0.5710432976731779
Ni 6.2110164868189575 3.3521858317274638 6.8771611843959795 0.6839376092717641 0.850910962102941 -2.1056800101473927
Ni 9.355630793099637 0.816468440418152 10.75335803843381 -0.11627248404219975 0.39391203047239254 0.17889787218290482
P 8.277403519114621 1.5201564449207976 1.5025145841035399 -0.09257771152842122 -0.25365783880361475 -0.8426520645282585
Ni 2.986582701772182 8.591004597777406 7.0293134074397825 -1.1215769054287779 2.1407334022071 0.9612945914645313
P 6.458948367958898 5.542887219265863 11.133678204166706 -0.19377298952252436 0.9319390211205498 0.3930746221727618
Ni 1.0942636399901713 4.452209927640691 8.245187704812029 -0.5325369140678635 -1.1410257581820091 0.8574181670938393
P 4.503264291023266 2.499972833200952 5.663694200136093 -1.6096239646143826 -0.4493486141741423 0.9439087918879164
P 2.0265562669051094 7.330068669394152 11.611457851271366 -1.2583058575531167 1.9701522774200073 1.058243949698087
P 2.875842582180391 3.7904821990085424 12.779248136484592 0.2577844593774786 -0.04874863015861282 1.5941060714844415
Ni 2.9219355206227835 1.547648685366482 9.50494366883685 0.019505159912463182 -1.5342610743023513 -0.21220085721040874
Ni 0.4576041147870526 6.617110047278562 5.10004009180557 1.391562791968455 -0.5466831236612585 -0.497231296788034
Ni 2.8217128786195405 3.6985471806881485 2.2772160026563557 -0.12860118081088173 -0.5103516362200758 -0.2405110170090116
Ni 7.885032851233007 0.18037474064360468 8.84161323270998 0.5864259507768352 0.649842724470584 -0.608931588078519
Ni 7.56153679586368 7.985246202178309 1.6615477646580141 -0.3855780566854005 -0.2318029477120524 -0.7700533672249253
Ni 2.262976527256878 3.5470657720276426 10.07452640123915 1.450427170404831 1.2880252389944205 0.9825918102804111
Ni 0.6313794169755814 1.5337864269193846 4.9624107214284265 -2.7016344692399534 -0.9976502472754301 0.20551187522600733
Ni 8.632154693395497 7.804126318687883 10.857997649381923 0.3187910809678381 0.3211081591367889 -0.1807261836408952
Ni 4.999759845243096 7.864657561169679 1.3979158538103618 -1.5689390853005107 0.17376157939760398 -1.5066692807270115
Ni 0.9671898405391322 4.877331574762263 1.169960676348104 -1.0647113025899857 -0.19561518493758567 -0.4244281967833787
Ni 7.514570497974888 8.1534608061895 6.5143286479185285 -0.7862934832328716 -0.5160072918439564 0.5229094182804284
Ni 9.156161070176895 4.871069401710425 3.7889092228992305 1.0598503749532586 -1.234080923567481 0.07962989311850158
Ni 7.861953863309019 5.184809846242317 5.922824593411615 0.08840583953891872 -0.3878771371322223 1.1755690433745172
Ni 5.2804427056229954 0.28174761561987116 7.427121202428126 1.0094415834834036 0.40005413881438845 -1.1594258579557517
Ni 6.0136744161645685 1.3500000098000602 4.747365468974374 -0.4033248391458602 -0.7797014318376508 -0.06119148390765591
Ni 0.4350296313092293 2.775657104408909 2.556064808198818 -0.8166713241937806 0.4064762402906484 0.9191493255550492
Ni 0.6858445277280809 8.015692999049046 6.8263576795777965 -0.0782173290416911 1.4125563635009866 2.792649721377262
Ni 3.415151331389648 0.3429329485806719 0.3975996752904784 -0.6938214440443793 -2.02707495874898 -0.17866338757459552
Ni 2.6685497884718195 0.7765103875338145 5.233807169396882 2.3238049461517205 -0.9916094403979889 0.02629930001616116
Ni 2.2089025700436697 2.9065681107893386 4.602801252950505 3.050900321757881 1.8714998204524154 -1.941412229172837
Ni 3.1288659630716786 0.14266512378084734 11.238155221600863 -0.2941578558001902 -1.2185943978961078 1.0436231144611188
Ni 6.163511307569621 5.762602157440767 7.737191679073554 0.4324317838141456 -0.11178230948133006 0.3083454601544819
Ni 5.3063368841029295 0.09442688006001315 12.248325496172349 -0.4325389988159712 -0.3505256930669576 0.5098348444846574
Ni 5.2558678573706015 4.125647823151029 1.9645886268657258 -0.020605334955177416 0.6186588426686119 -2.5016445522734396
Ni 4.8234713118816845 4.585192839941834 9.978045268268515 -0.013855417825853557 2.5076159393655266 1.4356597822876693
P 3.075628201073108 4.897325931450035 8.724531036968063 2.322284395742136 1.0561058203091618 -0.6836702145429903
Ni 0.9103555100118271 3.9213188769254494 6.007447549132904 -0.3006506626133854 2.8612087013935823 -1.523319744799499
P 0.156511587429446 8.738212119785322 4.972609515729618 -1.4575761227447865 0.3388333443306939 -0.8717227566419697
Ni 6.525843985129877 2.5103509449203942 2.683481447687858 0.7772537416281066 -1.7990479331395919 1.0646375119292568
P 9.094635684495474 6.423651638843267 8.171552354211075 0.20405714505735179 0.30049433954117927 0.3829820138234501
P 0.9980826081910079 1.0123536731874834 8.416146887338819 -0.5874960439125624 0.8101252955451467 -0.33930951263616405
P 4.006712990455792 8.970674389454473 9.02071788573313 0.18924476263486764 -0.5620380088507739 0.9030012550402771
Ni 9.426800296923206 3.2183481420958033 10.38024494634529 -1.6473788147656534 -0.26667019190288266 -0.006093771602563699
Ni 4.749691020776859 2.9326295283121993 8.640588186688012 -0.9179483632684126 -1.524963193940193 -0.7505381800101333
Ni 4.313958985487335 2.2825713684532105 0.6756866140818265 0.4760819164039285 2.4452075523316337 -1.3765547485953968
Ni 4.485490497183254 3.9462189122057585 4.0460002289568315 -1.019683830036702 -0.2922069027214064 1.483881850518851
Ni 3.06692247978294 5.513323072899466 11.486638991582467 0.9627130690786128 -2.2088257269996476 1.322645657281767
Ni 0.21735779677542166 7.21415343052955 2.429177759012381 0.3904220150412631 -2.2798527089404863 1.462959241433571
Ni 1.1474084914093379 9.195954671335686 12.903782689800515 0.5263526396340226 0.5137658041079475 -1.7527747611046653
Ni 5.3817709835211485 4.2508634110139845 12.86606006545664 0.1924725255435459 0.3523935995136318 -0.45432138479838535
Ni 6.058773211407337 7.98929710344033 9.24167782567205 0.12872690775546863 -0.16818742774393616 0.2612032552510405
Ni 4.1068705950534525 6.933312622164663 7.8882020310964815 1.7776273013719708 -1.2806605710992331 1.465416958945444
Ni 1.2007391639873128 8.427704963416694 9.356584984750118 0.3975105464569283 0.059484528518878206 -0.1016490777020701
Ni 5.889007000720096 8.45099764567331 3.2498281046095134 0.6139622085238909 1.3014697945351004 1.683650138392862
Ni 3.953261534124592 7.246848663421867 12.993178461985792 1.317968306410756 1.5685876154983631 -2.1617488281165027
Ni 1.5479367081626347 6.158317606180931 9.818032810207118 -0.02525234680888554 0.2828316321540935 -0.16508642022110923
Ni 6.775959264885816 7.559009628103888 12.198487332274176 -0.9512032686668005 -1.574845680592933 -0.0768682712129644
Ni 7.874691903745326 0.12174909414538788 13.01448750337213 1.781112945927726 0.00026713761845760444 -0.6324975483239171
Ni 8.100594686508547 0.5731412075934799 3.561449258825197 0.010418110009530444 -0.13074908039181998 -0.1688785402736898
Ni 5.856339641001602 1.2190332570719875 10.121576318649407 -0.33889505080656473 -0.5913604119639752 -0.4419088700666454
Ni 5.51697445867005 5.939782632364458 5.422036570423313 0.019062415948089752 1.2275647197155182 0.5124278020228142
Ni 3.7198794497193384 5.464916661029911 0.6751969753283668 -0.38012011889462277 -1.5527156814631131 0.3435736872291567
Ni 6.665953138871316 4.770744558069836 3.7854009194209306 0.961377380986325 -0.8109861008835453 -0.2190651884304098
Ni 6.963954531252148 3.5227696555134607 10.351580174387527 0.30228562711364715 -0.6057022825079439 0.4480167827365962
Ni 7.68570249417937 1.212306531123128 6.418486739734191 -0.2510774796709483 -0.9600838589858819 1.0091438497373266
Ni 1.7107160432786839 2.206375402283877 11.882773467035742 0.22148279673296695 -1.0368377161081692 0.5131533673349291
Ni 7.485554524026976 6.937382105542564 4.481502775115228 0.012437197322088258 1.1559564113499126 -1.7404586627414733
P 2.5140952412703808 5.147339009568628 5.167950292503641 -0.38101434857411803 0.0543412937550419 -1.5355540820821618
Ni 2.1115508649440144 6.126783755531166 7.182268377889638 -0.7982807375017349 0.6586186708910012 -1.2039221405959135
P 2.3973716803649627 8.373881864767876 2.4562927825056846 1.1839392697160835 -0.5910673062035885 0.09304102431808492
Ni 7.9654005024175865 4.915397039144139 12.567153724032412 -1.1000829972210602 -0.2355073931468331 0.6217359389320389
P 6.9213457395374105 2.3184720163349692 8.515061348384052 1.0734288849686415 -1.442429496911335 0.5109288488797845
P 7.973427976478103 5.602415027490094 2.2869521022721155 -0.7875273556399728 0.6788118580094246 -2.2620956420673815
P 5.257939763291314 8.274346761052223 5.292593551197469 0.36029357108699883 -0.00757909789883856 0.8651029373326069
Ni 9.166604219301918 2.760949359689234 7.357905608089426 -0.9568812928881844 -4.238888307622041 1.4463288319657415
