# total energy = -381172.1696405966 ev
CRYSTAL
PRIMVEC
9.23646419193270 0.00000000000000 0.00000000000000

0.00000000000000 9.23646419193270 0.00000000000000

0.00000000000000 0.00000000000000 13.51849898099837

PRIMCOORD
 96 1
Ni 0.7626724078014374 8.032094023886874 9.517888299291378 -0.5433782276577417 -0.6274401884056678 0.09925820887239035
Ni 8.386450977345643 4.313983023131832 11.647620233723375 0.3255736511073103 0.35055911740805434 -0.924297445414892
Ni 4.059102790349486 8.778261793603194 1.0008161672443527 -0.12333119066119407 0.2051814884697821 -1.1709186890866994
Ni 8.453923349169344 0.33504350657535237 1.8753541653084043 2.6183127290921613 3.2785635362699472 1.0733085573406933
Ni 1.2459251444274808 8.421872817995046 12.884995183134127 -1.50688191095845 -1.1340362142380533 -1.2075741355262042
Ni 1.4370922463624773 1.741729312411666 5.548289619097022 0.2010633525363505 0.9311041839240803 -0.579423294206757
Ni 4.878774343087438 3.353898739871784 5.750634690146467 0.3767771705643188 1.4826556914212337 -0.049366209137953684
Ni 4.853826652971652 7.643663753568743 7.531453643187167 -0.617031591477834 -0.16374816102565995 -0.9488782200780498
Ni 9.015712818222458 3.751112887753821 5.3664790555134845 0.12306688125621384 0.8950251788133359 0.44229479265115446
Ni 1.3864671854499915 0.9141079348374833 8.197077596780689 0.7518005916623246 -0.2130709185201879 0.8016218860598259
Ni 0.18208950480586128 8.139495630945873 7.091209578999163 -0.6374212108777796 -0.34500553457967675 0.592894074999682
Ni 3.8333543660177827 1.4931852941496557 2.343850726544229 -0.42461074510783 0.22055205738858147 0.6353679278931766
Ni 4.307674518004442 0.5362155466567465 11.071732225539296 0.6961385222133302 0.7083353213898381 -1.3262752836145546
Ni 0.384213824358169 3.3457152324883754 9.061653144434194 1.7250832087266676 0.6327400033520264 -0.03109852117701741
Ni 3.3961740370431843 7.974153683236623 12.214180336595371 1.4501579759038445 -0.2906009916868672 -0.3809806671227052
Ni 5.919169683569538 1.3319073907391628 9.218967681006966 -1.2840665114569885 1.812534654772117 0.07886370437643839
Ni 6.217830757206689 6.7066613946327776 3.3339322749612705 0.6749986549109214 -0.39623476506829824 -0.539424128106
Ni 6.321611670254069 0.4298345689045929 0.9385799470410284 -1.1322582964020242 1.035661436411881 1.1675587714755313
Ni 4.639226641068587 5.347072320340483 4.325081558653168 0.5357515643504192 -0.6920090734259888 -0.024134688264674565
Ni 3.5378059808549076 9.049453622366467 8.828364070635432 0.1200347792981094 0.326676911473818 0.989773929851147
Ni 2.539473498864955 6.768222429294649 0.4323847567020636 0.48466914385230725 -1.049953684664837 1.228412412427794
Ni 2.531271518552916 6.950254668021755 8.085860406313014 -1.3016492575357583 2.1263431949236993 1.215229852299249
Ni 1.032230306027322 4.77017199566744 1.5941961915488594 -0.9657667683032722 0.45777951855031485 -1.2579315049328335
Ni 5.545887214728597 4.14012505532382 10.53657517769309 0.03962661325268659 -0.545548495836183 0.6531867012421525
P 4.430898188435653 8.933831562066796 5.211043215782456 0.7323810494851322 -0.36690490575592943 1.0061608558496025
Ni 8.334209535177969 0.8527362476940767 6.366496268594559 -0.18310882494045883 -1.7991500059350953 -1.2524344863740042
P 0.13401832627657248 2.281120355500033 7.201885512657959 0.3437513504576015 3.414791380388151 0.7136865583994225
Ni 8.378267469962234 0.32961708379007865 8.727380882629173 -0.9605389442454296 0.8887365175911468 1.138574211317723
P 0.47673641105155706 3.5180491836843535 13.25368528191747 -1.1292331364224553 -0.694274729531714 -0.10829589359462641
P 7.456246656145782 7.942583448206724 2.1160638145381263 -1.7712977596095172 -2.81849162214103 0.8249942422371792
P 8.765173723668331 9.237018503218472 11.16006145743351 1.407828619008014 -0.7629836048623376 -0.002571360271602023
Ni 6.3124768070461785 1.2562792209249987 5.297967581454305 -2.5393081282624848 1.2057977603520718 0.189261474805416
Ni 7.006726410845864 2.827475692682181 6.829112896647226 0.8486337360329901 -0.2882913697170842 0.9184453575094892
Ni 6.038615640095768 6.316974965167758 11.372423474032963 1.4928673418469127 1.145120497076673 0.6210795362949627
Ni 8.82936715066008 2.1573886795314765 10.851001972270128 0.4023940998014748 -1.712085253805103 0.6662383922197881
Ni 4.167381861518445 1.5046292734363862 7.122572917228398 0.6544131174500859 -0.6188750724444761 0.02023998119595869
Ni 0.4802785951164975 1.198338880274748 13.508711450836001 -0.879549194664924 1.0821495526710914 -0.7594305974037566
Ni 1.8005194077789295 3.1172051053263794 11.229898364121944 0.18720176406290986 0.17405957025399701 0.28815510124953597
Ni 4.903777451989116 2.1561971756347953 0.5321598151758721 0.3382867277986045 0.2432106753283618 0.7618757165101395
Ni 2.433485070846204 4.440651894752673 5.289031302229195 -0.09826293483865657 -0.4099294889465715 0.261382204031066
Ni 6.383024921486895 1.7906733368187562 3.1059560154367034 0.001618766550345599 0.3998435654654791 -1.5483298936905916
Ni 5.091111421233239 3.6703307708516864 7.963842094474956 -0.15851288076864958 0.6552057885547102 1.2176281773280966
Ni 6.113227798835242 7.11272407532893 5.542192629002453 -0.3223348324550384 0.7980249127371869 0.893695918478951
Ni 2.8693722948166522 1.0320086308837535 12.923117765949343 0.01001238993067953 0.4831552783109421 0.9828023836293203
Ni 5.824865382909717 7.025707345013927 0.952014384387719 -0.15074583522872104 0.33572719460154443 -0.9112940911766886
Ni 8.417614807945666 6.811402899968955 4.816357088183533 0.051118158832053895 -0.9922254767154333 -0.1190590456484014
Ni 4.487822518011215 4.961754738496628 1.1605561993463385 -0.560912379886763 0.22348234366149897 -0.30591551055675054
Ni 7.7636546614895785 8.38532412869917 13.404429921422727 0.9036633141043083 -0.9692902080754984 -2.184869473294366
Ni 1.1320672488120433 7.0811353673704005 3.2877120838807805 1.1927771797226876 -1.8916744956280778 0.9444523230962121
Ni 1.9098699088084712 0.4913531158306136 10.754722915539682 -0.8805580955454125 0.3873428618953071 0.2100832966467737
Ni 1.8057380101171077 6.455614294541305 11.047276838971518 0.5757229625370343 0.06994171929646019 1.5837445257444596
Ni 8.424542156182186 7.0804056866894864 11.513719210543606 0.5805926319245098 -0.1617964366159278 -0.5922816382266638
Ni 0.1300780505996401 7.2169760480563925 1.386957641705137 -0.7334593701509755 0.05205584015497486 -0.9429747101094211
Ni 7.544085431784852 5.525640884949329 -0.11215192065639028 -1.5824630879288748 0.16088858008967774 0.8162085256247492
Ni 6.846824740618359 5.14327897168639 6.710367064116101 -2.5107945942038246 0.4055570709104886 -1.3136408826799955
Ni 3.9178495415746917 6.965143848498115 2.470681236290589 -0.4542920742223467 -0.6685392724388228 0.5297300407466876
P 0.6453545326534664 4.808004553503153 3.5970560521450756 0.3084321063310172 0.2954932867821621 2.6715415065093153
Ni 2.4935775076819335 9.083111298331637 6.369321703028627 1.1196447214030718 -1.2594934501033148 0.20401343630360994
P 3.2947114765389593 5.296631988714304 7.359376465699154 1.1531688213024465 -3.267434259126005 -1.8271904570120792
Ni 1.7427176140934095 9.071944412974366 1.6190967756966372 -0.13840274028233582 0.550749066200516 0.11276755621273483
P 3.681442237423064 7.05362917663926 10.205168990765126 1.3800229096496557 0.41002796219764875 -0.9996086565533815
P 5.626041252057287 8.926368498899986 12.55875310340488 -0.8335261909675903 -1.3525028498525158 1.0525206740610646
P 7.216578880090832 7.061230786770801 7.794253220473502 0.30460656193733987 0.21068647744841132 -1.0235397134476825
Ni 8.580111924645786 1.8514215626208759 4.0383004254184325 0.7089706409809919 -0.2504979530183944 -0.2972069270391591
Ni 7.366246547856918 3.2885230454476684 9.476656722587613 -0.6829207379714755 0.07909458944032184 -1.050128005459172
Ni 2.469488808747476 4.250824080143404 -0.15199895135928293 1.663371590649484 0.04219308842828217 -0.7386846231056569
Ni 6.433742347042534 3.6790222837724396 1.5271717882444529 0.4596654227191181 0.34538888606102447 0.040066014782950354
Ni 5.255899181083569 8.933009516742729 3.1105927205230137 0.5155861451461378 -0.42998126539112397 0.8254444424007202
Ni 8.627642770012628 2.9050619929312016 1.8258217781244255 0.339325453475764 -0.25209357964028845 -0.26968763857296785
Ni 4.034875544450298 5.539938931709506 11.955220357524931 -1.5753948682281838 -0.5804041700627875 0.5131754788221162
Ni 5.556148926582962 5.92127559743344 9.002225733029169 -2.6362808835348077 -0.2477954664855668 -0.6010966654151326
Ni 1.959395830467429 2.445132252347873 1.3008497794787663 -0.25012642861158857 0.11529649328217562 0.8061316010047214
Ni 6.37596826274996 8.230419385666274 9.392801634007759 0.008571800829411044 -0.2730465277428717 1.231871060400356
Ni 1.0545640767418614 6.320983590680625 6.156594846088717 0.8879217349993354 -0.7784991839994334 -0.8253549680107077
Ni 7.515461628871552 8.95424414820374 4.456224573588369 0.6236287850793776 -1.9587967431978717 -2.0411206382087688
Ni 3.382494833392137 6.751042605668081 5.549654768522832 -0.07217549372298537 1.0552252174764212 0.5909292379638275
Ni 0.5658313458375154 5.842710231966991 13.098992977563828 0.2582292602243811 -0.17381068746798456 -1.4348064331484387
Ni 7.6164069473741165 2.271920837041935 13.029494125469338 -0.4565896120072718 0.8135638889130505 0.8282682850027607
Ni 3.7777139049820563 1.8535644223420393 4.6216773588694045 -1.0514744921847374 -1.2952598090696466 -0.18760928391397366
Ni 7.662450721986184 5.786275435000145 9.587562644207862 1.5320288425377229 -0.15182646988740947 0.7095375692280554
Ni 2.8618353399353187 8.689979667676988 3.677559227824887 0.4049952848697477 0.855969864683087 0.6924006524374526
Ni 6.288120250646575 0.2483315795827569 7.361863845539281 0.24549201516337074 -0.9589649148900904 -1.0767774897259004
Ni 8.02953552327152 5.259492165702244 2.6349988601072667 -0.25084479483485184 0.5762071012623045 -0.33630646414378207
Ni 2.838697996825343 4.853401775613145 2.887781491843595 0.6854990402216129 -0.5448180454280617 0.5070652521593203
Ni 6.801418282044051 0.8979376567605833 11.28558131289352 -0.0006435471212698595 -0.10979690362018509 -0.28259611910451976
Ni 6.7248757022626675 3.9688532975241073 4.305115093742655 0.32672653376483085 0.03923323446900985 -0.04888104197141904
Ni -0.44865294130070643 5.085403286286347 7.533535542243848 2.1371050614258933 -0.01006381199390525 1.184855867993082
Ni 4.340602513288698 2.7213487176987 12.092986841020675 -1.2625792881174902 1.2719908112393772 -2.5123400843140735
P 4.827585857851715 3.4455244658801503 3.171317855164345 -0.35872699793082735 0.11088113782329936 -0.24026804776027008
Ni 3.208960141835161 4.31906307850528 9.468965518752213 -0.13311758062399656 0.4881031092345207 0.4376138422357173
P 2.984449403721717 2.101295631744298 9.619682448864525 0.09688096688946542 -0.6038976251990373 -0.6043653088640752
Ni 2.4133957609602974 3.0517924650450032 7.441204150361788 0.13683770978806112 0.8065756305206754 0.053179926457089056
P 1.5588380825032315 1.4556944854936114 3.2806157083472898 -0.09900984030701014 -0.7435532640518678 0.2084205642323701
P 0.6337775482805947 5.475182080394519 9.732657338491414 -1.6688866069304418 -0.9213956983870648 -1.2551434006647353
P 5.644615781795475 4.219226135720558 12.94453066117164 0.9219114616812186 0.513760919011941 -0.20849101245898932
Ni 0.7622115082321009 8.759798101436791 4.766866265088974 -1.1424738034824453 0.606847966076613 0.10658970953679707
