# total energy = -381170.7961625949 ev
CRYSTAL
PRIMVEC
9.23282862209597 0.00000000000000 0.00000000000000
0.00000000000000 9.23282862209597 0.00000000000000
0.00000000000000 0.00000000000000 13.51317795705150
PRIMCOORD
 96 1
Ni 3.2599085641930405 8.291800008817761 8.25895699185112 0.6622804360133046 0.7389355627741985 -0.6377490265308435
Ni 3.2847079411109528 3.103938395066352 12.04778197667259 -0.3607010909380627 -0.2050357069205372 0.517448138055541
Ni 5.357200918312624 8.789975727492285 10.407160084713466 0.4576013411012377 0.6247605846909756 -1.0724163845437273
Ni 1.9599817310655305 4.1927012112580595 0.7566487480181378 -1.3637408846601802 0.8419516960271242 -0.22146659878305083
Ni 9.166305810580182 0.44667315563524845 12.13084696338792 0.7294348223726147 0.3131814480905445 -0.5143936674999335
Ni 3.3923811851975825 3.071974343357561 9.640152103299236 0.1550524330238749 -0.5540483057770781 -0.054407628216603075
Ni 4.833930372213347 4.9841669549416645 3.008695307772195 -1.341772093698573 0.4689255078648053 0.18173714140391284
Ni 2.750358001005162 6.014485967749017 12.934718858510319 -0.26086618362659586 -1.485721731941067 -1.3315691850236422
Ni 8.83449642574179 6.016886503117094 8.980520068899132 -0.055335796457827276 0.4080541263007295 -0.7144825719381567
Ni 5.830124851480638 2.3864368392045603 11.150911494825188 -0.7359805939109325 0.5164898879073299 -1.1024412130405918
Ni 5.3013330740347815 7.397757542290521 12.406461661825277 -0.14276513101608962 0.9628148847637998 0.39714544980802574
Ni 4.973059862450135 5.100639084435135 11.937203161507753 0.38840678438344717 -0.5613785208899041 0.38802137601957043
Ni 8.3442609394386 0.9536311406256028 7.234968929435658 0.256049736074559 -0.5815537102861984 0.6759224522767714
Ni 5.904089039302452 1.8670071496942078 6.101861762015715 0.45662663589279423 1.272752629106066 0.5046332456790599
Ni 0.5840659508615164 4.836146251014649 6.835357346408742 -0.6938229867062761 -0.2553393402710957 0.0791884347057088
Ni 6.432576133413129 4.283773829991597 1.368317162481214 0.0031778835073493655 0.4110731156327114 -1.3722499505724561
Ni 2.470409412945591 9.257203005575283 3.5212096088568154 -1.8007818851115633 0.40194724207204324 -0.1746979751689443
Ni 4.112707986531035 3.9130942378470226 0.6565094918559364 1.4546540640019852 -2.0825220839736907 0.12102542534615286
Ni 7.302050043730925 2.999533572211643 8.250038079675877 -0.17657179515288945 0.8035476423276291 -0.9859946653143729
Ni 6.746833911579535 0.4755820644467429 12.164251336317557 -0.22898527575759917 -1.0227925508690126 -0.6668783397966321
Ni 9.227602557921216 9.119578466357712 5.02572668514293 0.5156784477496281 0.3019776089549251 -0.38433415697597034
Ni 7.1503823726101 3.958519753273727 12.316383418703824 0.13518963266167686 -0.3603213390011408 1.4606689027374973
Ni 6.763970040976276 5.285083296158562 7.498610496083308 -0.3723471598174232 1.535329881886498 2.6245044597251703
Ni 5.081157816640349 4.0941592343984645 6.711211813282928 -1.3192947385316633 -0.9712085081441338 0.019866142796307724
P 0.4744519662580786 0.45745432928641966 2.846050727039416 -0.9584807761648203 0.47295108408443065 -0.5729649401759228
Ni 5.432374606646816 2.199278175949537 1.9379789778514294 -0.7040333515803746 -1.4604061359944138 -0.9914790854677117
P 3.9760159629756786 3.9738554811444087 4.827906875005139 -0.4203727957670825 0.009353159080125828 -0.013398018573460799
Ni 7.900309621597619 8.679920413694255 1.975464260906799 1.2072172664074177 -0.6662964991512331 0.23769977281246157
P 0.19609973421827942 3.014675410687211 8.436574450300867 1.4344181965710845 0.014336728337646279 0.06909582635639712
P 0.363681108263794 5.385084059895682 12.284640954875165 0.12105756413566894 0.35920445178787813 1.0314021469148946
P 0.34332272177682616 8.174718512653934 7.577163399589487 0.8491556699747311 -0.22637020673225533 -0.674303942836742
Ni 0.9602510785444943 2.2652282687733067 6.405895106079777 -0.09208071728734464 0.03247791802304729 -0.4232364904681227
Ni 2.4962797979507996 3.673271521747707 7.6297563596555715 0.026582635584534862 0.4666130576815447 -0.2176775640542638
Ni 0.9198916160272687 4.4022310175779005 10.421186597525711 1.1890429094912363 0.11498281869649875 -1.6972096222448512
Ni 3.1687066858627597 8.055688889710627 1.6358512895564867 0.45410438369157274 -0.7784837573804658 0.021095644328034638
Ni 3.339984884375114 1.200046096158794 0.74205718611156 0.04313334085436442 0.8675159176494737 1.2671527664207853
Ni 3.170137774255268 1.6093835405577608 5.032550668568108 1.0254891238645694 2.9338133122341863 -1.4356176161958243
Ni 5.408055336802519 6.513760392995854 4.89329745843158 0.5005909572888863 -0.5327680562420631 2.048054903434757
Ni 1.7630639682564369 5.03510446888661 4.398741931748683 0.9456717973256099 -0.3730117899846156 0.26408520478452585
Ni 1.0108469778409044 2.268755209198713 1.291290445499433 -0.10629608955577823 -2.4297451950299767 1.1448525881272669
Ni 0.8269308838984539 6.6538223988948575 0.789783522360283 1.1363795176592495 -0.6369458139032579 -1.5222247119631076
Ni 1.2340967670721443 6.986093425150187 5.824111510383602 -1.6234924950663585 -0.2654923695446976 0.7563817832751039
Ni 1.1504658079796475 9.127020125998754 0.611438517037441 -1.2995568937831037 -0.1280105984147344 1.646978751113757
Ni 1.9355424344528303 6.389237237190985 8.458168189219561 -1.3764740159561326 -0.3139255253454206 -0.9236479847563512
Ni 1.8115824811766257 1.112057242090402 8.268632072667307 -0.5650847660968977 0.3624257869386533 -0.02070843619194498
Ni 1.35894307186887 6.81967169434402 10.633600739418581 -0.425012608531939 0.24499579225324258 1.4935581972663503
Ni 4.247664238358704 0.5921215935870853 12.223885251274782 0.44824406825605384 0.2568678611004802 -0.6728417564689186
Ni 0.9477682946304895 6.995815593390902 3.089910035688438 -0.128295733755321 0.6454093712895788 0.6744191282583676
Ni 4.988589479715931 9.227787214487991 5.33309677336862 -3.7893841417066416 -1.1719805546923108 -1.6244404608019252
Ni 3.2804608400751225 5.856106030425911 6.565782764270602 0.5646934441957501 -0.3586894598246726 -0.7528573150616131
Ni 7.659203542359215 8.150990143823318 8.572746665620752 -0.46347296939066635 -1.2916741486009173 -0.06352321736462609
Ni 2.5511874280814104 9.371967061826082 10.434984136195157 1.6137469856438207 -1.6799171537129907 0.5199161399800595
Ni 0.5562271268544844 3.062141381176781 12.315909774610045 0.6781801379626965 0.8173488098767795 2.482238379832687
Ni 8.277387563780955 7.67935880662273 13.102093417201047 -0.9005620494711652 0.13748845599818257 -0.6879313038121894
Ni 5.722414676080652 -0.08006062437389787 0.8648325675119015 -0.9722652315434221 -0.4754432543786651 0.33869167654650706
Ni 1.1657276732236195 2.61259496936251 4.111803169353837 -1.9145534571087799 -1.259999957426088 -0.3005588742305275
P 1.9201236111270996 1.3144500721043808 12.594376493721246 0.7050427666814955 -0.2687440437127759 -0.018371303418336104
Ni 8.62683165074638 3.723258054373759 0.7262561236926045 -1.4105725003017386 0.5471497788850319 -2.2046772520489126
P 6.812710141776594 5.962181995209935 13.035513645484572 -0.1158978743116004 -0.15646911086574344 1.3521452094027808
Ni 7.895203867526284 6.757968702556081 6.2654250091682 1.192080410765979 -0.19740981494416324 0.7805550380871976
P 2.577824137838736 5.923210226792026 1.9691000723328909 0.058479484293131545 -0.3223330326828255 0.8487265528571124
P 7.8546902167758015 8.401310585743804 10.89093166789669 -0.17871763785129866 -1.1618550362225346 -1.3762274471629652
P 8.83293607775254 5.334340435345852 4.794853349552374 1.4472958238647011 1.0101735765534214 -0.4017320407374436
Ni 5.869050455756854 3.071512701940623 3.908132515897773 -0.3657535657603056 0.18284657241800767 2.3285771707293828
Ni 7.106554136486 0.9577859133780451 9.588518434097551 -0.1516884016476484 -0.23092131643804747 0.04068770752734928
Ni 7.992979519633762 1.9472404279580404 5.06804997024781 0.9839107862021507 -0.09332564543803927 -0.18501966880992654
Ni 4.495833431276259 6.042396807817091 0.9106920258705271 1.6854653372247295 2.0418642012430124 0.23580486978259388
Ni 7.826170010037369 2.5847487590928067 2.7213512242132767 1.137056746231932 -0.2961694869135803 -0.6486322491022507
Ni 1.4175807646483407 1.9707102775951708 10.507360277542702 0.2036290563809977 1.185997694907009 -1.0316613141135522
Ni 0.2799596674535774 4.275344257718309 2.5381257458305657 1.1079965956411821 1.794151524279239 2.4760116821966838
Ni 0.40349952704036834 9.190375794059332 9.61794992099302 -1.5463938530101433 -1.2926527104641028 0.2850412382109026
Ni 6.7620680783384906 0.7037086336065163 3.586722065617328 -1.568307622364099 -0.9796833783843643 0.10698900185774478
Ni 3.7053925315382568 7.278894110257313 10.384525806040992 -0.708005191743929 0.3056578860199897 2.7936889612750533
Ni 2.771999750631218 8.165762669165336 12.839599491115903 0.14411547439639696 1.0753664683109867 -1.2938043075700427
Ni 6.357734826899132 6.582997372708222 10.126261438617837 0.525461752388637 -0.030128701064580373 0.07447046040474917
Ni 5.77846717692527 0.08553199844744762 7.724550731492464 -1.4551867965770036 0.043557315765660465 0.5747503142111198
Ni 7.788250784050078 4.394198456923179 10.247948269557037 -0.9710066765459728 1.5998540297118125 -1.196541017640494
Ni 6.960121479033252 8.766275057146686 5.802720893688361 2.158006587465251 0.05486682724120874 0.26180900715583943
Ni 3.6658944919050374 1.5186710021294343 7.141511471142218 1.9487257321151148 0.2539571152115885 1.5422325225436022
Ni 7.232776132705202 4.957216329020821 3.39890233185325 0.3658687511819312 0.6915287913554606 0.5603811899736413
Ni 7.978086967523341 6.335262122722588 1.5692715178400138 -1.5895552188889657 -0.45195494144873777 0.1941388575023753
Ni 7.75380310151816 1.1697531863793191 0.5117101217363145 0.8612187717868522 1.9568699584888039 0.8380603313925179
Ni 4.171170255572069 5.985291764541854 8.808227182552349 1.0592019427359822 -0.7055140498909592 -2.6975965517251543
Ni 7.862279601670263 7.388063072534822 4.070736472185861 -0.20656757018403135 -0.7102255964340155 -1.360965635907888
Ni 5.626744108834411 7.466468250787581 2.867185594389674 0.2547901526358451 0.4272235001403287 -1.0115977105944578
Ni 2.2535302752680964 9.038440370916682 5.7993287525567 -0.19321428880557692 -0.2678382440690548 2.4225851869464283
Ni 2.982942179686889 3.1108353178354062 2.958304377264906 1.1633087379499256 0.5174900470370701 -0.8679463203186729
Ni 8.4365153601995 2.349597854132904 10.725652037956028 -1.1632074364853708 -0.7730173349492557 -0.5726132132634589
P 5.427970547529227 2.21780846242543 8.914373316831748 -1.691910321519125 -0.4235334528832513 -0.8774707148693405
Ni 3.1261156487360555 7.2045329108169325 4.55325146743218 0.9499668251565382 -0.17093388014082175 -1.2667123364492572
P 3.10253500515886 5.07951437319605 10.909148038209064 -0.4990986890140759 -0.01005841267726655 -1.3648821973534753
Ni 5.370182274956922 4.356842433464553 9.637828200406371 1.5963244192919992 -1.0546739729586416 -0.08612372837296134
P 4.438682223859329 9.324048682747915 2.9742771702909625 2.4956803642702052 0.7123647542642054 -0.6387787533469386
P 5.659696073175449 2.0640818705850603 13.228332955794091 -0.6774355464871882 0.6457140470141911 1.8180805242910107
P 5.46579744523313 7.181644729365144 7.10405296328903 -0.09675498283456241 -0.26668973228690845 -0.08428641805390645
Ni 7.451640328475531 4.035484610305638 5.697845196588375 -0.31382936608718853 -0.39094600586553313 0.5128242661302845
