# total energy = -340888.591579193 ev
CRYSTAL
PRIMVEC
9.09865943305688 0.00000000000000 0.00000000000000

0.00000000000000 9.09865943305688 0.00000000000000

0.00000000000000 0.00000000000000 13.31680778687213

PRIMCOORD
 96 1
Ni 6.771613390572912 1.854324934497927 11.293611509228397 -0.4799408851387025 1.348614056321071 0.43428143542837466
Ni 4.955111582210685 0.35709689585591425 6.061757839549441 -0.43317097597301524 0.23420564361627408 -0.9495266522953261
Ni 2.762980729011742 1.9201992268295283 4.549634385993607 0.9788989348098561 -1.7416506261670457 -0.4374930003871369
Ni 3.3722633411240817 4.455758970091495 4.513412623870388 0.431070898910877 -0.7183772790068724 0.4565806131462072
Ni 3.9037433187436705 2.9104063034107654 2.3535456160592707 -1.0593271554599368 -1.6157542458818366 0.37693709318095087
Ni 4.987566499440909 4.804428687831728 1.9670518623174214 0.6252251830322201 0.6468769569740408 0.42846508585691373
Ni 5.477028869051198 4.528693821932671 11.253155231131267 -0.5714374477878029 1.2603539983313972 1.2658317336165168
Ni 5.682895131246612 8.06486040919784 12.636611815882006 -0.2515454204463023 0.11571044089114266 -1.2388865724862406
Ni 1.9836805718015698 6.366477394074403 0.28945564391508694 0.17698034344521776 0.9252173861260001 -1.5032070332100242
Ni 2.6842773272619693 1.4801789711045878 0.316412241413821 0.09301171374204625 0.194670047415497 -0.6357705626482341
Ni 7.888209941571038 9.026452202715141 6.68544999817636 0.23036415838299681 -0.46995857711501 1.1245678697363022
Ni 8.888625713731841 2.583991905980352 1.3252742988745452 -0.2862074906048619 0.8891075277773204 0.776262838469747
Ni 7.0423166979554805 0.8383304381202495 4.585483103091191 -1.2738975413437867 0.521964794978972 0.9425885304145961
Ni 0.668043572711228 7.485330412544661 2.2894391932028118 0.44078555509547956 -0.04507632351334817 -0.21263563075498218
Ni 7.891294387026896 4.1475600883030515 4.043848111981092 -1.8190400599908028 1.0353966127862684 -0.7683147872672639
Ni 7.648069030313033 3.9173367155314343 12.872106041906067 -0.18726089943561947 0.40996008507419074 -1.1649154203154133
Ni 8.072885426578567 7.278736257616299 8.93170240566758 0.42490642197137785 0.9473921224508265 0.8162890011536974
Ni 7.093241893284206 0.7821098231593429 0.16180054600878885 -1.0458782290438828 0.4129345943214824 1.6212566637573045
Ni 2.124982748584687 6.646515925757003 9.01655741087666 -1.1078718971378596 0.7909253255779283 0.6335984946975798
Ni 0.13272214119351752 5.078935234743939 0.9681109828067495 -0.01575623439299222 -0.7729967661239655 2.389640356589291
Ni 6.65558728894134 2.0357249022071993 6.795127055444812 -0.20567102651169095 0.5267177362829252 0.8775038821001211
Ni 3.472566959724023 4.150653632418072 0.06062436599522913 0.5509346998487609 0.1926062229079328 -0.4231015075521552
Ni 5.81057661526448 5.720390705652487 4.900492331262259 1.271828317519584 -0.3463003421317004 -0.6406751990387032
Ni 5.833204980599934 2.691137716269984 9.168395834969166 -0.4414944082370461 1.3002598333873994 -0.01915343299999927
P 0.21575923430206617 5.734766587128168 12.308019199448252 1.56741030736081 0.49379861695740124 -0.6105297858035743
P 4.102330653609627 6.050763019818294 12.386388680406785 1.7328505113769124 1.5656151631336006 1.7175267365356484
P 2.2207643335812013 8.559636395758632 1.034749562507944 0.01928301659932808 -0.33216724516442797 0.6379693700717658
P 6.2871279875241415 7.636104293515236 5.923609258031812 0.040296385626201574 1.0368158617312984 -1.0105872670520724
P 4.693707104491499 0.9837106339396957 12.587192448644561 0.4635159068134598 1.0590121953226794 -0.05893996886931784
P 4.007777387599959 6.045503994822759 8.603070664999429 1.6667263660543294 0.9416953291763652 -2.04409051947037
P 4.914349589165716 1.3392498393471057 3.7600936878968034 -0.544490486885314 -0.7824980207461814 -0.40258179033224856
P 0.3675576242942626 5.911808297098927 3.696838899537891 -0.2747043750612688 -0.8541523518583741 -0.6567646484013979
Ni 0.4672106887641331 0.24225907911087677 5.018132535029139 0.5018351141086325 0.19198427305321775 -0.7732603041979973
Ni 2.4055126078620246 6.6020598770923336 4.547130434992273 -1.171307696995002 0.7040837452023357 -0.4598587696768468
Ni 6.050544651998409 5.5390180339207 8.992533311225781 0.6478791729863099 -0.32140846398602707 0.2611145521919761
Ni 8.752136727645329 2.29675633490075 9.93190162974033 0.9744925782120444 1.3995414392985577 1.0067064439404274
Ni 2.6789364143339793 5.316719593279031 6.892873040954364 -1.5442721786814502 0.37120918955823806 0.5882560620070385
Ni 0.6243026786566783 0.12909359591978237 8.878808260496234 -0.27133365881682303 -0.617881083962323 0.7722262065065281
Ni 1.5158093203822882 1.2127966743160845 11.264114566091681 0.2564711398826938 0.2916165774355752 0.15680978203461382
Ni 3.994320470699622 7.185265732046888 1.287430245822773 1.3500705862619395 -0.8077956189707056 -0.650122460494532
Ni 5.792442987554966 7.945012870718301 8.013508486754423 -0.7010315886395734 0.1998942719289138 0.7646869607066894
Ni 5.30029651349194 3.0891949559405947 5.018305409553213 0.36926774956115116 -0.3161824397003974 -0.7103073575145445
Ni 0.9762679307453243 7.653710198993364 6.996090960083837 -0.5514242378906697 0.5025578512072699 -0.4274662122787542
Ni 4.761755976362776 4.607852156640534 6.788335816246428 2.9635782022014445 1.2097778280457423 0.5255214019819788
Ni 0.8363842349255355 7.4710728136380835 10.955857452884603 0.3388474853980809 0.02242207644894203 0.2914954784766786
Ni 4.9499344451476075 0.6347925228043445 10.31658384044306 -0.6159681832103262 -1.2270620690474867 0.10080087076916189
Ni 8.173971529866424 7.436406922231537 4.790402194867861 -0.2315970023488334 -0.4277881143945471 -0.6391464210990024
Ni 7.4219218568459135 6.1649693896175 6.993201225934042 0.26257725278043165 -0.6518803237259031 -0.5381200645825959
Ni 2.5452771112467936 5.150141341344368 2.2886794551627996 -0.8822969326133903 0.07249765294909451 0.2983909200449313
Ni 2.5972577510382906 5.393020949010082 11.183601441034623 -0.8839730347642325 -0.6117826843740689 -1.0446762383159816
Ni 1.024645501508739 3.5894210393393204 3.8035598024446657 1.3256497342154137 0.33680191572296186 -0.8357198561847994
Ni 1.139361396221008 0.7526601930502692 2.7807758866004355 0.9071286469450893 0.8965791535640172 -0.6869925940480038
Ni 1.2757593957159024 3.549032091319986 7.860724711975002 -0.13701228769271243 0.15130787837977813 1.7039644244701817
Ni 3.645532470390285 2.7839076450839353 7.002456382033449 0.08445431109033842 -2.1910941140478393 0.5999203857188442
Ni 4.161399148888185 6.969163478294422 6.094117220858466 0.4482168145625442 0.8137351243835921 0.5183523950373654
Ni 0.2851474288019636 0.5258770233077378 0.44472699210935135 1.2427403990146921 -1.3875729540827715 -0.6737557836427558
P 0.3108848059730134 5.839956185698007 7.995584128205631 0.3486485306489027 -1.1753985792349242 0.3920551797693119
P 8.703968426042637 1.8654343973345133 7.8750541902889575 0.3123728361463201 -1.4626599650255971 -1.6800002003451
P 2.1891373943347032 3.254317422409365 10.166290368676231 -1.2379807728425194 0.2772333121307096 0.7777509929794993
P 4.313683407279623 6.2245019165133115 3.4533942651382286 -1.1409100585397511 0.7360065620528615 -0.4902070429514009
P 7.263177550449582 4.098836768491487 10.393634925689044 1.225977063513424 -0.16697181016928017 -1.085240275781273
P 6.710943531281874 8.135165748541247 10.42716712416403 -0.6238702116662223 0.708796834407289 -0.5983008478375502
P 2.5337582087479253 8.49735607379595 5.695464928878672 -0.11206075995369733 0.7768251387311202 -1.1687723321676582
P 7.075226548143796 4.254068992451356 1.7162036489577834 0.5000373987782614 0.3333800345256065 -0.3974593815040187
Ni 5.638466378559429 2.793170080110672 0.050532133252934645 -1.1001858413475116 0.19234037084105585 0.6412842933776117
Ni 1.583248582089723 1.1607796398879402 6.868196567441583 -0.19828861800469075 0.7521970557697949 -0.413183734217811
Ni 7.132848356615623 0.7895416079627201 9.018767475187065 -0.11210472581775532 -1.7575922370979666 0.01870143306424521
Ni 2.697233817908406 1.4392804981721918 9.019246974524894 0.5833529682784663 1.5004479824076484 0.6423507869689131
Ni 6.468719027075811 2.250971881998455 2.3496441110106807 0.3525069851630445 -0.0928034543859821 0.7199428237217794
Ni 4.714579428608722 7.17080796263875 10.362473837791633 -0.682919709530211 -0.1108489990337833 0.687772666747138
Ni 8.268233638782915 7.234034545154262 0.22538288609752677 -0.031107262927765778 1.3439644733642016 0.14130988662680183
Ni 7.977185729514509 3.8918786671966528 8.15262971493645 -0.6168418440645312 0.9820709047799344 0.16298917137244834
Ni 3.193274518092693 8.517000078926328 12.122116305319794 -0.19104556328903227 -0.7653135385470948 0.8433763442887926
Ni 0.3128446571564701 5.001441954662689 10.11327612120395 0.06510547425008142 -0.670734994538561 -0.2916985956264202
Ni 8.81132350549299 2.69909904303658 5.689552620155319 0.27732895716830946 -0.24540254077335802 1.0934132985103684
Ni 4.0613775887222605 2.7899400561082244 11.332083369762334 -1.1698146573892432 -1.2656638405800846 0.09000532281555468
Ni 1.0874808416802912 3.678051078234642 12.284541929212999 1.174916754502499 0.2758387457760282 -0.0020206299744545846
Ni 3.1725113778854115 8.616075378539422 7.7808903468914155 0.8265376754648992 -1.0592682771975437 0.35567201315458746
Ni 5.749906755973442 8.012361145834118 3.5809956809554717 -0.23926377486547185 0.1990992868314442 0.2961203788431997
Ni 3.3000563820158515 8.454692460986161 3.1361877107795806 -1.008044960246193 0.46110626893070267 1.7715399575273103
Ni 3.9164541455927377 4.082240814180322 9.160112415668243 -0.5757273334124084 -0.9808938537526979 0.043137197509106356
Ni 7.601775052497676 6.342074790202393 11.293597861239654 -1.4830974069443428 -0.6898308348277474 -0.6117176354640884
Ni 7.919518427746872 0.02569006414340829 2.605593032696437 0.16539212438698614 -0.7273761400713731 -0.985387113637361
Ni 4.61980779477917 0.47411020200654375 1.5761643660663276 0.9840982196226085 0.8135955134819343 -0.5053739804998264
Ni 6.125735971311718 5.946556076437931 0.2970248184718078 -0.09262039184089856 -0.6122333987582425 -0.8090732001315485
Ni 8.238098879638956 9.064339019464974 11.637211454083662 0.6005760170249722 -0.6329359214129164 -0.8888380761660175
Ni 0.5999473878123095 5.5624288839440705 5.825250932760669 -0.9381420646074682 -1.473512848579701 -0.4938526101237881
Ni 7.431439054329181 6.360117431320288 2.4043497992211442 0.26031982420482264 -0.5143399314438626 0.9856120851639736
P 8.517591491771846 1.9764562364270821 3.5636572760567016 0.5332861335290622 -0.004259546607302342 -0.2707173653890628
P 1.8688827891568442 3.301484871504258 1.2008055514067177 -0.27902125726906785 0.5717531792560089 1.1931942126554482
P 4.774830749578316 1.0528331475920678 8.14438632973584 0.6492472569784302 0.5412190152228937 -0.7437224426398804
P 8.785947345090666 2.1227262811125547 12.178952899505955 -0.9403434431341612 -2.271172921778301 1.2082621627321644
P 6.357951950439775 8.104776226940757 1.39610736044934 0.39997032085133055 -0.7706925434708211 0.03792094341548953
P 1.9299620881101645 3.3207194369723525 5.889264549293677 -0.5343911936677829 0.8460873154620526 -1.1982610856553944
P 6.924816613539694 4.228820213277296 6.233437709676138 -0.4295187239324087 -1.1439907543476038 -1.1948309769279228
P 2.627010366497453 8.654781074613819 10.056200232281832 -0.9217605379256512 -0.49254546127659043 -0.144699371924325
