# total energy = -340879.0317128208 ev
CRYSTAL
PRIMVEC
9.16409677675294 0.00000000000000 0.00000000000000
0.00000000000000 9.16409677675294 0.00000000000000
0.00000000000000 0.00000000000000 13.41258195387583
PRIMCOORD
 96 1
Ni 1.7862290696934335 7.8223079776265685 1.5071181769208908 0.17421383644367416 0.5074414045518164 0.3785633159304642
Ni 7.729842242062497 9.15223834511918 1.0570840512147763 -0.43615782651548113 -1.9994137453882856 -0.5721445011571565
Ni 6.991802551340183 3.6094535977091824 12.754493544881328 -0.17390478984368762 -2.058624708530803 -0.4528581699892975
Ni 7.6552281668432025 7.803943127867361 7.951206495976422 0.9464017335130992 -0.8205740016822964 3.1189224554341255
Ni 7.080006981945158 4.438731035039613 1.4041091481193095 -1.5078707572342807 0.894587577055285 1.183855965973658
Ni 7.379663779488231 3.4587775199941695 10.130375536201411 0.09203289476854473 -0.25217662627239795 0.16220421357730774
Ni 7.972993219438268 6.474608426659355 3.4751867515205346 1.4418756812903941 -0.12492141796644936 0.512569212696685
Ni 1.821254247228209 4.660273072429251 6.852474374551731 0.2779776464959019 -0.6901686777831404 0.012819263251855343
Ni 8.353028309016274 1.0207154171057993 7.2979200370470485 1.6089855596994354 -0.31699516540967987 0.2896496835171915
Ni 2.8076867786308175 4.25612724446977 4.088047630737936 -0.2430281270039105 0.5935407074447455 -0.1286554310875849
Ni 6.992343233044671 5.382376399014208 5.620032584016915 0.21865304059365567 0.4959670853636297 -0.5787519791713452
Ni 2.643594463367162 8.776510380983702 12.298009727927443 0.4807165869624624 -0.636028187184995 0.10204965557459843
Ni 0.12787030670165792 6.300078205270083 6.979773758029836 -0.28118046970391575 0.823084426808976 0.07178571448373443
Ni 5.408209987572693 4.872055346848053 3.8044252531667615 0.41325778198885604 0.12730688747949043 0.2103157243725539
Ni 7.602140554739865 8.346393503015443 5.850246606100734 -0.8238688703834843 -0.5831660490786408 -2.8521103386367397
Ni 9.136952631846546 0.688280478535415 4.725627744356777 -0.8191652942602279 0.9520797577344828 0.8622256157848119
Ni 4.003922139568003 2.060913703766526 6.935940967169924 -1.8571769760718404 -0.5967005932299659 0.34275941885797745
Ni 6.190383967935896 0.5469975999237892 7.346420102349259 -2.489632358303912 0.4286733452129778 0.23717526776755923
Ni 4.8298638457046446 0.7637147404081268 4.16529088529651 -0.21410630176323772 0.7162774590550502 0.5788070007789966
Ni 1.8145003079704567 0.3419912585947863 3.3434345334625895 2.0784188604385943 -0.18179961921073207 0.6168878668111182
Ni 3.463991891008635 6.368149115455408 3.040792989628811 1.2606759004471901 0.12955634563529947 1.0288109891489507
Ni 6.037820086303519 2.6647268703256115 2.8964071478792275 -1.654568133425241 0.38203507652914853 -0.23745834622561682
Ni 5.466695252624221 5.374962644795048 9.832267470998312 -0.32603490701444493 -0.3332458229405874 0.16508282067668342
Ni 6.868902850681137 5.2034932316989755 7.901297909013538 0.6276965273908479 0.5164410369472654 1.5027753449892443
P -0.02240804921717244 8.528502432364228 2.8311541974249184 -0.6441857832951228 -0.7806313998510879 -0.5696443604431222
P 4.503896926575402 0.18757531302212258 11.079369067002093 -0.6553348579334067 -1.3011977718206365 -0.7174550243029192
P 2.3580045542374544 2.3989222459414767 8.5421514379687 -0.8469414359322318 0.848723467533319 0.09240184807218925
P 4.751519983134054 4.629683317690612 1.8050383781419228 0.48509646119771294 -0.5041640193521253 -0.22730480273138273
P 4.227901826676178 8.663205489555141 7.4040668525539965 -0.6809057644239757 -0.44297047856194033 -0.4790191446553814
P 7.02222735233847 1.3590172103747091 5.33288294563121 -0.501274356509156 0.07619772750850103 -0.6227222141047082
P 3.0551907019325486 2.266171141344732 4.729772665287959 0.07969802735227564 -1.347852238454382 1.3799897424188752
P 7.427023831162673 6.957730439860776 9.960921307966643 -0.5025835622388829 -0.34237838136947485 0.2986788835989953
Ni 5.544681715424048 7.132783014761164 11.411196425962178 1.2233308841398285 1.9177930470920004 1.2562602878779978
Ni 3.9378031819768444 0.8965171639463143 8.94718435048741 0.1228370246335949 -0.22820854549257472 0.5919034289516387
Ni 9.10124931115699 8.183785771414957 12.533078888435629 0.3183233973028002 0.4712132754577176 0.12927172451534513
Ni 1.0822339981604692 2.5883899449293057 3.5322433338986787 -0.6774468593410977 0.959981786190379 -0.10673857640983553
Ni 5.367374772738847 3.046833045754706 5.498152847319046 0.8036700268381063 0.3132562671925379 -2.072806913568456
Ni 3.347543714416695 2.179002253665301 10.912087646091628 -0.5056241488374195 -0.29237171043404486 -0.20276876526323143
Ni 3.4230925274979853 6.5505512958981535 11.641370126020577 -1.915219629937869 -1.5974950425613326 -0.06685048196564616
Ni -0.32997071297145686 5.232735864224739 9.456004323616359 0.3341840184841406 0.4060473802833459 -0.5715706309315576
Ni 5.740408492448573 7.075131682508083 7.042598222862294 -1.5332650289376692 0.2678179323540807 -1.5480527287698047
Ni 7.351530002661502 9.065509334080687 11.158825450910392 0.05596211718791652 -0.22656303946935172 -1.719858984213251
Ni 8.05481027465294 1.5935172804786784 2.772219891635766 0.909063659184273 1.1515022322333008 0.07676362731430006
Ni 4.075557883364271 5.478590250122949 5.719567503764746 1.8800019443861558 -0.5318350029048324 1.4435199017620366
Ni 7.007390679803463 8.804708306487235 3.3821299317202 -0.4220080173776603 -0.5223972545307003 1.4511396230908233
Ni 7.760239550770725 3.371544483637935 4.521528648599711 0.1909002959604196 -0.9086453406999319 0.44922442989145217
Ni 6.05955732364326 6.733265055628229 2.324279762022455 -1.1835392060641874 -0.1616218587112765 -1.2822387142196305
Ni 3.3415778874739592 4.4523122263286075 8.671622712361444 0.10719957520665409 -0.21295599020887843 0.2341673341791709
Ni 5.666646678221099 0.41869566426820976 12.89185144088224 0.2197892110806279 -1.1684272901234136 1.168002543881169
Ni 0.4635310073055957 7.50459790961162 9.65620043059476 -0.575644543890615 -0.07283832411796487 0.14762631576313287
Ni 1.2185774286582165 5.8187340268257906 2.7287894046203793 -0.7638207560516522 -0.07949568153348244 -0.051339530814240614
Ni 3.24608800000343 0.8019143610350128 1.0455748621865386 -1.525527036863463 -0.787451765207031 -1.7805884408828236
Ni 2.641660838966368 7.004256558736771 7.322465153611451 0.029424475908704166 0.6663875162031426 0.13656645840454545
Ni 1.21934721277986 0.5754255442541468 8.787025265521484 -0.6332408542478449 0.08001761547522347 -0.8859828661054095
Ni 5.0496830329172715 2.9773142082929565 9.254453763147733 1.070172325704557 0.13088252064589073 -0.5345009797727698
Ni 8.238202177537797 1.590685574602633 12.602971621042176 0.31427725225788455 -1.1895082791634288 0.16541577853606995
P 0.36110389864359 8.465664221386742 6.982804324803973 1.8413274106340933 0.24396915076094114 -0.2036002600255913
P 2.2046617243867486 6.198320075666172 5.169464191473993 0.722747125939794 -0.9405175068181801 -0.6287483656941302
P 5.054659137417895 4.119609696134985 7.388226711431845 0.35328191565585604 0.7346991560953476 -0.8523548936383192
P 1.7239132122270615 6.879056669809482 13.060756739725504 0.2138445634614188 -0.8376029321401253 -0.5237280575269819
P 4.204285949515761 4.100869118411642 11.174182644137177 0.3834435268409009 0.15950712636111883 0.02815460805734506
P 0.8165915782876806 0.12392607948790402 10.914139487339677 0.5325549117899925 0.6668703693768321 0.28699244840000254
P 8.65627743246035 4.3838564240824605 2.7968988040117866 0.9263124189623918 0.15749652368899325 1.7118502549761614
P 6.937221191476991 2.0091182292959475 0.9458245861665812 -1.1712663022341054 0.5161193919417886 -0.5949525001906075
Ni 0.804316270776474 7.652029897099707 4.841847734941229 -0.740126497758506 0.20921760621236873 0.04669123340895184
Ni 5.730511268027444 1.939828494251354 11.255395785380227 1.2900121875174622 1.0793845883314444 -0.3918898578360412
Ni 3.8951351478057523 7.955379825607331 5.314668387057658 1.5404438060742955 -1.6949753335976936 -1.2344025685729578
Ni 3.4368111802372727 2.4096625672577394 2.5600994620492417 0.8533779355861947 1.0638630956570776 0.674424013354374
Ni 0.39048949107765885 5.010799770677592 4.860021971489362 -0.47940918100494856 -0.6012558167008161 0.2744009848882371
Ni 1.4024183722806998 3.7353407938879397 10.300178916519927 0.8345680019685433 0.4562224584758401 -0.0124312837848173
Ni 0.7331854687076164 1.0022955827664748 1.3657629019454438 0.3265920650694956 0.40661302297882873 -1.310811897871633
Ni 5.341412886826754 0.5320133854321325 1.7838335748196528 0.9730920983200919 0.156474253072066 0.9965927525451933
Ni 0.01621495267661742 2.9432879172969804 8.500652742534772 0.5355841855346196 -0.749550105065251 0.6811821580138139
Ni 2.9628715919154565 5.4715338956745505 0.9813088849453367 -0.802227895074941 0.047582634874969665 -0.9662390799540004
Ni 4.483525139641911 7.67877073123013 0.6667008636586778 -1.9956815320393628 -0.1140057994952101 -0.23992274860570936
Ni 0.8970129415770394 2.311139363784068 6.306274051039644 1.3181194872766395 1.026083820025775 -0.5277500342021814
Ni 7.218467318777425 5.445544517472399 11.62453751322731 0.624015478994835 1.7292021159910476 -0.5597258157778295
Ni 4.6266500016874685 2.9219080797280026 0.20606112885758807 -0.1118329602136074 -0.46448135605052265 0.624709419738066
Ni 7.045916542272378 2.9199103066504044 7.286880966178814 -1.2702236920366254 0.12855618650555925 0.05923410307096896
Ni 8.768290186256154 6.5386746265927975 0.8844966183229849 -1.3046690181986884 1.0114629847888064 0.2252348075762315
Ni 2.351892101747738 0.2432957701034139 5.874670756588878 -1.4656961807487598 1.563473177089933 0.776406820246779
Ni 2.380520739795524 3.955874780642093 12.569507089173065 -0.012587606857023483 0.7071029916446339 -0.36688793647506496
Ni 0.2327185697081659 4.3452480847433685 0.821998395332557 1.6554057988351878 -1.4965697303991645 -1.6270822693001463
Ni 2.7595111223513005 8.223237207649182 9.863934923507253 0.6356247810989892 -1.366227912748092 0.12579096505559625
Ni 5.639328505999444 8.261020778286513 9.31377754304605 -0.47714378200953944 0.15540621681886782 -0.06526513975639728
Ni 5.085248892156535 5.149195958833056 12.841568042364889 0.33107555476214595 0.8317549579997806 0.839044292572342
Ni 1.6826381207522763 1.6502522030631352 12.437218771458975 -1.7692917849230818 0.3706548597166649 0.26479894302209883
Ni 0.4056386593096676 5.789097338142519 11.757348184452514 0.4977324047941687 -0.8163000568972909 0.37293645666199
P 6.029160014935031 7.115765287214833 4.540735678844383 -0.5507079285499354 -0.3275881104341778 0.8115663988670475
P 1.966862579475736 5.945409335319565 9.133512429950535 -1.449575106817181 0.9264093495515724 0.9467431760129178
P 3.668067160114316 8.451129964042378 2.701495059050108 0.7552888073212412 0.8761231997025104 0.12930257775328052
P 9.057362452126629 3.3855197310844374 11.86181888667555 0.4863987249489043 1.5614787723677237 -0.8071469296431132
P 6.4391708647737 7.2206025533053175 13.573130549549376 1.9134995619229693 -0.03197860978912557 -0.6597504705025992
P 1.9775845725986263 2.7934182800903553 0.9770274189735296 0.32512113695092393 -0.11605111206001303 0.30004002561258003
P 8.684512014350629 4.257281920652235 6.913153524349942 0.6376343553298502 -0.16040187026124633 -1.268297678658506
P 7.181004491524112 1.450914771944235 9.209440636634634 -0.27823887057708857 0.36779039368467625 0.5281225870502517
