# total energy = -340856.2161451582 ev
CRYSTAL
PRIMVEC
9.47385663075018 0.00000000000000 0.00000000000000
0.00000000000000 9.47385663075018 0.00000000000000
0.00000000000000 0.00000000000000 13.86594681120105
PRIMCOORD
 96 1
Ni 3.1809230724808732 8.77878796461192 3.915978746993562 -0.24456436114277877 0.7439186178110866 -0.5312318221031949
Ni 7.640163060993284 2.7468878160085364 12.141396865322676 1.974035157414181 -1.179476863069356 -1.2795915064047705
Ni 8.20373435583263 0.5082382892307492 4.805244171445196 -0.2454007410011451 1.20310684378347 -0.9391144558230665
Ni 4.655329867991705 3.587360985300529 0.8097712429015895 0.35998786692112195 0.5021912118964706 -0.6687709288336547
Ni 0.9560257956331342 7.501427908075378 1.053994944521693 -0.12138049469272644 1.6913307948665712 -0.6425904137835449
Ni 1.3902126338076481 3.852297379137541 4.182287902620919 0.15074454967714038 -0.4153054085465041 -0.9009297172232291
Ni 5.5955722188856125 5.393134855627638 4.488226199511292 0.8208966751290379 -0.18383927534858016 1.268603382824383
Ni 1.1764066428863644 2.8614077920035954 12.380320891680402 0.2184452954582238 0.6986309496178807 -0.7051427825944694
Ni 3.2710383944253634 6.458185790551897 9.800132210484591 -0.5735784053902057 0.6491580396987335 -1.2789759843079584
Ni 3.578881883834978 1.5998785494882102 -0.001144441851439696 -3.2083168841385583 5.023355279169135 3.4088747577934
Ni 3.0702400083221812 8.683007276548548 8.539772989232889 0.4590301031279643 -1.757968903711095 1.5599875325341779
Ni 1.6302612069184017 9.321232559710287 13.223260105789691 0.6341523103185207 -0.34582803048097216 -0.40146901688404407
Ni 5.852749524342417 8.189324620269387 13.643245633241458 0.9711162055406436 -0.12315275610180079 0.3059448211327892
Ni 1.695962400955937 6.3231833370501125 5.009294932445722 -2.418133836043294 -0.2048999526736213 -2.010396983872667
Ni 1.9343151537735803 5.906892613588923 11.832630622301055 -0.36441633500612075 0.5619601044249871 -1.2418831932207193
Ni 5.767465869154833 8.078688925392626 4.109741847344433 0.45836675851235253 0.9073492475963277 0.07128486358791594
Ni 8.361360378384399 4.50777455477835 13.369753399702166 0.35608981741829643 -0.9901611379872366 -0.486128244896337
Ni 9.121769987357544 1.8075549553276935 2.378300801608227 -1.205024629631473 1.3801524932489844 0.08861718421877642
Ni 5.03346937178611 6.880909262499242 1.8675623616771888 -0.8142519161190106 -0.044664175676594045 0.2541779729731429
Ni 3.783839292891653 6.5987399238959314 4.285506515333011 0.07958746991634036 -0.20370104726951369 -0.25349765907666666
Ni 8.273831419233312 3.0482322399372936 9.438661009615874 -0.022275780679064862 0.00940201004019026 1.2143407648260764
Ni 2.284715206069513 1.027212352518216 10.853528407282683 -0.29656877923452796 -1.9750047204163017 3.245834421468042
Ni 2.8981189854996945 4.47901192679018 5.81259079450742 -0.7282258896661781 -0.5493028206722927 -0.5239931382629105
Ni 2.026419985559149 6.759587057618971 7.119719602580334 -0.2395309124839294 -0.3455668063997855 3.003305345587737
P 0.06822218722187413 4.607695318082444 11.262254256419581 -0.2734514764907742 -0.6022374638877951 1.7418087490114647
P 6.031720145332047 3.3934216712208762 9.32203404796055 1.723316089523916 0.5458793968130405 1.2172162866016585
P 5.4778121840065115 9.279793911877528 9.693308795417593 -0.20580575231734236 -0.7634266059370272 0.33936350580255104
P 2.885622968926442 8.349735956598668 11.482959109561214 -0.881362850834895 -0.3128330636121903 -0.17244003237270303
P 9.142214569438726 2.458200464211596 5.328516523375032 0.301687588518332 0.3819756840461228 -1.569524782600652
P 9.27530330395052 6.685937298073506 6.324493571388309 0.0559996552940713 0.20561960444846525 0.6301118217005599
P 8.074037261907057 8.927603300724625 0.3388182628639368 0.1477859812694487 0.3638982577191217 -1.0063912266928539
P 3.3364174773457718 8.008961342391002 6.074643346460506 0.5220930930267202 0.14771630437377786 -0.7475279324288997
Ni 5.844099893461917 1.6338139030631853 4.003168542086028 -0.9523486951251534 -1.378218252340749 0.131654880035541
Ni 0.5773747035938811 4.719865777693752 7.1300356847991475 0.3273672526726233 -0.41042622607733187 -0.32603670678665786
Ni 4.172570568125707 3.509400621099392 8.298880295518135 -1.0010019373564825 0.35680432698681774 0.7585589934320808
Ni 3.2196048281052794 4.276981939356807 10.697244830180823 -0.11348669376694648 -0.0913302122745653 -0.8132664122772896
Ni 1.2562144090827883 1.225500166679084 3.950782853199142 0.6968136939034838 0.6022528905067627 -0.5516394392252693
Ni 8.152537635922199 8.874483387967816 6.827231339601294 -3.210581511803019 0.23236447664247722 -1.4319527657497275
Ni 8.645396066695769 6.750861635887382 13.00168176308926 -1.4110265571200216 1.2425658211100408 2.743356531569088
Ni 4.063005419020573 0.9775503973423311 7.519738030312775 1.6287583714509883 0.9257981983301347 -0.5071578118731267
Ni 0.3842264565224672 5.641340419086815 9.50033676207496 -0.12304348421744615 -0.12941236385826746 -2.0447348379225883
Ni 5.7641026501377715 5.747210764201373 9.200387837191874 -0.966051903643859 0.12966330352680897 -0.11099040970765402
Ni 6.816183875669474 7.719885562482232 11.132774113805246 1.0147321424583815 -0.18464480196901104 -0.286643549701016
Ni 5.926692973435852 1.8672402505600616 13.2547767838293 -0.8382464792613951 1.2849422291937225 3.1727343590482584
Ni 4.564882961073701 2.9068254595185112 6.132311657668276 1.2249877030169614 -1.0807336461601709 -1.5088958560646852
Ni 8.399217908503216 7.5732681610511 4.560052241702434 0.6068577362686258 0.6646934163301713 -1.1726189596072578
Ni 4.690259976487219 7.109646051085004 11.57213083540965 -1.242192754041338 -0.2948281423943374 0.3350836474802745
Ni 4.203872189625349 0.20456898094484569 12.719232945722561 1.8218574748349399 -4.478095261107649 -5.025338371037435
Ni 9.316249311251203 7.113056639383996 11.097943480801787 0.5354101218506006 1.7821123337265177 -2.247864586069664
Ni 6.924308998603922 6.72598328901751 5.979232138796192 -0.7255869093814342 -0.9871519188472676 1.6372615238259933
Ni 4.310850975937079 5.572200215181128 7.06763897186908 0.08007006597971371 2.7135548748266234 0.7668217476615052
Ni 6.322008578858237 0.6088288541813393 11.607544110580855 1.0497670225753275 -1.5241257856405623 -2.0035506503747946
Ni 7.088329874216301 3.3902668770443083 4.788244283545996 0.08354902566724966 -0.416828787169566 1.4783539787220863
Ni 6.101362463626196 4.0361091407404635 2.810419496933658 -0.5186678693952551 -1.7017455624419917 -2.5789337130739067
Ni 8.968994579275453 0.25266111811755537 12.08092808216718 -1.6805468168771895 -2.5035844496086304 -0.6451342632513212
Ni 6.928676446397909 5.702854168601698 0.9921088724508359 -0.8093063991882772 -2.3968361030067817 -1.3156445433735857
P 7.580960932436605 2.8771154458917327 0.8131979367564384 -0.4752185399623687 -0.6855705168894967 -0.4313246667928959
P 4.159553489451219 5.828733298403678 13.353321943186131 -0.15294567109351723 -0.7406047229465053 0.7291478872598152
P 9.483330242476288 1.429481768527992 10.509860477334707 0.39636254889541417 1.0545497886759514 -1.5490174066759193
P 9.456945552441027 5.666540877073814 0.8820908730104476 0.027038235064714724 -1.1793809609214398 1.0172276551867256
P 7.667504610523539 7.016641202942756 9.079213424471225 0.04693163155453208 -0.3903451390567406 0.40456796752434193
P 6.400518426729767 6.010214491335622 12.682654386215866 0.7437887771014416 0.21558957117698355 -0.0407661261737685
P 5.931600431043846 0.4305128766679881 6.17816701734823 0.7234405524623928 -0.09316032350476859 -0.4120025694255162
P 1.4654350535132041 1.039272571697709 1.5986327373734392 1.2332915948969663 -0.1805842587463922 -0.41808914193922836
Ni 5.837553458699129 7.935112631861429 7.91300444059885 -0.17510035281368552 0.4936996294856917 0.06559269829914509
Ni 3.6845627518218143 1.5955489971197672 2.5381891810649946 -0.42635780970592374 -0.7023371948248742 -1.1722307230299036
Ni 2.0265620934049404 5.83456919393751 0.15487576204288675 1.82390561561322 -1.8346150316109242 0.5762937474388397
Ni 8.293612831367469 9.067219522286436 9.61066739877609 -1.2787170742196172 -0.4581543853912303 1.9863252876354436
Ni 0.4558677585140813 8.67607241367393 2.7858765245798525 -0.49890019985002465 1.8733235039247158 1.9781970021013544
Ni 1.1460903024508757 9.099032732030926 5.631224235237748 -0.21523038806535189 -1.3180832347220655 0.027739889117429646
Ni 7.4169211091114535 0.24674943173263508 2.356503352835111 -1.2020647756722007 0.26571656974036173 0.23542254674251067
Ni 8.132329900250669 2.780756852588809 7.136955389503548 -0.5813935305592502 0.05093406784570583 -0.6790278306749724
Ni 4.635444243437301 1.8514757535336075 10.071571459345016 0.48393766500292146 -0.6569744504193589 -0.7136351363361968
Ni 9.402404561226307 1.3852009637794065 13.851443101182175 -0.5177633553031147 1.6624153973838016 2.0964890876767446
Ni 3.4674882804473297 4.74957579132053 2.4046049638642066 0.11187075543007831 0.1666221401393453 1.6098589634433245
Ni 5.598651222211092 3.8942476152151486 11.799656865149268 -2.207835595172236 -0.643172254428944 0.4641350284546974
Ni 1.6635428644027364 2.2817404151642804 6.079094164190692 0.7805241848492621 0.02696007352861163 1.141753637486969
Ni 0.13913968658559095 6.172255330963309 3.1133072120677086 1.117830293902152 -0.21935752285984803 -2.061541625067282
Ni 9.338512873758514 1.010093094028551 8.22747015562234 0.9334127774525989 3.2405788294960574 -0.1337089343510923
Ni 3.526453562594355 8.700344433735093 0.8536835146367563 -0.6300097489050569 -0.45239897096469184 1.4309595485985225
Ni 8.840983831786602 4.840913240738826 4.838743727626411 0.1618673990631793 0.6906024228864494 1.4149248637331633
Ni 0.25313196877994404 8.335364116460969 8.069315491884229 3.9202790036477064 -3.438022840112266 0.4941092062192845
Ni 7.702463140588213 4.980226298896282 7.956641023113181 0.45560745059966046 0.7595756076220531 0.19254194532890065
Ni 1.7179417477716663 3.6330344469378697 1.361740853210531 -0.7532352672263221 -1.0853138093316856 -0.39065572831862394
Ni 7.22809767748029 5.052976042085068 10.8807193224964 2.6213144920329627 0.5537685697531302 -0.3931365857589487
Ni 6.688078389616762 0.9259661967057086 8.301139810266218 -0.090127964436348 1.0218062756963435 -0.5465075173153426
Ni 7.6821606663528215 7.493725662833486 1.8985807148708866 1.1391552806321736 0.8752937618226796 1.383762579197746
Ni 2.2534704277081867 1.9837592102525852 9.039848603801383 -0.23627203922699952 1.906197371834601 -3.1619354686605416
P 2.6803339748962527 6.855168794698235 2.3246531950507143 0.3247529549782278 0.3015425783000355 0.36941815909608633
P 3.5700143542575975 2.8684942365803905 4.175049876341946 -0.672080709933178 0.9762231877499058 0.5511164768422637
P 3.639088241168581 2.5868364862219293 11.767765022396773 -0.5176106317753344 -1.0620180720285388 2.8734052434597737
P 5.997292151224996 4.482479358227489 6.733469530333798 1.2507154468003685 -0.06972266130711864 -1.4016003787101152
P 2.184358645371659 4.698009591011041 8.75907665901502 0.9365577508394838 0.060409611436308866 -1.0435794057073768
P 1.9518417880878474 0.5244707947626762 7.384310200659255 -1.5300555208614357 0.6181374229475031 0.2508018574120584
P 7.5355053694961445 5.527237292772744 3.162309786839122 -0.49127327943238625 0.7336105510168592 0.9628665639373417
P 5.118146700164983 9.197125041052505 2.256835541496526 0.5504785861479488 0.28719273733626666 0.8488070283860608
