# total energy = -340864.3135812836 ev
CRYSTAL
PRIMVEC
9.28350969785405 0.00000000000000 0.00000000000000
0.00000000000000 9.28350969785405 0.00000000000000
0.00000000000000 0.00000000000000 13.58735483435065
PRIMCOORD
 96 1
Ni 0.6931021966813745 1.817237751366971 3.574316502808485 -0.27424594736761154 -0.24029375879188294 1.0466539308676426
Ni 5.742742001464134 6.234990822804127 6.2287290954732235 -0.3013484600113584 -1.1000853112139055 -0.18924039175949345
Ni 7.844417208267059 5.654093766797274 2.5113369969962163 0.2240865529044012 -0.6880079226863958 -2.519132681755875
Ni 5.509066777377891 7.728549722993514 9.337081178115898 -0.265145270617924 2.885470145044108 -0.642442575351771
Ni 0.7927291099865243 1.7294250325782152 9.15189836724385 0.28660755425675805 -0.8830667208998793 -0.4045695101862387
Ni 3.4802299881261423 0.6687060613917063 2.8682907321947897 -0.17552484194561382 0.7301549883680909 0.07960803874163064
Ni 3.035791242033225 0.4312218132522833 13.276122642140303 1.2219450595358956 0.4620079548093656 -1.1196640046767814
Ni 5.433991033975347 8.687638399469375 3.2661828887185185 0.8843533009217867 -0.8606621279524339 -0.5558545057478814
Ni 0.509220933877217 8.157893482222013 1.3093480727888667 -1.3499579719434749 1.0251646506456151 -2.0695125590879004
Ni 6.822014995250411 4.5354679751522875 4.40207229510709 0.05089678684986718 -0.23465198712507326 0.22692505079446082
Ni 1.437031609280757 4.963140702624578 11.579564947504757 0.4786615042056466 1.1681071877798335 2.150890802356076
Ni 3.438249957006282 5.514460496546541 2.019271060798431 0.6767683452168345 -0.060049399883412714 -2.5911410537733763
Ni 2.2475469956101692 9.264710649456461 5.1887123510441855 1.5909641834213504 1.3619670805892092 -0.8116409608587248
Ni 6.003831429861953 4.156617225490553 1.6031990071181288 0.5498643496027176 -0.1267474154315946 0.023427377785004814
Ni 4.486497461185621 3.8246760506294946 3.451677625518393 0.5120938157221632 -1.0002838282435353 0.5670251776527202
Ni 9.193877470012735 7.015789694402298 7.593171085264284 0.5080327582789121 -0.2809349293520129 -0.14913092533311734
Ni 2.659187101732616 5.21032343340684 3.9958509736296377 -2.106464196611585 -0.5101436339743279 1.1967217661927327
Ni 7.8555017189165754 9.2700208170373 7.502054365353113 -0.507312592283436 -0.3866239814514116 -0.24073933096973377
Ni 1.9146774697734392 7.340016272655528 11.403133701280362 0.9987190548595768 0.272953196698117 0.8665643523694819
Ni 0.14744163030710436 3.5662695565513656 5.619295458825208 -1.3766089988721002 0.460273231506446 0.4697809138865651
Ni 5.594391515551847 5.986564101714466 10.946734081216896 -0.07287457667253901 1.1559738948514091 -0.14127209141033087
Ni 0.8497242897868931 2.4636021181781698 12.65585979136108 1.5666410332949536 -0.22961185359800454 0.8836359631397879
Ni 2.4295966219393272 6.376025903028123 8.064950695941699 0.5891855157998434 -1.0644202537121281 -1.036639484054434
Ni 8.260912589992268 0.6536314982487544 12.301420030604625 1.200797736034319 -2.0888130591887255 0.4989446799347149
P 5.020327122725936 3.3079187635317773 9.015699067252127 0.5078795205304995 -0.12814121045532773 -1.4369540756190606
P 2.0557961015852455 4.284952464367365 0.536781817642949 0.010528667445465737 0.08016005459035871 -0.029707554366761743
P 6.050388231291873 2.099725669754015 3.6338154451902396 -1.0952670638896558 0.7906764427919156 -0.6692635521993572
P 5.497555225279565 9.223361897000057 7.164082622554094 0.3998435654654791 -0.7837599181777405 0.8397454324044247
P 8.780519914585296 1.3453569504332081 1.6040957941606273 1.818580603855881 -1.1688543503585032 0.02868451241888608
P 4.405665941733915 0.13248125433416005 10.881623257187208 -2.672320550767185 0.33689781787087786 -0.4908035388848192
P 7.864051831402509 1.6848827527655021 9.963172216320386 0.3482662076088196 -0.4755638391169294 0.27841961912932695
P 0.991562393604845 9.001077539385303 12.862550637637483 -0.10897209372604458 -0.26287447230587624 -0.06370473724781288
Ni 0.20377953761669776 8.514435957938366 5.492593189314602 -2.901172643381029 0.40712775783171823 -0.3930160010206844
Ni 9.24214243723789 8.631296778755878 9.489015098794278 0.3233398766807851 0.21273898910206587 -0.5154516764508027
Ni 6.388883564041171 9.21454256273118 11.066030894994572 2.8485588738400556 -0.9549791907694649 0.8766639026973287
Ni 8.066469478137897 5.195525518854638 11.801243091932399 0.7137564924054095 0.9597719841724179 0.6936193553359022
Ni 4.233373284159064 1.8023284346976887 7.159435297569882 -2.503608617978346 -0.6646797894834164 1.7959980905696746
Ni 7.371682324435679 5.4572369424061575 8.1766795925657 0.2882355767784842 -0.09649735829780154 0.03706245206993617
Ni 2.590034237554855 7.565039265648514 0.6134320443002322 1.6987209166830548 -0.44260769590588284 -0.5480247252908175
Ni 7.3723414536284055 0.7218207341137687 4.460932532017583 0.9683031615718807 -0.7966717411434021 0.334472753369153
Ni 5.1315992706699065 2.0287532376639383 11.80428622643065 0.7800097071066889 -0.0886997166302537 -0.5862950816259258
Ni 6.887742244327944 0.8958846853502012 0.8618364849664777 -1.1399800905263142 -0.9417364668269459 -0.940932997089044
Ni 8.84556946745059 4.135357988147679 0.8182986809094411 0.558011147079568 -0.22986227904591383 -0.9836960990881832
Ni 6.484568699103621 1.8580202097282146 6.779655268581502 2.207741492796533 0.117310695498727 -0.1966819356392032
Ni 6.997185540849844 7.802186522383769 13.016808220807967 -0.8428389837280839 0.190363192510027 0.6568600363286816
Ni 8.491069363880717 3.102521110164484 8.229304095972608 -1.1375897359172666 0.1006813144721621 -1.3847799647186665
Ni 4.996097162260913 5.826859883369718 8.45768029268972 -1.053924239276811 -2.7568116286327298 -0.8315994062585227
Ni 1.4898919138354854 2.0293937998371514 6.77468209240483 -0.6044758663000106 -0.14527272792929175 0.20335703366653363
Ni 7.993426823372072 2.7586042077172643 11.976179693085964 -2.314570572037646 1.0047950858503276 1.765585282605772
Ni 1.048590994040338 6.2982208077571045 2.431403192937984 -0.22508414093098011 -2.3508462665402288 0.5967856967446045
Ni 8.76115451323279 7.534793590861141 11.51838104810216 0.5257142347190753 -0.2041409630204097 0.4588799507033452
Ni 2.499687120602516 2.8476794838329336 2.3507350632579946 0.6459313052313198 1.6679792646248244 -0.2471994847727807
Ni 0.054332669202143226 3.4803692407724927 10.461597356701521 0.42783130892765675 1.1413661722405632 -1.1425383381717937
Ni 1.6292373952837595 0.5123327663476676 10.94015764290524 0.18530686103304214 0.5517242856295917 1.5389191418996528
Ni 2.8322595741270318 8.472520911386802 9.372149636221886 -0.0041034806454122875 0.716750542036727 0.5779119997685531
Ni 4.955184734763074 3.572832997949362 6.043668826929964 0.4642759249079359 2.0565022628711613 -0.9636733761093532
P 0.5289075446673044 4.766905873387162 7.548658512682792 1.0618630345079132 1.124612092710676 0.5223057232581585
P 2.1347616355758534 3.2096899467959883 10.92435525259736 0.3403770346687299 -3.6863793213076255 -0.7253241426383508
P 9.223176226804924 4.202254959454558 3.6020760536830108 2.230638194889049 0.6022302647989435 -0.8956962367384316
P 1.7828237806988327 0.36209587125281667 7.738256560795134 1.2510607459549292 -3.5115522767599847 1.7936545300381628
P 3.1945578258925447 2.079886809403918 4.485797484549965 -0.7719850370299995 0.9408345238379668 0.7265197056083488
P 7.180720528740076 3.9022026406078116 6.496426526115872 -0.9228794820214428 1.0119111280698185 0.39784530408852775
P 3.491100978051254 6.461285656633782 9.907845283223299 0.13998396872652666 -0.49252926332667435 1.6524156058586124
P 6.544048146114886 2.795858932370957 13.58735509178706 -0.13424526647053656 -0.39096451780829444 0.04816113308625899
Ni 0.8679366792276142 6.137931728297684 13.515002201796161 -0.3929416961393232 -0.08082031388217693 0.004482718361701958
Ni 3.291431250203853 1.8664867706263377 9.402055534552165 -0.4635130785999823 -0.8040670051662088 1.4208350585700111
Ni 4.3266818407237935 7.9195950702769276 12.480923190207516 1.0354048403163845 -0.7288300989090802 -0.05370700260515267
Ni 7.759881568422424 8.569078696366383 2.1813685679584593 -0.11037257361799702 -0.22786350344833017 0.8663856606997723
Ni 7.397843254930098 7.122206566743508 4.03473773929856 -2.611437085018251 1.950781586202879 0.08439131906288691
Ni 0.9511884096728966 6.015807157448114 9.692770499285608 -1.878297045879907 0.1203872775415217 -0.5646587343030727
Ni 3.3872556379126535 2.7232897366027253 13.153103140950186 -1.3461892489296623 1.6887506928442209 -0.2062011879835481
Ni 4.039032290912016 4.078088016458511 10.701903791806986 -0.27249656877667267 1.1244087184506184 0.6370095772616577
Ni 9.178392575738537 5.869629012818899 4.760560594468449 0.7351442140525661 1.2168488759599105 0.9882739482668528
Ni 4.865765968786407 0.7344026748870429 5.212191275569891 -0.08333331011201776 0.051677630879949706 -1.5117600649863578
Ni 2.4699241883224916 3.665742363594554 5.979632104979127 2.3385242546397658 2.470822424686261 -2.466585503786778
Ni 5.753594424369733 1.1957067731549815 9.243817182398 0.21139893013440364 0.5774348030218184 -1.4501044969580896
Ni 6.9270114905988445 3.919479252265056 10.320180724226525 -1.9841115678135766 -0.35971044489001924 -2.584521234464013
Ni 2.899704272509558 7.741184579772402 2.9359016054019604 1.0480410410231564 -0.6270735490948685 0.8383578080282788
Ni 1.8316364749996341 6.914747974210226 5.86116338027175 -0.7580931095392557 0.15138295459208767 -0.6772514555008401
Ni 3.0552587619930542 3.9119967434011444 8.15253504039044 0.03858634491363032 0.41831848434121505 0.7713052373541556
Ni 7.9957477008112505 2.9552939289327598 2.6824701442024543 -2.881773670029127 -1.19070229947153 -0.31000973523078224
Ni 5.461349537228381 6.352352953148503 0.810456900217945 1.2288057912114707 1.5453168178958805 -0.07661167511746805
Ni 4.16510235340819 7.672857947962989 5.157447346885526 0.6076848601556115 -0.2917335626294137 -2.3447339829949034
Ni 3.5253664125632844 8.218579785501651 7.1430220523200125 0.26212602417562597 1.1747393483843704 1.2249997872018192
Ni 4.83462907706239 2.1125369132182805 1.310324698015273 -0.01454370214212979 -0.7596920785952593 0.745648970238632
Ni 3.8843504513456506 5.442708249636901 13.084731948293939 -2.3112384223406197 -0.12576962489935758 -0.7271208295274575
Ni 5.7578741223675785 4.3442276741639825 12.444413931387288 0.44779103987903524 -0.39950829361324747 0.9577127876505442
Ni 1.634705382530464 0.9904762229633094 1.3549310340453071 -1.4719123368618003 -0.14210435750363912 -0.1213542694404813
P 7.968936924633861 6.09890385328046 0.26589085964399145 -0.35164180894927183 0.0924985215510536 0.3731627137401831
P 3.506483753718129 5.717333035260009 5.802085909232951 2.1366810865145975 -1.0250895744333055 1.8382001778590213
P 4.653906992628442 8.860385949022305 1.2143007148467038 -0.21013934669568973 0.050650989387648254 -0.8478384938252043
P 0.9031378915231216 8.226675006009506 3.346212312927246 -0.44940543555400664 0.7191046440912002 2.550421721677143
P 7.524358925894594 7.05883732914418 9.77434934127273 0.4087676074279864 0.0026567208965567147 -0.020861673940357622
P 7.673971969133794 7.040158907513672 6.050816201091657 1.0911684683402496 0.9046788998530162 2.013533472619119
P 5.449559479837355 5.910002996750847 2.945290018818925 0.4958853242831009 0.6279410393014864 0.9616782000561954
P 8.85350686829258 1.4740263956612616 6.106537683353404 -1.7164455876563276 -1.334119976469954 -0.6308006202374685
