# total energy = -340892.7080837381 ev
CRYSTAL
PRIMVEC
9.03813357481529 0.00000000000000 0.00000000000000

0.00000000000000 9.03813357481529 0.00000000000000

0.00000000000000 0.00000000000000 13.22822207528760

PRIMCOORD
 96 1
Ni 6.364328209913001 2.0318085544010804 11.394882796454688 0.17514688978090479 -0.4850075010283324 0.19743578308609222
Ni 4.56710440947306 0.35861054036960577 5.714367110758379 -0.01156919289483814 -1.6532139333901914 1.5525105074308423
Ni 2.692306309543678 1.6490797548927614 4.6905291600064185 -0.4132662666292883 -0.17406779778411313 0.03755713231816758
Ni 3.583656069528327 4.275615567246102 4.9877536017272615 -0.3643263463954758 0.14736817700573976 -1.2180943183312376
Ni 5.307327539868643 4.539013890678561 2.9788106211673018 -1.3643384090348631 -0.8895183900624938 0.5045707678722406
Ni 7.223005117438798 5.847771768258561 2.61863196464234 0.2927105818307023 2.3403577083040794 -1.2443527378071344
Ni 4.9404425883161665 4.585831422002727 11.47901426176955 -1.6444832383854129 0.3821147807271484 0.7804611928218108
Ni 5.709208144179261 7.728806180275525 12.286478393669455 -0.7499267716783794 0.3748205610585803 1.1702170350339844
Ni 1.954496360781986 6.848591400713921 0.0976353405178427 -0.8097733115223668 -1.0864720913058452 1.262555633968406
Ni 2.59223609587164 1.4470955483227923 0.6531208306123307 0.9744594109812638 -1.3107247374744655 -0.6258602455130576
Ni 0.1796545940430421 0.2027027381800601 5.048366036151826 0.6936075282613604 -0.9379893410796878 -0.4828917402369102
Ni 8.696139528260609 2.40186589079811 1.4653959609531337 -0.09853958553881094 0.5795649619909439 -0.4219005452655186
Ni 6.829737854315812 1.0752215471002498 4.92583244557765 0.6010082194663843 -1.360515435744347 -0.619708624089365
Ni 0.502840170315145 7.371320887521722 2.2784158334910627 -0.16098448223759373 0.2554982344464632 0.3645214931254174
Ni 7.742128388995953 4.064023824807872 4.011788836287625 -1.4852195954936678 -1.0574811033901337 -0.005964702223867147
Ni 7.673917595771345 3.906037251922466 12.595331297900271 0.33106244213602337 -0.3729310573453513 0.4715431479933105
Ni 7.9170795383862735 8.776678335525018 7.077799369079549 -0.37087288926474193 0.42832418940367517 -0.030019943400857976
Ni 6.932826804563576 0.5547832271246255 0.4760158940184289 -0.34331452003049906 -0.21456215835373368 -0.6153876281165079
Ni 1.6984912305200222 6.345646388050636 9.06250930620585 -0.22640311685271977 -0.16562095256834058 -0.13032433414957556
Ni 0.2933597358532333 4.907037647047032 1.151577506199248 -0.43367362664104664 -0.4464018728409924 1.0100861590459378
Ni 6.327506854195888 2.1912593049070495 7.084268865010406 0.9050195710218866 -1.0919290006553581 0.1661346589799655
Ni 3.612442524599266 4.410193374469426 0.4453820444682117 -0.8739143649766498 -0.05697847426757283 0.15380364821843837
Ni 5.834585131540036 5.859937095896075 4.978216563299991 0.3378403842898053 -1.0033830359941496 0.18263599906909836
Ni 5.155559202803898 2.8348195979451134 9.218549065143916 0.29811992577173174 -0.8699594940939598 0.40494052037241224
P 0.2905624335472818 5.5959784081890795 12.397529035682366 -0.03295151522535615 -1.046126854719579 -0.6966751114430906
P 3.871909259976511 6.273883608376145 12.344655954939824 0.8247268475084054 0.43905263156477287 2.2229688512692487
P 2.2722319425775503 8.369564651940907 1.6166346633971074 0.936725900986232 0.8064182790072046 -1.0534419003237534
P 6.462536568092225 7.853677032162525 5.81269206085924 -1.0226141163096196 0.5668598557194495 0.10536175066696693
P 4.739226623090319 0.9241220319115642 12.794640216966002 0.5000399698814227 0.41351977740099105 -1.446096404239961
P 4.030998485144069 6.23463099475822 8.017479643929612 0.6121215557707265 0.1625780519769587 1.3688103287632878
P 4.66279112841687 0.986882830659634 3.6926451132989526 1.0444222133236463 0.8918079574276189 -0.41835113735136337
P 0.22179489130152075 5.627765523568826 3.442671129495022 0.12944553108904805 -0.7415897125675938 0.44245600081936703
Ni 1.2850508535137275 0.9623623745819391 2.7131744558900808 0.7120950455425865 0.03982021732073142 0.1048272183197356
Ni 1.8667812755501287 6.639955127917197 4.5163534824669895 -1.324552130275861 -0.15647553862364663 1.0913582157535526
Ni 6.058721803221111 5.74143812809856 9.278486350999 -1.0166437576587974 0.9168649003962467 0.2144194621282823
Ni 8.633523339647903 2.075155442476504 10.24271781158052 0.23680554313296634 1.264588348127719 -0.4258255913515376
Ni 2.62343573257647 4.9941471773370525 6.951536644639669 -1.5483401781032367 0.05177636124134309 1.3581731607644159
Ni 0.4792443152904351 8.981048609328496 8.947516230377571 0.8590937550240495 -0.72169143098177 1.0079680842616705
Ni 1.4295706075433412 1.0874682179389066 11.375715626825505 0.35557379701382635 0.06959153504589305 0.7566422360253421
Ni 3.9851570722336134 6.789608541752242 1.5650043260053519 0.8029074376404688 0.7427251117236177 -0.016110275298301287
Ni 5.8031685796321595 7.961474849943088 8.051780264224657 -1.6316611469200801 -0.06730145346013569 -0.3155142099887792
Ni 5.189614889682171 2.6675237475956353 5.001458123493058 0.10441147093855566 1.1719622998598653 -0.795461779995701
Ni 0.7405421765067296 7.3747373019697005 6.8114889590461924 0.24987908848747287 -0.7533273127194962 0.18911980702122916
Ni 5.21634065032417 4.421798337832404 7.372022246678238 -0.923799422732551 0.667747886885779 -0.7327075795866156
Ni 8.210538693707571 6.987516550131631 9.212253101375497 0.24351252283949673 0.6778009002464068 0.3182328944715229
Ni 4.761704461005995 0.13505682829671778 10.439527686744489 -0.45475667256359104 0.7314410541693661 -0.3835306872380685
Ni 8.020376365703626 7.055347741750909 4.510188571633743 1.124170377187567 0.9217831636334706 0.6189578619662695
Ni 7.442478112254376 6.201153748421404 7.0159450951175435 -2.064249510916748 -0.1671319898962283 -1.2727595710846016
Ni 2.249699875861113 5.426865893014088 2.5365376946094207 0.02796691752657119 -1.1974555590349636 -1.2206152849808785
Ni 2.283412113667896 5.158966579118417 11.491686628694184 -1.0186034524883296 -1.183858279966503 -0.9502290776789893
Ni 0.9291743485158513 3.5331600178858347 3.5843854468985703 1.989717344036128 -0.3338340913438896 -0.223034457490803
Ni 3.8653385369508997 2.6491130697370786 2.4719575195957995 -0.050032639077359 0.1363180898391652 0.4509658380625911
Ni 0.9711112877714742 3.419342803220736 8.335063385083043 0.32119377687205974 -0.366286298335324 -0.9392360690025954
Ni 3.689827023286042 2.4936752504874664 6.9286783013053155 -0.25191823040468875 0.7546596583776745 0.21688283606711034
Ni 3.794569951957036 6.743441756037216 5.924365430267564 0.4465047169674439 1.8138713713056696 -0.06699626351489107
Ni 0.7374393852898211 7.330034693875238 11.237943743237324 0.5972862905301068 0.08239125791372261 -0.5118667873130217
P -0.04120485044534138 5.379921827821479 8.013775816837596 2.579511439954248 -0.22574388600216605 0.8524631370814093
P 8.63205012389388 1.5903409255345087 7.979052211896609 -1.3444352423530328 1.4847850790594106 -0.24605765785885364
P 1.8490846102349328 2.9626639957405407 10.317153167319214 0.2987524171494081 1.5116451366750483 0.5447218861698296
P 3.904039824427748 6.0310741529661644 3.7597387932278723 0.7984563438476507 1.0472429706018933 -0.0944157931784245
P 6.62082139938182 4.063490574933717 10.584521942780766 2.814210735377489 -0.8216230117721012 -1.557774584043259
P 6.4631692374344425 7.795507605212269 10.258102522356582 0.09995960581478913 -0.19005440302035656 -0.13951962749559843
P 2.175035855345876 8.50519992077908 5.642365724360535 0.9160668299749837 0.6850133588344461 0.14724862070873995
P 6.852378378633771 4.006685906135961 1.6844287986691981 1.2488573105457073 -1.8635710525236422 -1.7588559343017385
Ni 5.409856125841872 2.8361753179641527 0.32531767195537914 -0.11947505013989745 0.3896527409754063 -0.1253099116541197
Ni 1.514176574864868 1.1790697005586774 6.977159752999515 0.1924876950521975 0.3045325141662949 -0.39597945452438255
Ni 6.967677847186353 0.7164682042219717 9.292322829513319 -0.6373456204448378 0.0646709578158241 -0.6508572817780275
Ni 2.8214883510912245 1.3786588017616768 9.078845732435276 -0.21751609877573508 0.3411540220440705 0.7876093738308177
Ni 6.3908641697523345 1.900846000561862 2.3415806368048067 -0.08631219023468362 1.0021599622203259 1.8372748378312744
Ni 3.8361453658742484 6.816614484531509 10.297125567384615 0.2508478801586454 0.9305452260968168 -0.9271228306788292
Ni 8.233766696700448 7.156014472231323 0.28654588703754064 -0.9165437696114022 -0.07899945862335427 0.07183327989221823
Ni 7.349231689344837 3.9374989944976435 8.416376760384995 0.8749101532310157 -0.8372661176259967 0.009433891719390203
Ni 3.140489271571225 8.54971272807088 12.302154132342935 0.4401309522306162 0.07689038270015146 -0.2105772055640567
Ni -0.03475614222144337 4.62883486100666 10.259491683469424 0.13614634014799135 -0.06167073753691959 0.5688344629473171
Ni 8.696365481597114 2.4461798591537818 5.755983196276162 -0.0390933664570359 1.4471896373041397 1.3600896610608384
Ni 3.833370658901947 2.4638042194012955 11.337062241455998 -0.8899346516643061 -0.3524018270437479 0.547217913118806
Ni 1.4046253591930138 3.144041258021109 12.816056978013442 -1.3078260757704314 0.6527233884524888 -1.8289753168266438
Ni 2.876277516127342 8.235194721787169 7.939327807712059 0.9781635993057283 -0.1317754647738053 -0.42322774871737434
Ni 5.8318917677688775 7.925674803306984 3.7048673811772668 -0.6977817142437079 0.6595944045407092 -1.0569054333923218
Ni 3.273006384365609 8.283214324861548 3.591065531339051 0.20630531766158017 0.35622762854774137 0.30016215301274113
Ni 3.488827973263242 4.532886036192503 9.346836331478897 -0.4800416723826249 -0.56994003730667 0.060860840041114535
Ni 7.366530676787782 6.098055760040178 11.504902187439782 -0.4978146800953297 -0.0938735475217093 -0.7794826309586254
Ni 0.3834319662915275 0.11224186800297457 0.3704071121619417 0.975011426829992 0.3243382360383124 0.19532696427320553
Ni 4.630244809826461 0.27009558032651504 1.6458685060743297 -0.06694458434134923 -1.0379216932009674 -0.28875982471307043
Ni 5.764639016691056 5.495691279313995 0.4638650273944507 0.8356576354882963 0.8264697983414412 -0.35331842532074637
Ni 8.15634604547983 8.8666168015881 11.456446946332617 -1.4669735047992865 0.16686150984366102 -0.43707802433690535
Ni 0.2970310256647924 5.069046189322255 5.716232581504578 -0.010381086124007928 -0.5477627298786825 0.31893377719328947
Ni 7.939322384831983 9.073201418089344 2.8561586310447957 -0.4937834474487495 -0.9931287052559928 -0.6746250736215865
P 8.635258661272273 1.8477017758155125 3.6848271278558244 -1.5966614909164438 -0.15505114747229426 -0.1399302326704558
P 2.028952504227637 3.32480392722638 1.5711692368385977 -0.6429791645815314 0.47262275421073435 1.2145783347581793
P 4.68473571645839 0.91231822961246 8.02925271657495 0.7435542924931323 -0.21249190608826632 0.7367516677490021
P 8.446587625289272 1.7719802936854248 12.424660608516731 0.09258002552126636 -0.0911108971749076 0.932804968665271
P 6.3596735711809655 7.592158640489801 1.3960671506194904 -0.1995093777856693 -0.16107575639981936 0.4030412464671703
P 1.7815064863525425 3.333200353210964 5.9130415528552 -0.18037831338317323 -1.150755326764947 -0.1346856964420648
P 6.823212321957501 4.082931600006744 5.960610153069912 0.19477571975542585 -0.11422562881550007 0.3434081081855699
P 2.259976233605433 8.5312387832781 10.205586447885722 1.1784980440958543 -0.97366802542822 -0.8722981695294654
