# total energy = -340869.48338870134 ev
CRYSTAL
PRIMVEC
9.31122710580430 0.00000000000000 0.00000000000000

0.00000000000000 9.31122710580430 0.00000000000000

0.00000000000000 0.00000000000000 13.62792206260292

PRIMCOORD
 96 1
Ni 4.769331515623984 3.34136174282225 12.208369656736473 -1.2869199217453837 1.1926275415187009 -1.7552548472140415
Ni 3.721269115670995 3.9403529757665345 4.2911869734288155 1.6552697874779558 -1.7651636216873212 -1.245875345099248
Ni 0.9654252603232583 0.26187639714458905 5.297295777885503 1.2165372582567628 -1.0660603604187122 -1.5341515453076806
Ni 5.996551234294225 4.503449428623765 0.6327118415267147 1.4676268221125695 -1.050795463839842 -1.5976181984027582
Ni 3.5139453352771284 5.21374706913242 -0.2529487926964781 0.13133554902290928 0.29293581046763095 1.2462921209216922
Ni 4.447302729810551 8.629654495320937 2.446103095806908 -0.5570094452879311 -0.5816362426976757 -0.5399267787740314
Ni 6.081385823496082 1.957098869561019 13.129589866874701 1.1965021939827587 -1.4073470513859054 1.3580055248382998
Ni 6.847420468829927 5.417830542530102 10.584616438285334 0.484148752572463 -0.929959785906992 -0.29099051381580204
Ni 0.7647971832654749 4.198311208589299 2.1032376462116833 -1.010770586707472 0.49506797058812807 -1.3108530355222134
Ni 8.669599659153224 0.5823045830366295 6.7792231800326235 -0.637048143809077 -0.4567994140252326 2.4680772578409558
Ni 7.970419623683204 3.093897262829086 1.6423011826362006 -1.2023936197665293 0.8585476527125924 -0.720043868076018
Ni 0.7940670253416502 2.956314572669211 12.809306005001169 0.5110070104158876 -0.04310865826401608 0.002572902933498795
Ni 5.1645558568886045 3.067518556736576 8.106842134958812 1.7212221831093648 -0.28946893496495313 0.47087029029600197
Ni 3.4193339577247133 8.697933722915845 4.85368005877641 0.13415707763210444 0.39008905718187653 -0.26920349984769765
Ni 1.9242488607031387 2.868714549048197 9.679708566729339 0.28463860345584524 -0.18776123611080567 0.7097784815942679
Ni 2.595616261122566 2.584275186635917 2.2914938959538587 -2.9875470543122162 -1.186703462724782 0.40253396781344863
Ni 1.6087472450170803 4.459034875831223 4.236021677941458 -0.948551175755934 0.5390965695632521 0.47640330429908917
Ni 6.1840979685389605 0.12451624531002696 4.201065469536057 -1.1376054196465504 -0.761139095454431 -0.3664652471153495
Ni 2.964890212736702 1.611782705019254 11.833179351486198 -0.30507373138174554 -0.5770545368642643 -0.7638562372752781
Ni 4.36289645705072 3.643874196842565 1.8089842505408413 0.99733348736596 -0.10952153847161138 -0.17498748138490508
Ni 7.809940626329019 2.9123655812266955 6.543010386746904 -1.1677351491523955 1.1081572895887624 -1.6683798424973524
Ni 2.1391799135564407 7.371316656014914 3.3585744770554355 -0.8507171009245801 -1.4259926915115504 -0.9692542126312405
Ni 8.014824865248746 6.841917533672612 12.367680095102092 -0.17904211107025295 -0.6971093707670317 1.5823481596175653
Ni 1.885802804417938 9.626132697690972 2.9167837584384486 -0.47034552814078345 0.2933034782196949 -0.29542823787218153
P 7.41458592788639 4.239671678925666 8.382589466966095 -1.0211182484903834 0.7799446581967084 0.5024853460981217
P 2.534385632367061 1.8099628604985971 4.6065787166362675 -0.33622393173230486 -0.22073614837492955 0.3679454312053018
P 0.6187701413388167 2.0086737559169707 1.2630130063829912 0.6791746406654819 0.14109571373346666 0.4658327278720945
P 0.09426313766259535 4.451464848279789 5.573043109892785 -1.446495953671225 1.0937316010817357 1.6979339020053856
P 2.711261700469185 5.025511304089647 2.446879652138753 -0.011956915251560053 1.17876595304526 -0.5812922290946957
P 0.2237301623688057 5.348415345241129 13.021370131061007 0.2753075558629065 -0.5853260328444371 -0.6116651849595982
P 2.5721147241732205 8.50983762627808 1.1495482563998969 0.35843080684664724 -1.1651108241556707 -0.47544376859929727
P 5.2487107265194215 7.400758755790599 4.150151680297143 0.3853204321486396 0.46027374572707824 0.07845309920158101
Ni 5.2579381524769495 0.2775276386097849 11.400083456642308 0.9635432782893922 -1.2418991340603194 1.0891977177671242
Ni 6.688272976936818 2.64128782956018 10.441263580753228 -0.6714554176443532 0.7004433202362711 -0.15961408425262835
Ni 5.383583849622141 6.673719529134985 6.572882665210013 0.857762952027768 -0.7324643532275579 0.36310327262165204
Ni 0.1275517053122007 2.0531348648445156 3.388091997769825 2.4110684445560797 0.8837992281905296 -0.5689730454077104
Ni 8.819678015947813 8.48975330963793 0.9182517909704582 -0.12461468535930798 -1.845195378229932 0.6819313774750126
Ni 4.208348711295874 8.483710323314584 7.491323474088582 -0.369377535666138 -0.08445276842844164 0.4440559983166352
Ni 6.092093734546695 9.120430648065028 0.6228680123417513 0.5212762535523797 0.2659729087255419 0.0018416811944290863
Ni 6.823732707340572 7.544337876138816 2.5073327934397125 -0.16668641771837744 -0.08981146163719371 0.10807580716402032
Ni 5.682995665051279 9.680975824724111 8.924380901323406 -3.13804632074777 -0.47237464275567026 0.7784410770679884
Ni 3.814809702118349 1.0737706977014596 0.5705780237521583 0.47410550940384805 -0.7128738326901399 0.4962982434508033
Ni 8.052088395704878 1.122487037368248 4.72927089257689 -0.8206035693686512 0.2704309444968956 0.8982956220344915
Ni 4.697271929866859 5.948170098799456 2.2482115883645815 0.0788999569310125 1.1330242280337712 0.7234009574737089
Ni 3.3180743640939174 2.516526698980039 6.939528988564599 -1.5293222422398371 -0.4681582906814776 -0.4547067931622621
Ni 0.6673924376128997 8.929876387499121 8.9609442275091 -1.1348116589514974 -1.081021866824551 -0.2440005182195088
Ni 2.6582994412901537 5.004067548307419 6.9469425875024235 -0.8765230062440905 0.5506302812344646 0.26349230839553334
Ni 6.056394490226651 6.738842250776712 0.29088645598744955 0.9725861052179509 0.1657749616477016 0.016927114772641815
Ni 5.803306029125165 2.6958702422373038 5.007675648770125 0.8468797294563609 0.8066008273316561 0.6411955903185473
Ni 1.454367101348244 0.15690255506328066 13.138229754408496 1.3713359233986189 0.765537995853075 1.5323772270160771
Ni 0.5264213919475309 6.949797409700786 5.37046433077839 1.2672036742633788 0.3236772054155458 1.1201000637729355
Ni 9.555274260216917 4.329776422609824 10.784864617281496 -1.5375526005694293 0.1855709133277062 1.0390272675603203
Ni 7.92001795192932 5.785698498867157 6.55902383494242 0.36063655624871443 -1.1700100612295012 0.8870429319388078
Ni 1.1567895976382114 6.535745767441088 1.0602042399616831 1.9963888425190328 0.0660801794585249 1.067477295370897
Ni 3.6287155192856977 6.250282170058749 4.948475798623438 -0.6072256611310058 -0.30892832924114544 0.2305549342375642
Ni 4.424890606420268 1.4840140481179407 3.548097984792383 -0.8213895556050563 0.5413290584381968 -0.7181489650461503
P 2.5238360121754573 7.601955748818114 6.4981200302546345 -0.8440224625132239 -0.8962742207290887 -0.8333045618750874
P 5.702484063163394 7.292599542952408 8.987764285761434 -1.8252901546655727 -0.7583738740044681 -2.147973885819597
P 4.511382594028219 1.8871436211060146 10.34554137381965 0.12607044396922804 1.4034045217983895 -1.7729998299022884
P 8.86327318076431 8.196719684704158 3.2517039380341184 0.502239805746219 1.1893457854436353 0.18516442191790689
P 5.318731153563429 5.406005284239425 12.175185374829274 0.6030440189494904 1.3617994446630934 -0.1516521490930743
P 6.794411653515893 4.837890080028908 2.5758131435378324 0.9810218946901297 0.832735833855811 -0.40038915355630394
P 7.318214728430874 8.902706227111565 12.439076721496779 -2.025924647194621 0.12904906698157773 0.5802308777097168
P 1.8279149061556246 8.422014133209052 10.801408805416042 0.3020935657074991 -0.37699879965682165 0.884086420413645
Ni 2.9580650833453115 0.20577159885287777 9.36382705298166 1.3795709097139015 1.1236576992172067 0.29791500884977723
Ni 8.381054045633707 1.203867161352906 13.676710116444417 -0.532617903817444 1.113013075019167 -1.3739630766088207
Ni 7.356604917354071 7.501171027764346 5.0376699043069415 0.30240441207969854 0.4939353996455816 0.11022267830369405
Ni 2.5172715971400814 4.737319517196151 11.284233170301677 0.1679799397188204 -0.08225858899060026 1.4334188087722926
Ni 7.9990330242558425 3.766288898218572 4.126970449556616 -0.4807402411115463 -0.5758535745776276 -0.18035980144041197
Ni 7.03615904013073 7.774381050413984 10.421762146923312 0.40774148015631717 2.220655115534408 1.1504465372752766
Ni 1.8301123557277506 7.123926665837754 12.558647774146822 0.2824583079750748 -0.43724283204954373 -1.0830005878174769
Ni 4.042255044060367 7.253110629243148 10.323791278669104 0.7126411478540436 0.38366798414688114 1.7627989781098867
Ni 7.60083840157805 0.8804072399494921 2.3643216579385276 0.04428853750473018 -1.1285001149111726 0.16092431842361965
Ni 7.645355377867599 3.7048534224690552 12.56437138538405 0.6834709540479906 0.4422510838974125 -0.32061759265361556
Ni 8.300241906496082 5.955023161871849 1.2217447171939293 -1.6408834368492966 -1.1628693364196618 -1.1361254926669142
Ni 0.9723621244386552 2.5086866458455903 6.154750843278681 0.389336238176252 0.28566730183067574 0.10524502258344454
Ni 8.80477074151996 6.106758917072534 3.490846974456906 0.016564589226900503 -1.3773296790882086 -0.20187170737025878
Ni 4.43890400305607 7.836933873403564 12.937599815105312 -2.0477090900595636 0.18581928189308644 -0.10283384203879065
Ni 7.710422232147323 0.8805571507042006 9.011150363495974 2.2495111205341516 -1.2832676697047771 1.2542468569923948
Ni 7.505240033963579 7.788785518583808 7.9594835875710785 0.5880164351924067 0.5563679550491901 -0.9481351712644381
Ni -0.07897410292772027 6.917859901088959 10.440283108550073 1.5044085097172928 -0.14477624790884744 0.47211290445385146
Ni 4.769350138077984 0.8360420366600526 5.9936144732982575 0.20550467613715573 0.5818203336840239 0.18760439881796723
Ni 2.5878134528961194 6.982191168435641 8.664224287805816 -2.138423780237317 0.15234351873314408 -1.3591164985142916
Ni 4.6279777785288925 4.760402048930472 9.768903603535543 0.33839034325600437 -0.04299167307017757 0.5827909251274093
Ni 6.081404445950082 5.295359973792091 4.511605132353532 -0.33933856610188656 0.12450027126863075 1.0544749695739584
Ni 0.5382392012566073 4.696750501154829 8.482141381564993 0.1508075417045919 1.198030457701827 -1.3974963838440706
Ni -0.09153029253793893 9.234446622686553 11.635205905246266 -0.6662875002901686 0.5458382591624599 -1.90993781271364
Ni 8.84879422277848 2.6619680647283634 8.465201466282926 2.0821230487630595 -0.560604361728041 1.858216215969632
P 1.4480820231228841 1.4500094471119944 8.222038773164007 0.1737322688215653 0.05333162154360493 -2.21519717774363
P 8.834361820927654 2.1282950891928176 10.722707521439437 0.047755670117724205 0.12106682010704956 0.7312045126785278
P 3.0126847409304376 2.945494926894592 13.48110823972152 -0.5032821309678043 1.146304232972129 0.5969700448412687
P 6.512495633620757 1.1736522297361764 7.0769114873439625 0.8297741801243259 0.2361164874857417 -0.2341112841302549
P 5.790782428809448 1.933811490832686 1.7906411333497914 -0.026252763048941884 -0.8463842778771811 -0.8092531773528385
P 2.5615557927546164 4.904074281548696 9.24816671567184 0.40645618568599035 0.18580334105348645 -1.1463692818821096
P 9.440001269950319 6.814561148745046 8.402104867636513 -0.7302634889214972 0.38264957018469586 -1.767885648604175
P 4.50476231163084 4.3060979723474695 6.160447451957606 2.0580919759557847 0.45602731174589856 1.1882849482792892
