# total energy = -340874.99095660495 ev
CRYSTAL
PRIMVEC
9.20945346567716 0.00000000000000 0.00000000000000
0.00000000000000 9.20945346567716 0.00000000000000
0.00000000000000 0.00000000000000 13.47896605283922
PRIMCOORD
 96 1
Ni 1.67689413530261 6.207061161136265 6.883627217594335 1.3080497617454634 -0.13549636526881825 2.004923619462921
Ni 6.491752997896274 1.3778355510465432 12.951723250738931 -0.6913231031025577 -1.2469729490388008 0.7167543986914687
Ni 8.50414752504591 1.0943225243374923 3.9912298056610482 -0.11838438817887997 -2.137444189932867 0.9036604858908308
Ni 0.7401361512920677 5.298392010371218 5.153601903026179 -0.7635011679287045 -1.1561849824209507 -1.417775960028713
Ni 1.7321692753483375 4.7649620434054345 9.414397018035523 -1.8630776578269912 0.5914012925042396 1.3885252906937118
Ni 2.517137046390922 2.7585720799528675 10.350201823606422 0.7868105320786063 -0.6927420949372713 0.4065559444886482
Ni 3.864516934636529 8.533571729052259 4.226100340751718 0.9840424266840084 -0.08778723211831332 0.29769955040486146
Ni 9.183851242319307 2.2949405612387612 9.649295181486762 0.04853034350021965 0.5356780308000065 0.7224614763785752
Ni 5.829086769640638 6.081287654371102 9.280011751280897 0.6041408515580949 -0.11611770363189035 0.285343857052986
Ni 3.6957905366395654 5.454842206821871 8.534867499162962 0.3116580694674826 0.6125555579843516 -2.0116987334032257
Ni 3.8418156317020538 1.0985128256905088 2.521658888070771 -0.442176007685103 0.1560245671291571 -0.32448504602882183
Ni 8.953845140579546 8.773054358467304 2.2313483637163096 -0.531072156596879 1.0782386476524592 -0.9087479277160673
Ni -0.11885997000536058 4.324722536640037 7.606315138241512 1.0590674740406472 0.5114767509634546 -1.6383100196951657
Ni 1.861304232649436 2.292988157091861 0.14893159859438332 1.241471045383965 0.023328904533927563 -0.7329585192551571
Ni 3.6377341416298576 8.719280359345843 11.23611994038797 -1.5423039992114855 -2.670381681873259 -0.8193205888911695
Ni 6.240574362506874 0.22719906030591622 2.8159175051505905 0.1502812368874767 -0.2867060275078353 0.30256304914474985
Ni 6.9157470286469 6.900717200497177 1.92223581904906 0.06477585882480456 1.5765984016179815 -0.07429691094136236
Ni 2.4197562848375194 4.771804667373107 12.22206561566546 1.3154954193902313 0.030391210697347657 -0.581212782007012
Ni 4.593730674050184 2.8444041867882857 6.6828712611893355 0.4636719727753498 1.6485196132383158 0.135271907962838
Ni 4.241478286244613 5.9172949154850185 6.048739603729714 -0.2979288928068482 0.42302643133984563 -0.21009280972847041
Ni 7.258007159379892 2.6561353284152753 11.06679769074806 -0.6109789575258511 0.06248577723904723 -0.5993148909243613
Ni 1.0338440430512055 7.285147418912507 10.148623463001808 1.0524342849948454 0.21841727043376577 -0.634822596912668
Ni 2.976025696540625 7.924145351613742 8.667972651877873 0.5955659654048904 0.48879422176427434 0.15388026709264466
Ni 2.9381932614676742 1.6259842762268382 4.845741844038073 -1.2539128706917437 0.1841902309300957 -0.6616849685211508
P 9.155513753828687 6.326111766829554 8.335675307966184 -0.22294626865237088 0.6983658688819521 0.8403483560957463
P 4.925178906347042 7.460679603063052 7.647372723938258 0.6481902764688257 -0.28438200736034897 -0.06615936943589251
P 4.307325878934875 2.8956732145514588 12.722149072369403 -0.3685380704839782 -0.5606012764042474 0.41336319721846876
P 0.8333201648749877 3.2882169615206513 11.612789352319371 -0.7810042098094743 -0.3372621431888321 0.4995334625586494
P 7.494717743284479 0.409579394096248 8.776249117894471 2.9284718454166145 1.0244447417604552 2.410947088486867
P 7.6607181430386015 7.906260592871855 4.262722653631732 0.2570455243289251 -0.04331820317166087 -2.4461820004297614
P 5.27346201968415 4.522633692851747 4.618001267864997 0.4010918360502834 1.7619901090553463 0.355245210029814
P 0.04289671356531067 7.511175036730283 12.041730701502614 0.25344546568249254 1.6329636677815877 1.3631333329831685
Ni 7.734126697071339 6.056357663684033 12.973396778660225 -1.5494526944411249 -1.1206363958923797 0.6849123144802075
Ni 0.46806863342154226 4.519631411003212 2.78676313813247 0.4446571222357439 0.7764165904387919 0.19613891865153962
Ni 0.14811195723082618 5.451388661750704 11.360314946819269 1.4332092638646479 -1.5879027708872073 1.036010078000551
Ni 5.182831787563189 6.823339371995977 11.96107246565648 0.3316463396639514 -1.3320142429808608 -0.4989824751511858
Ni 4.902763096471783 1.1953226011254785 11.219029036539775 1.7080272816856454 3.2084253846919646 0.6532543212552944
Ni 0.3136362282378032 6.947289406963563 0.7685850741703179 0.6537533723788999 -0.29433294792547376 0.40002611378993036
Ni 3.5064718005649196 5.301357454405661 3.616218095363807 -0.3063880793177949 0.7529601591880645 -1.7088371791814507
Ni 7.769417322971911 3.2868539623992308 13.242059561563256 -0.7003767286643937 2.238204951492713 1.0381957727979605
Ni 1.8002087179771007 0.16691489848896715 3.548027617697265 -2.1372104766555067 -0.9646395966773643 -0.770590213565002
Ni 4.819951690391946 2.634622044985282 9.219248697880746 0.5414067057536674 -0.16308635907194494 -0.6343569701301591
Ni 7.31420324477793 7.545157920230572 8.04586485693803 0.3862761111936896 0.8196031531285949 0.03616153752222159
Ni 3.904393868391611 0.6846897154108103 13.538138887604596 0.22864511880936106 -0.0852004452277436 -0.033414056684071484
Ni 8.242009639964007 4.403316013006288 9.730209440140838 -1.512094565507641 0.6568374106208622 -0.31812285125621986
Ni 8.848599505717404 1.3287031165007324 13.217420589607517 1.1987555087933095 0.03782015617156712 1.065263832659346
Ni 8.284234984367481 0.4858972144969378 6.775525731194676 -0.2635118487795591 0.00576724150108039 -0.8702590276122496
Ni 4.398223185208006 4.617739719384941 10.525144602731489 0.7726021017887081 -0.8575315527432522 2.254380789921627
Ni 5.470369345461841 6.898074087336044 3.9614003856996836 0.3057651010218153 -0.4894017734412862 -0.3811215635759436
Ni 0.5628679851524163 2.9225556093854275 4.874385086385661 0.2602881996359388 -0.6034865058035477 -0.4168848372184821
Ni 5.519078145145589 2.446187416448855 1.4761897518373392 0.35337601803155916 -1.1046330784855878 -0.9720364033620678
Ni 5.74964602355026 8.579204571259286 9.730600841915571 -0.3177857796317753 -0.9251618502977164 1.2451112132397137
Ni 5.608308540331036 4.572033201549728 13.331007226525545 -0.08910646515036912 -0.38563282118273584 -0.6913264455366674
Ni 7.586517576002875 3.0990179483418068 3.3921032810427816 0.061575863830268154 0.924983158628007 -0.8931094498478619
Ni 0.6334437112814448 4.34955122333835 0.24479648409788163 -0.4425776139988959 0.48352268895268985 0.8023762477273473
Ni 8.542053635747045 0.3925990036903312 11.150367034852849 -0.9308617288959711 -1.057146088648218 -1.0672978323702391
P 7.782319767357793 1.4846836308217068 1.72095400284789 -1.5047293833918214 -0.0913978322877071 -0.5920052446368255
P 3.1940687181538614 6.445963594979354 10.774613963546997 -0.6360670108427303 0.4151359728481753 -0.15261142768255007
P 2.1600312765786707 5.905414720440202 0.8156011762965172 1.0903364593572575 -1.158354993489076 0.42735642617376723
P 2.2545478980863853 3.8974591498887063 7.54863909366231 0.32270841374437326 -0.1394535501443534 -1.3871464080683142
P 0.8486382489199824 0.8112570770696645 5.541499480692961 0.5760212105037434 0.0390807680515456 0.4682760472062645
P 6.284816577231912 8.604779223692972 11.861463016350482 0.3327040915045044 1.3006293009116763 0.09580573154741565
P 5.020754615009914 8.365149243021557 1.2928691328422977 0.038118661248592416 0.2377684212668679 0.5619328507314775
P 4.762097903359746 1.0370857706913414 5.518693189988322 2.1244488061144637 -2.592169495037891 1.0389961572120687
Ni 2.2186402387997655 8.391193577584923 5.976560511742312 0.016190750827249537 0.32894308180017545 0.42840286516041054
Ni 4.6270688958038555 6.248715519421307 1.3042409660526382 -0.6834740393717842 0.434715951862632 -0.378319061130142
Ni 0.536574995343927 7.012308148836745 3.4059460106333734 -1.6165659431498547 -0.5547445605131544 -0.4580592545742627
Ni 7.764306076266583 6.926954933584528 10.516073291011221 -0.935236718035215 0.5036071184073907 -0.4530072939726521
Ni 7.785404934288036 8.380989503081313 0.11587058139175792 -0.9245843805276915 0.8057847591882639 -1.0659613729470028
Ni 1.357620800563309 0.5772356535938258 9.91886141178041 1.860251758342422 -1.1748969570081573 -0.638797522400016
Ni 8.728885819370452 7.197362907930188 5.99278848979539 -0.003638625193851798 0.15973698298373779 -0.050603681089480594
Ni 2.748008836761856 3.8232677923065035 5.152590705029341 0.121671543570584 1.0377990515801738 1.388823281550105
Ni 3.4098462142004125 4.1090002973146245 1.1838872226858286 -0.14766745341371346 -0.6364189948655103 0.13714752771899605
Ni 0.6988750366724621 8.340403441404952 7.890694774527089 -0.23226806027392902 0.4136383052567263 0.33178877877908663
Ni 0.6095507050610789 2.1968506717640786 2.284886600827578 -2.5147101272081467 -2.1066773410636555 -1.4869808011591488
Ni 0.9397878942196466 2.0872121275714117 7.482308925607436 -0.6864066396375469 0.10140328023985117 -0.4666788779224737
Ni 5.240731621863004 2.532553671588614 4.0509687678294295 -1.1682997634066137 0.0262915867066773 -1.7595347055363182
Ni 2.8968704435094637 7.835974043583453 1.893322739713245 -0.3249522154732275 -0.41051492913639626 0.6836419324082161
Ni 7.453404134779792 5.548907565106954 3.970121738186072 0.636360116603117 -0.31279166885129356 1.2235129182436475
Ni 5.753919209984985 4.457596532071519 2.3138263875786103 0.047036789673828676 1.3005853350476182 1.5735411028488964
Ni 2.998441506415883 7.30399917027432 12.955726600185429 -0.02995566582182583 -0.2618216055613297 0.0532136079085019
Ni 5.7574095928702445 0.5781584408368418 7.808553816663734 -2.7079146458217105 1.1556676764648999 -2.72945560521728
Ni 1.6007964208411227 0.09571292952036695 12.430019680944127 -0.6376667512296825 -0.5716184534503574 -0.21417315044543114
Ni 6.701728538223263 5.707070719912906 6.650427277372759 0.08795358249284853 -1.093600217710194 -0.6215721596606649
Ni 6.9162167107765775 2.0829849884043026 5.492637804080729 0.37058081194561987 -0.280571118254691 1.4085331012742064
Ni 3.01532243472375 1.1950186891592158 7.185798597141215 0.7795191406235156 -1.109905896848753 1.5151348949958616
Ni 7.587558244250987 2.5781404665280263 7.86996429464656 -1.574948010498752 -0.053551193753578745 0.2867397089592481
Ni 6.3367486856487485 8.369753969783115 5.774415769746025 -1.3656936375111772 0.5390135229311427 0.8985136515825687
P 8.10060769057012 3.99688441012424 5.6328462082980195 -1.0716285985351095 0.2734527620423549 0.13381640646323406
P 2.2287706376751903 6.877546215433024 4.479855781236885 1.9909309047282553 -0.09435665780571491 0.8701782949729853
P 1.7499158922873774 0.24950988241101113 1.1398687976814026 -0.7083368640517349 1.0655669657220617 0.13652146409922294
P 6.723177355478594 4.830413629594203 11.3439110682039 -0.32332830671655927 0.3163567604947326 -0.14266871464754138
P 5.645846272891246 4.312031909685187 8.036550415644752 0.5110512333902617 -0.6208291108470534 0.17040731821339036
P 7.824572740121838 5.022881998773753 1.817921259938105 0.468910852576786 -1.146981718655128 -1.6789954132296696
P 3.6261302301907343 0.8194369136888939 9.512834103908027 -1.0209686102863964 0.012321754790146522 -1.576253616684053
P 2.2330714524704844 3.0772652191202123 2.841231530049573 4.026536269545749 1.5059290601268776 1.7919020661234302
