# total energy = -340869.32208261103 ev
CRYSTAL
PRIMVEC
9.21991400809525 0.00000000000000 0.00000000000000
0.00000000000000 9.21991400809525 0.00000000000000
0.00000000000000 0.00000000000000 13.49427611403642
PRIMCOORD
 96 1
Ni 4.2044558570215464 3.1357664321440204 4.752184196287376 -0.21180850686799652 -0.6100309917902849 -0.6195204193379589
Ni 0.6666477090496543 4.309194077437285 4.086700962346746 -0.15722912896021954 -0.27687284346749735 -0.6294253371564966
Ni 3.861014069126628 8.171535814146647 7.045496681643243 0.4686105477275478 0.7130262991076042 0.5315717219411168
Ni 3.26443954870406 6.42889835249718 8.826915866579219 1.865980176185767 0.20202314534645854 -0.3269111389718112
Ni 3.6019990316143615 2.840332735244239 1.7750104228751487 -2.4057658013962437 0.12830524683701772 -1.3618256699153386
Ni 8.894948688289226 0.6885127345528166 11.369061838672256 -1.7245630745571396 -2.8955699524822713 0.7387980087550695
Ni 6.718422084671038 6.225645353459772 9.556605658015725 1.280124496090105 1.8208717138829027 -1.1649660710476906
Ni 5.6555688652092835 4.81898154955234 5.88710763769858 1.723439759585974 -1.748381774243292 0.3581752391924154
Ni 2.6006795166468537 7.489649431619605 1.1770095817925177 1.5835601776477952 -1.712167014885632 1.9040648988726303
Ni 0.9828520276882188 1.739862267605001 2.548043028939684 0.29559484535703284 1.0192549700293994 -0.6455307273587915
Ni 6.076208991091964 6.835229172210386 12.773249173741336 -0.25548512182034067 -0.7483895090982466 -0.9800327913039831
Ni 5.349126591269327 5.18443127161384 3.639837557722301 -1.9346232312754617 -0.4361758242376101 -1.8983138553214662
Ni 4.175791145113752 1.0056159947838577 2.87932743853881 -0.7821630060042658 -0.0825655787080578 3.439125072037509
Ni 8.007356809662223 3.507577894706124 9.974685413844757 0.5306152715651185 0.28227987341568156 -0.12132495886444265
Ni 1.5527348977495579 7.48621962369754 7.659688613295599 -0.11257086682089644 0.021074304171795965 0.3269684745723079
Ni 8.415586931611841 3.906975339265049 6.021550576295255 -0.37633571215152606 1.442445437750935 0.11437655257106753
Ni 2.7596492698517983 0.4190838044384746 1.1782422842634317 -0.1445178520411382 2.5738976933118964 -2.142312316658446
Ni 0.8979522957292181 6.591279473796651 2.991573434736638 0.48911689521101576 -0.0048771255866432136 0.021998101537645986
Ni 5.075912886552814 3.656166025007184 12.041252559879826 -0.08885886791593729 0.8723159101412784 1.5572616489625826
Ni 6.551145189160233 2.5620572978685496 5.530763502475336 -1.088175961370829 -0.7176347444138931 0.4105372977338994
Ni 5.7802681989348885 2.657160708395693 2.28737393889726 1.1656823803884246 1.1824035497978473 3.2288039483483164
Ni 1.9505188573989092 0.9634625490320304 11.562893929820508 2.1884049972514505 -0.8546434325621797 -0.6148836918968958
Ni 0.6398260579042824 1.7256175008319097 13.380640496997685 -0.17712561077383043 0.8742115845020944 1.2046114533534544
Ni 5.37486859051235 6.778102586497718 1.666772323192701 0.2680729857876803 -0.6889607735179684 -0.10726925210232492
P 7.855827526868855 6.644100359779201 0.6274298838418738 -0.0158783617931533 -0.2775197330228769 0.6260312238732831
P 8.436635994746448 7.7628078168535035 9.568912398914575 0.08448490721795773 0.7168364168823138 -0.6194515137732364
P 2.282647811099275 0.7612348044057339 7.4868262940235395 1.2203707730702402 -1.6880428681439188 -1.6140043530702655
P 4.76314575176733 4.624745626181005 1.3629623346337911 -1.2083061285962222 0.06843222463046925 0.7047162365800121
P 6.270085337826309 1.2858460538785728 11.153167415866182 0.9063904832274843 0.007114756667910328 0.15657015521998197
P 1.6503645646494043 5.658030582185605 11.678162213751811 -0.9694179919026144 0.10035684125320782 -0.31065533923458116
P 7.586937961709999 0.7435436338657938 1.286282155799846 -0.42588755493772457 -0.010830514956600704 -1.2014381978317954
P 0.21564917309981702 6.295006764743891 5.079569504353596 0.4078924039118846 0.722389228379743 0.8666106322263849
Ni 4.367777409525455 9.175962440054306 11.456100590625661 1.3212883719229245 -2.969086019393551 2.4201804341596773
Ni 6.9807009716575275 9.007708233683987 12.907544593717706 -0.01683558350010004 1.8067568717480755 2.6140827501712143
Ni 2.948878780046571 5.200105125021124 4.6954273291168445 0.15037842458697329 0.07393155718214364 0.48808485440207555
Ni 8.631056316393163 6.120344718304125 11.041191563141787 0.5527082468094159 0.16912099530179905 0.08325000636959212
Ni 7.410487251999047 5.63861344378811 4.272206549370223 1.7982470345048513 -1.1097246340758822 -0.36749060305607034
Ni 7.87232195260158 2.8661300539698757 1.2406067029882641 0.7147715639334851 -1.9010250836050422 -0.39339241052349666
Ni 6.070621723347956 2.729149795103975 8.40841844865645 0.21102380618317204 0.04740728563936997 -0.4207651461094947
Ni 0.7919592450495198 0.30259203795002604 8.920580048567022 -1.2777164008692445 -0.6420414832586103 -0.6769179834208213
Ni 0.2447389230323608 8.743963380408228 3.825464847607529 1.4463008069412835 0.5812325795013538 0.8501920816590455
Ni 7.84024587259926 8.602603662502057 7.543273372091434 0.5282681114891805 0.15836992743288208 0.825069575559805
Ni 1.3242008951575757 5.469345046903202 9.082714076177483 -1.6647838976159781 -1.1650072086982712 1.199431708924728
Ni 1.242069903303403 8.03937757018193 10.497655518666715 -0.07942960418223739 -2.108667374910491 0.5557161803978041
Ni 8.363623497609808 2.091288500823865 7.66167181674731 0.2688538298177628 -0.5792628573694927 -1.8207956092293285
Ni 0.37642695139486043 8.68948290994726 6.106942651649519 0.6904425002698173 0.883434645762259 0.4257057779442217
Ni 5.548544106178835 9.138879946875424 1.7070937720786297 2.429097277033333 0.24260466631324668 -0.13846676075105185
Ni 5.669804412068607 0.09757803538274026 8.12308147932509 0.046901292537228904 0.17829340582968647 0.43554718951467575
Ni 3.1621814850921797 0.7466784045472507 5.089824814438845 -1.311853708872586 1.0122014056167277 0.3997371217946019
Ni 6.328816188534781 7.009439442875473 6.909716855550066 -1.8122798584488338 -0.8221925111223259 0.8016044025583291
Ni 0.16499957680986446 1.8622935025434335 4.99966973163152 1.4359613726884883 0.6833791656651328 -0.17240249426654825
Ni 2.865042104145135 4.7690649364070214 13.475545679378794 -0.3279357235815836 -0.8032123704753973 -0.4831187686460518
Ni 5.802100954739859 2.0454009899955965 0.22085934637067386 -1.1251124293858623 -1.468530307763445 -1.4646834232135293
Ni 5.4642372146751805 0.16567170852362392 5.361073755531185 1.0479022014524468 -0.48010826395450223 -0.054388344942893435
Ni 7.598140156939323 7.667667526671285 5.131899890923635 0.3075985546861283 2.057374895284102 1.5238820450608723
Ni 3.4869345077773524 9.067665332923736 9.410476478716856 -1.0936765794740841 -0.21444054517420488 -1.7810201291036036
P 3.861299886453467 3.0373438526600403 9.068477607326784 0.6292862404754711 1.0475597305113635 -1.4012365676127934
P 4.231737581863991 6.164932221290965 6.301934607949912 -1.963305686811819 2.818390063566159 0.021389778529685745
P 1.1506267985425496 3.8293436653301436 1.3030789947041939 -0.4407773275653635 -0.23098405135518282 -0.3152696980781409
P 6.738023621343913 4.873296061565466 11.399600037057906 1.363190411473349 0.008697784884314053 1.2563132526031202
P 6.745224373997496 4.858645618586539 7.765969325284891 -0.05294672740036043 -0.3775806403022207 0.3029497430602073
P 2.3422822133571093 8.835258966548778 3.1236818911670037 -0.4338988552779753 -0.42178793094705425 0.7138639645175512
P 3.4333944685208215 1.8864681164457282 12.886223543126915 0.2717103254299514 0.7416187660333163 1.382975050299444
P 2.1448193201666275 2.6688515590547737 4.033466102235968 1.5872350553962213 0.5305962454017249 1.5633579916683076
Ni 3.624440301728086 4.372498005375178 7.164987686080745 0.9038540899588755 -1.1964700551932426 1.3846313549559444
Ni 1.8422955095784919 2.3039365919918753 8.9349649580294 -0.27979824464440844 1.5674689285128875 1.2882440398734458
Ni 3.801305907558642 5.748404176949255 11.549763850622089 1.086769825051922 0.5329644885235854 -1.460304834529859
Ni 7.909736362676146 1.2459146073450724 3.2767610414649395 -1.4691869675108375 0.6668071202390645 0.8646331967850399
Ni 2.470014898712712 7.776646907420759 5.319078892296186 -1.4744698131763316 -1.6076097623978314 -0.9873079848091577
Ni 4.543942301909567 1.8603573206519455 6.8254993972099705 -1.0932340926200268 0.10232399228190764 0.6045404009893589
Ni 7.60136712675847 2.679703397560876 12.424152812731895 -0.20005985097250062 -0.6007426245098234 -2.1072846356303514
Ni 1.5020069321925689 5.073054713284428 6.63097950049455 -1.0456285749269216 1.9463484901321897 -0.8025348847923985
Ni 3.7522190866525333 7.160406310928933 3.442200408161585 0.004904379280152844 -0.04068642197576863 -0.36400624405189563
Ni 8.423128821074876 4.786591992481874 1.9670473968125795 1.4174432592796429 2.6556598022820523 1.3542661124005257
Ni 2.773875596797351 5.0419282844003135 2.2647713202925783 -0.4472359387065136 0.716192869761044 1.0669584467529494
Ni 0.9103217320416965 6.304060720065041 0.41841443869884587 -1.510903373413017 -0.2625587408376704 -0.6856607626104579
Ni 2.576716960761246 3.5484405525302924 11.031084693668218 -1.4012057143748577 1.282648033842907 0.3596505381863612
Ni 8.577885073687392 6.086461535203083 7.575119876240906 0.08340221567674024 0.3408454896647162 0.07299901806554525
Ni 8.791261538043152 4.579300671213647 12.839331061697825 0.9239212930223959 -0.1211830339699397 0.533557642022894
Ni 4.14657323837982 1.9537181674767492 10.837455440622882 1.3739651334913499 0.5020336032726839 -1.874152427583914
Ni 2.684110516342454 7.770939780797754 12.393331562993536 0.158687715783617 -0.42297166684251025 -0.5315627230800521
Ni 2.0350746865743266 2.766490445868389 6.5896733648180925 -0.43398884388862025 -1.1073808164340542 -1.2395928545246457
Ni 6.558327501986278 4.780101173188505 0.42456135520863225 0.6469756873354342 -0.8677223772333249 -1.1827624757991628
Ni 5.345641463864649 4.543684144324035 9.790475224705823 -2.240136621297787 -0.7881927571381135 -0.7370987666757757
Ni 7.733663669429723 0.9689299578970423 9.399316695090869 -2.290462366135533 -0.8597465581167 1.6098111409245244
Ni 0.26974701713937216 9.009625975747937 1.5129647997070148 0.3285777280409567 -1.458551085063546 -0.8661249508392179
Ni 6.618210841915874 8.289301772717971 10.942670330580478 0.4298478251370533 -0.5200608930880398 -3.4750120157421054
Ni 7.625901317297755 7.701274112359258 2.8703804342173806 0.8366616512727785 -0.576352111480601 -3.373969204165467
P 0.6948090136656606 8.449829691349874 12.933034889314836 0.040618544852310694 1.1017382734362962 -0.5895632108542362
P 4.796153043060317 7.24761747526982 10.065865751063194 -0.21735951859321276 0.5638596354405451 0.7675568260553168
P 5.7872476736580145 7.820671995667692 3.7492364445482647 -1.2070383176273922 -0.20284589835807 0.5796240973636534
P 4.6048951518363666 8.33354813889536 0.044091471626069176 -1.0217479116545822 -1.0130951210755907 -0.46424867121442626
P 7.4072602821799 3.5103530887505903 3.8541138856619153 0.21158584933422914 0.11030315383264229 -1.485457936756719
P 0.5124160695305945 2.5023583562143323 11.137581151639703 0.04416383900140781 2.770196020359436 -0.08003869852114602
P 7.7410303805311464 0.8208802705600909 5.736011690852354 -0.6864542050460307 -1.970533829129142 0.5702575685470889
P 0.33408634139352267 3.769985860485379 7.8869318279599225 0.9272902094946289 1.0154183698921286 1.0442118970850531
