# total energy = -381177.4432799884 ev
CRYSTAL
PRIMVEC
9.17291402900244 0.00000000000000 0.00000000000000

0.00000000000000 9.17291402900244 0.00000000000000

0.00000000000000 0.00000000000000 13.42548689381422

PRIMCOORD
 96 1
Ni 3.459619491061088 2.6769497908434157 2.8358118164187496 -0.038180110614147146 1.1089332485228385 0.10562683140289551
Ni 8.916851947120335 7.248601626349072 2.9689392322247254 -0.2920762906808131 1.135235376752477 0.10196866582501794
Ni 4.259066450686407 0.4960867742518174 11.094942909150431 2.3094468776578356 0.44658210717259866 1.5929215642580374
Ni 4.349648974825565 5.363705426578452 2.7519557899961735 -0.64136476890656 -0.5815259423720566 1.740638125742131
Ni 1.2785207305838815 9.220429530551773 8.495862901159645 -1.6429832568011187 -1.158909323330649 0.09203855119549956
Ni 6.735551382538719 0.27035420680565214 10.603879222515687 0.027535229305791286 0.9548017846513364 -0.25226352955924947
Ni 6.707344672490322 3.7704345035098195 12.86149567834597 -0.801926047563806 -0.2585843295709547 -0.45125123051349386
Ni 3.7642703054114386 6.134679661654107 9.674378690511128 -0.7758098100927284 -1.4989228040123734 -0.4716200239778329
Ni 7.022094864975075 2.6838111303933996 8.153149998134557 -0.03204185892689321 0.33767043437084426 0.26899806870511095
Ni 5.927371808940693 5.635654803100338 11.122801048473026 -1.4140072370149002 0.635954396524266 1.485215738838926
Ni 5.435364229472134 1.6608202605633937 0.18821718443610666 -0.37842807590418054 0.18169908907712579 -0.12936994065610624
Ni 6.336171886994942 5.239284023295057 6.566379001810736 -0.48378571280608945 -0.30748825436050914 -1.0111397971214326
Ni 8.69556457371952 1.517676940138932 6.800814829905329 -0.07755012777133742 -0.6538371903419579 0.44465969333890515
Ni 7.369372209925391 0.5018904768364093 12.938261959664022 1.393972172740896 0.9287048304539682 -0.833363697247797
Ni 0.5209462880411371 6.1736461996331595 1.1061093939800972 1.7634039586837371 -0.14969399692543894 -0.15797372043572794
Ni 6.68497193564218 1.485076404362672 5.531864200327461 -0.21735437638689017 -0.16165939681743127 -0.48526923933015137
Ni 8.416607091026263 4.848884810397582 2.617217610520442 0.5401399232261019 -0.2173476915186708 0.7355031400538817
Ni 1.3985391352255767 -0.07080021815854952 2.6096866482603662 -0.7889797718157832 0.8182348120261587 0.7539122386886887
Ni 7.741095370250985 2.266241746711096 1.3010567452983204 0.2158245700059251 -1.6290010835894138 -0.012737502171326449
Ni 6.0066349574051445 2.5986956629010205 10.494232631549346 -0.617059359391976 -0.10100604480143249 0.3044759498967466
Ni 0.7335524157867316 3.825692136463165 11.23102400321188 0.41282326555459875 -0.737939003188884 -0.5131574810999872
Ni 7.716842186066283 7.436628014177372 11.54242791672894 -0.006766886410188346 -0.024757923670970263 -0.46728000184158236
Ni 5.646056887391357 1.616726063749527 3.000045500336958 1.4560206053322085 0.672098450544991 0.6501977938171576
Ni 7.024177116416046 8.600679952990868 3.8614518237648454 0.3575764292661519 0.23504793701191132 -0.45165643637171254
P 3.192981231650754 3.0635330715847497 6.443521580336526 1.7144529827063313 0.10541780071588296 1.824886748579567
Ni 0.40342566783722317 0.24449392811672924 0.34851752290106264 0.18528089289111316 0.3725173668467004 0.2500338688977823
P 8.35156195900897 0.31184421338122936 2.2353033429220783 0.25271707215690026 0.028190603501603063 0.25754997476916935
Ni 7.644733910394595 4.468915200532637 10.326280248361668 1.7099113860822357 -1.2434816480560908 0.15948372932235114
P 2.789987608055248 6.333126479601098 0.5922381743813432 -0.8108734865650808 -0.6184912067424961 -0.004407385039076281
P 5.728769051458474 3.8540456131329512 4.310118302645544 -0.9214620328486258 -0.05665425815893469 0.1599735244745761
P 1.040612037310646 2.214845910483076 12.619433489687394 -1.0989961919147846 -0.18376291358469 -1.257186656347009
Ni 8.500575944289032 6.834224416682002 6.8799981740194 0.3092782563813964 -0.49041221698367155 -0.08082339920597048
Ni -0.06964534830648673 0.35821237553525764 11.2719718905797 1.3380792182280181 -0.5368098304116046 0.4411496233031177
Ni 0.21495714556198608 3.6672300499311192 8.63785043444066 -0.7555178926129117 0.45015054125014736 0.0973890168741355
Ni 3.5008058741886643 2.89180695164458 12.085770791194197 -0.39606224404617596 -1.2190415127358554 0.8699710640581855
Ni 0.1963847469164617 3.8377820369001685 0.6366139796500019 0.6443824726869612 -1.0577688098338816 -0.7467103216236108
Ni 1.4096750526235453 3.9865666993343094 6.55467161188073 -0.538460221530834 2.355430543476802 -0.6735570373683885
Ni 1.3842936000369073 7.238997585561862 12.587320035635873 -0.7357990740277457 0.5871489449857888 -0.43695461138516356
Ni 8.669706129613367 5.367457148337736 12.469604949658617 -0.24901262672211955 0.981679839989103 -1.4985785332990773
Ni 1.4540719555940287 5.810967532350727 8.061198875250938 -0.55797515163531 0.8150978090590737 -0.3589031184973755
Ni 2.248473812609066 6.725314410696764 2.852982593829999 0.4272978050216899 1.3691533139250034 0.09459577039971451
Ni 2.04287212186931 1.7654923803559943 5.114828680230464 -2.741656003938214 0.0522054783589617 -1.1193269330523368
Ni 7.243418930031237 6.56288045247335 9.258041229157117 0.40166082117987595 1.3115207510131994 0.750833856873681
Ni 8.302349276274125 3.8586595887929 6.135769403817927 -0.9827818148040302 -0.06003680147792241 -0.15365683822792894
Ni 8.731522395960077 1.5681646578971018 9.251502776174192 -0.13481887958581942 -0.6162435483588999 0.695266404021022
Ni 7.435444708292414 6.21123680053668 4.602565472427314 -0.42164163517717707 -0.2186738665292621 0.5193576963734281
Ni 3.843817814204834 0.4450853733187826 2.3937241513418583 0.5050322808896915 -0.502564021854857 0.6643023515393398
Ni 3.908230015167382 6.973350000845911 12.112769428490274 1.573554472585335 1.843152122547658 0.5199511069830529
Ni 2.2314947490970067 2.1238414323074215 0.8790449194448174 0.38525152658391715 -0.6822548222527024 0.42652827384551706
Ni 4.4819407381810015 6.394777633498747 5.378303201658459 -0.5369517553061075 0.10430914103273649 -2.0956509080461654
Ni 1.7998174239335871 4.544454145979317 2.4094988112671354 0.4426940849721021 -0.6564815699433404 -0.07705776151595116
Ni 3.7425121537903667 5.339048634184929 7.174486317129875 -0.8452797319590927 -1.7986267864417733 0.9940473604155203
Ni 6.233582018643312 8.954093977298056 1.49665995995588 0.775099157178949 0.3375807028705154 2.014936009393601
Ni 4.2163481909480724 1.9269907013680465 5.0470298394793405 2.637001820861233 -1.2763550017453438 -2.1884908720970375
Ni 0.6060232292954015 5.70736864347704 4.59206707254101 1.0592631349912207 -0.2782854075443078 0.7490816500692647
Ni 5.376538333036243 7.0569519375552066 7.501235598204645 -0.1517079420316742 1.104771146725349 1.8784140310737456
P 5.674355326578121 8.569565429256182 12.94459952583392 -2.322926143091193 -1.5355697658114458 -2.044962894772994
Ni 7.9854434490377075 7.499223978200219 0.4574999949056116 -0.5349807476226658 0.03489526921528829 0.4727322832054052
P 7.455267375093905 5.238265829859163 0.740597213613453 -0.47765594575926773 0.8009459430387238 0.3625875093274981
Ni 3.041013568115217 4.503625506491378 4.630852904117475 -0.5460848279556273 -0.22526900324827653 0.48285857300612967
P 4.309535822616903 4.045438460339384 10.579243527823987 0.08827059951263508 1.1482441303073192 -1.1126060693887354
P 4.108731565813834 3.21287728176294 0.7514203346495838 0.26516275411942075 0.5267041094361703 0.9462706072518736
P 9.134451809158726 8.065853211731769 9.694235297093815 -0.7592519057340472 -0.6760849459965647 0.27438247294547585
Ni 2.872608042983997 7.712962043513283 7.730126399884847 0.6020906538972857 -2.220697281626253 -0.11311131270539874
Ni 0.5198005911029111 6.010102318835484 10.231711175869005 0.08517781951992427 0.25653104658635173 0.20340999839165616
Ni 4.905665147047849 5.211279117351071 0.5479357524233794 -0.33561509450371235 0.19733782405564723 -2.1314044114966904
Ni 5.575728157004022 0.6320018385728201 7.568389583113037 -0.8124919960051105 0.7605120033933935 0.4749614296462401
Ni 2.0994323085874926 2.0015114533788334 10.148888936835844 -0.8833860519125109 -1.687084103775075 0.714039570863467
Ni 4.493654549150693 7.427950437687686 1.317959673625533 0.42173625177351237 -0.06643653435667914 0.5372304628887908
Ni 6.157034052674575 3.779781702709597 1.9478499074331044 -0.8742678916613265 0.14816367632384161 0.556935397516886
Ni 6.472536424093951 6.3362360973918 2.422078545303028 0.8592585627366879 0.758899664600951 -0.6407703298556706
Ni 5.337259915986737 3.1085904243514886 6.633787993723792 0.11717442703117883 0.8412803809917125 0.6204069357079702
Ni 2.672409198494162 8.690767139782835 0.8082373629551984 -0.8926607923462175 -0.994326582218836 -1.6873124177357972
Ni 5.445647065883273 8.430293078470882 5.655634326728439 0.22967124608103023 1.4053577888700184 -0.49131313153138617
Ni 5.166359358291887 7.800572543569294 9.953252699688472 0.7649697820544309 0.5705727857946625 -0.3327303167567496
Ni 2.3465872990083 0.517859602535028 12.149917894946858 -1.2051616694299696 -0.16510261817102534 0.2038933657859779
Ni 7.657686064732264 3.032638697782149 3.803118512801995 -0.3945869450522301 0.16997974375766853 0.3992573539447059
Ni 8.084877835029452 2.419456926528449 11.611072500135823 0.4049988844141735 -0.35133481923181425 0.21831262653510145
Ni 2.5345769951812516 5.198051775598295 11.817126415527737 -0.04057355054698819 -0.22592617721630123 -0.351148414252621
Ni 8.895359810000533 1.150778732491536 4.381729406387274 0.09467393193581759 -1.4361236092979655 -0.006279919471440797
Ni 0.6358920713310396 2.51325914342435 2.6427531680595395 0.12851067797960447 -0.7541626641365979 -0.08037499881464223
Ni 5.741473537122548 4.719014696295081 8.955954244224174 -1.501882915081962 -0.451491628659074 -1.2954091901633173
Ni 2.37921535352607 4.014314763690861 9.308453729021824 1.0462237853087593 1.8022826380268058 0.09106744553148187
Ni 3.379365667902253 0.22265138568835832 9.157685882616152 1.6303336863579083 0.7007441393061415 -1.0100069690685702
Ni 7.375380468488545 8.68417181473412 8.387438142316377 0.9727982212287569 0.36048331850030174 -0.689807952009612
Ni 2.2995577697666327 7.798288488023911 10.398952658234325 -0.8560315711589579 0.04349329529694445 -0.09644799311710486
Ni 4.147019308168957 2.44060049292245 8.808434526608139 0.4210597945317781 0.34269128462420334 -0.7115790251381164
Ni 3.2894160748178396 0.45072488074569445 6.6796764124841514 0.6287321677442139 0.7283996962398811 0.3064371873881755
P 2.1914091156298556 6.918349209479998 5.816256634469069 -0.013463324593757459 -0.6142625133731292 -0.41992388115512197
Ni 1.6419148851455907 2.035093490935639 7.6380817132800916 1.2238476758752472 0.019599776508798503 0.87396681548114
P 5.054669959414075 7.566131211726397 3.545912760690122 -1.039812225355461 0.6107802112514835 -0.015380082000496093
Ni 0.9961967885124889 8.840964430947855 5.989982449625678 -0.28776892155471084 -0.6451255215005729 0.0879407269770421
P 7.808644707745746 8.62845553608893 5.934024923346579 -0.14450191120153824 1.0715908033186383 0.24220820220577644
P 7.801654947402045 4.978993420259842 8.054795264101415 0.962377025895433 -0.9823573256721017 -0.2342580941207643
P 0.6614523957374967 3.4318989454460462 4.574842174938122 -0.44987183366746386 0.41406202305770623 -0.7560346843483302
Ni 2.9485414237256626 8.739521176825834 4.415763668596238 0.6755190461907656 -0.9788698813441333 0.43644141919417095
