# total energy = -340868.5489190305 ev
CRYSTAL
PRIMVEC
9.26342945723621 0.00000000000000 0.00000000000000

0.00000000000000 9.26342945723621 0.00000000000000

0.00000000000000 0.00000000000000 13.55796537246196

PRIMCOORD
 96 1
Ni 2.6443756668678438 4.930766096906848 3.836755061339869 -1.3715812066402056 0.1529490135276269 -0.7986401777236826
Ni 5.0109503435103 4.325845617274377 2.7478880082288613 -2.7876458404047666 0.7025793927426676 -0.9735327854019362
Ni 6.119328958384346 3.9175321674376167 13.192469724393288 0.9608317928955 0.6642074778326883 1.8829106333925185
Ni 8.447701251363144 0.12761856420484383 11.30547206148782 0.32889011707505295 0.07939952227525035 0.16982830578146882
Ni 6.783452016579973 5.885047560412081 6.565716030213348 0.9367811797041995 0.3895655805782388 2.200964836194332
Ni 0.9969951373832968 3.428914046412625 8.898621845637587 0.9635101110586116 0.3073715262769868 0.1755446394399557
Ni 0.6157253439160055 6.31150806883204 3.208587078787338 0.3586213255908985 -0.29464507984925387 0.07559069005212142
Ni 7.143882798822781 3.2518991702174564 6.190580479826095 0.07819238934102662 1.0950346361638754 0.9663336965503357
Ni 3.7111059022676374 0.7185021689669123 1.0832404459729603 -1.3619812216565963 -0.6751917447583339 0.45384521649291515
Ni 3.0813316410227505 6.5313570434900505 1.7772454753669946 0.24125869380831352 -0.2888097041143994 0.5288471239211022
Ni 6.588586511548754 5.790041826451244 2.337976616786383 1.0470079717729517 -0.6845598162367952 -0.6003896120457789
Ni 1.0488054991269558 8.564670576901706 2.2380538543947326 0.6165901330650413 0.949578588579184 0.2727014856986272
Ni 9.66648142019051 8.711866473219736 9.008630630175938 -0.928536166086588 0.4707602470806989 -0.32957274496437433
Ni 5.446748388965411 8.230270031830306 12.325872180094345 -0.06721352173201973 3.320976711128835 -1.187273219185323
Ni 8.063481981911734 7.007664066578815 11.80786304963966 0.027440612709455966 -0.3114320694996056 1.0399675199864025
Ni 5.312762143254652 0.9558099293889633 2.893825930807433 -0.45018293714997953 1.184641695099747 1.6568718418577528
Ni 6.85958814444894 1.407411385738886 12.682649465703557 -0.6254216153137423 0.018789621902677318 0.6739637858885038
Ni 0.8746206006740878 7.754370599643871 12.568505486192498 0.05323623361632122 -0.6141758671965939 0.9551779370438322
Ni 3.9822372231822007 4.554179893444491 5.571348001464148 0.9050931045722993 0.4841934897674693 0.6504361350802088
Ni 6.9113336621854105 4.561812959433544 9.4800687946678 0.009266512903590492 0.2733686869689808 -0.6453438081589661
Ni 7.717390988687195 1.488670190175749 9.370614889562392 -0.17403565899459705 0.11075489665808023 0.4987847573180829
Ni 7.526249382354519 3.701666467506903 2.93997726340945 1.628479149647673 -0.24158059592410652 -0.9899348809090435
Ni 0.06391766422872279 1.6502058755120486 7.645675369422568 0.7116425313862002 -0.1656348365254115 -0.7974119617435363
Ni 6.276316299787848 7.7175206767015725 3.1660429256709244 -0.05866023284536994 1.750133466827076 1.7455792717974905
P 7.706951103529837 4.801745049460812 12.271165143915276 1.1764334482573415 1.6263628746356185 -2.4383121107633814
P 4.500618743506741 9.280566943122597 7.272004367254816 0.49080276755387087 -0.2555311445669277 0.39560690167631224
P 5.858174351147223 5.780157747069787 4.740366491285002 -1.3176420334195889 0.14945128478701358 -1.7911335633885215
P 1.0231643259986796 6.5333486808537 1.0624709104704646 0.561408345686575 -0.18569484050008017 -1.658355625492131
P 6.608734470925199 2.0383343122539697 1.2650787899599978 -0.36018532764390876 0.6989867902954026 0.46567486213799153
P 0.5569683363165322 1.4375638490815656 9.960088600339589 0.690287719859508 0.22942467728786292 -0.38249324711248966
P 6.001053489272414 0.7738039173261952 10.684801898852204 -0.3492506830092759 0.3800288447323972 0.14608365386636132
P 2.07426715566603 3.3420879207871446 13.555226553808247 0.3357066257762541 -0.5028753824476888 -0.21343395828656145
Ni 5.759324293903063 6.121570708347151 11.590392923702508 -0.5186526998866035 -2.1088360392778713 -3.1272343177339303
Ni 2.380534665047194 8.278513973178594 6.46153672192125 1.168190491522259 0.333265106214297 -1.135193467770948
Ni 1.3206964212685852 0.7536077881158384 13.72581353620511 -0.6266534308383143 0.8904804968654471 -0.1648133690653807
Ni 9.287977686801291 4.8622259813085416 10.715700994620512 -1.8362227424176762 1.4612322314401351 -2.6939021335927023
Ni 6.508782065558834 6.654356861697149 0.011091104258123161 0.20142484964082727 -0.1714704693705821 2.6195180622541723
Ni 3.1329937878928353 0.4310079260097958 4.731960855267445 -0.19777491159306582 1.7410065648251436 -1.020287782169288
Ni 2.8231876484050957 1.0099083582434185 8.155631800527395 -1.6350390622533775 0.04440603691920094 -1.5495074589384605
Ni 6.971342159123623 1.0366426160643019 7.286810106781884 -0.6432635285911696 -0.7789902647032391 -1.4973348906999633
Ni 2.7310628410493494 5.301683081455007 8.305826269006415 -0.012705363381810377 -0.6676514705172308 -0.9082115955966229
Ni 2.2805637328216326 4.796066567117014 10.711429627232707 -0.20572476256776184 -0.79453206909258 -1.0918294989630164
Ni 4.9641885508977515 8.384385710058314 5.260449703626761 -0.7324237297976096 0.33032119309462465 -1.4830578119556588
Ni 3.1148745195984326 2.238646713889028 10.10110486277255 -0.38456889869459576 0.8335215629818999 0.8859885225323644
Ni 2.679224689016895 7.375987290839429 4.004182287900729 0.3256284156046456 0.3915497008878031 0.7962364533781964
Ni 7.773870118948429 3.0354684010812423 11.06701470945261 0.4258258484618537 -0.6233171673762297 1.1084696786228587
Ni 6.749436703094775 8.559399685460237 9.073478342736337 -2.5649898492993053 1.3681804084887725 0.33224103582515685
Ni 0.35050501742815926 7.487055811723834 5.811242111430063 -1.2064726749319092 0.3037154175816382 -0.626698939364269
Ni 4.58087709754698 7.0860512078401845 7.068716552032763 -0.16384843404895008 -1.2057594509149685 1.367835109334212
Ni 8.663140833532333 1.7256935633091302 5.264721071014567 0.38166560900487173 0.4292770402352478 -0.12770129470443167
Ni 7.8720809995503025 6.794438444083635 9.603988471434015 1.2384528273829316 -1.7876435479573924 -0.25737771085736316
Ni 3.491896104251913 1.6128649908010368 12.433901369727524 -0.39722129735128364 0.334122826228902 -0.11329617502269519
Ni 5.821472643078498 2.9506709665378033 4.134515036977894 -0.4805103844889273 -1.4763274352103606 2.4790224439985504
Ni 8.113856512067645 5.795442405907091 4.711908309215863 -0.42239419707248543 -0.5813791323815473 -1.1521434653617255
Ni 8.916152886152494 2.73888117563037 -0.04302121974072962 0.06817897096908258 -0.10940532460872125 0.6873669466682871
Ni 4.421490527877502 2.9148492842809235 0.6764776942509668 -0.28835230486200664 -0.04047713417843996 1.1501742574504967
P 1.030343483937413 6.85794851741003 9.812767647721982 0.4562144880560401 -1.4169370090671856 1.9973082690095085
P 3.492303695154241 3.2284441664743952 8.120665132822444 0.23942729702652957 0.17519625496160152 0.2642551547034868
P 6.667649883170805 1.0524182366703183 4.983935403772588 -1.2666796834391088 0.6947244154746229 -0.09113198022083015
P 4.787562738745714 5.372761376763266 0.7654992526912604 0.2850934316050768 -0.5582674860647482 0.5731181779243355
P 8.39898487510534 4.013797727823833 7.944493228720726 -0.4043867047514713 -0.15202470194114465 -0.6037878390940504
P 1.0846086545246387 0.5172115491662667 5.620793409631345 0.25829559468594226 0.21095824305255928 0.8074482629336158
P 3.4615305820284705 2.7170287452078252 4.54704334728191 1.9021627967539112 0.14648140352541225 -1.0692099617912878
P 2.9145528545337758 8.704779949576986 12.984613185693322 1.519358703269222 -0.3764688952952807 1.1409884771861705
Ni 4.123300729106113 -0.13843547094685538 9.63315160049559 1.2149812266235527 -0.5436204255755348 0.8726504106625615
Ni 3.8222114768704345 4.352190811052129 12.35100849630951 -0.846932179960851 0.6443045682611742 1.1142610884936552
Ni 2.5441916757615197 7.61205653072418 8.457486212047897 0.22505225925178016 0.5100235634566957 1.434097580006872
Ni 5.320265521229328 2.8955442969979295 11.472289754381105 0.280391141033401 -3.2375117605349595 -1.7400141190048874
Ni 2.6376411535498323 3.0295768598566815 2.3718844744882404 3.0973359875126008 -0.5355499898625745 -1.6637593130062054
Ni 7.179472895339702 8.290083996746953 5.578913444417133 1.514175873516702 -0.7993803983238168 -0.3885726205373501
Ni 7.733212926441203 0.9417202529698492 2.965669385400517 0.9433727168787882 -0.3235941587834362 0.09913788124444217
Ni 3.8407661263559607 6.729390641443911 12.965766738175446 -1.3418214588792698 0.041794053217650604 -0.2614318263220788
Ni 1.038550882561565 4.453236301111101 1.6991380896794954 -0.7451622604102005 0.09350433710774864 -0.2973840760469717
Ni 0.6545891364529887 4.55203077777767 6.109978452547756 -1.0664827926681117 -1.1338909469094407 0.16446575591797483
Ni 5.167242927693926 4.605499293419436 7.524278124535987 -0.07294065402378405 -0.7139968905509897 1.8511186856929023
Ni 2.216507117148934 2.7371211240066806 6.36512572569034 -0.022831910292851 -0.34947359765335945 0.7588829524304027
Ni 4.570029621487294 4.387067623489975 10.103979304976923 -0.8009973651019495 1.3961843499008664 -2.1746128285633644
Ni 4.862994845965205 1.9346765350482586 6.190255333447193 -0.5285357633282703 0.051692800388601294 0.3534855470262299
Ni 5.774395893859603 8.87202190754588 1.1489626262874448 1.5894207501936304 -0.6564489169331921 -1.9615645357509959
Ni 3.323709276463987 6.6927259870935805 10.437979669889673 1.6486594812502897 1.205078365687544 0.6702793950583811
Ni 1.4349886156532201 2.3025736415473492 4.04294510905509 -1.9371863640169478 -0.6545843529206274 3.080054574724334
Ni 1.0887030904071167 2.907077266847895 11.495378852655032 0.20513777971604027 -1.1779660828517844 0.7361510580505257
Ni 5.302488999830064 2.092562429122802 8.905305410092808 0.0998855580437441 0.12161343663913893 -0.20710004564873366
Ni 8.408368729288483 7.3890394631435266 1.5228031492168468 -1.8512330997835795 1.0075739341470453 -0.322601970073496
Ni 8.114078834378006 4.951664394080761 0.6768371153193834 1.154101874639677 0.47076281818386023 1.8068656294117975
Ni 1.9856531881280646 0.07413059536092088 11.294774652987625 -0.7829729035000709 0.9890661051508449 -3.2375667821426117
Ni 0.30385716499966947 6.076096532448775 7.888187324592981 -0.46874527353319917 0.10168661580822488 0.22799488681987187
Ni 0.9825534506394448 5.268325471471291 12.618398318009293 0.544150844157708 -0.2466693233009236 3.029349592170299
P 8.62291902221623 7.962353120986375 3.8075919322782936 -0.4079093731927491 0.34785945908870414 -0.5849966745294763
P 0.26363350099764626 4.209543258666896 3.9895127207887566 -0.43669107331113177 0.18133399242822318 -0.9120633652425453
P 7.838871604440162 7.666812663080119 7.529063612266502 1.5454870249251578 -0.0877448089161521 -0.6865303096996047
P 2.104030554965579 6.051122326251581 5.907965285238438 1.690177397988418 0.684429204196202 0.06460359491299843
P 1.021598806396556 1.6350416412595241 2.1668884828482486 -1.4007796825810328 -1.7418342029327616 -2.2465576943327825
P 7.897694382389783 8.990899499581706 13.454383006514519 0.6409261387072446 -1.9451094755187666 -0.32517692988952385
P 4.073259682415741 8.452981406234212 2.6518836765573193 -0.30709256158398723 -0.8059187136629669 0.5893937751559074
P 5.3829882030398615 6.471468971136617 9.167950503152309 -0.12612058048087313 -0.5509935781111543 0.5110041822024103
