# total energy = -340871.7707592614 ev
CRYSTAL
PRIMVEC
9.16852605151496 0.00000000000000 0.00000000000000
0.00000000000000 9.16852605151496 0.00000000000000
0.00000000000000 0.00000000000000 13.41906464520943
PRIMCOORD
 96 1
Ni 8.79130523838339 0.9098340833704678 12.794675142145753 -0.69902947060788 -2.582488520304701 -0.7558133123661435
Ni 8.367884375294295 6.005155251002142 0.11056875493718911 0.07805663509411073 1.2554779011860184 -1.1723739334759875
Ni 3.454434671667359 4.326444001439583 9.47710730825302 -1.0322197577201837 -0.9489548389522559 -1.0620774645115645
Ni 9.422494066880265 8.601956841507638 5.569757542530575 1.0423915560468628 -0.24524750325273245 1.5105282494617855
Ni 7.290289189278365 6.1644583885053486 2.058081929967676 -0.8842571416635545 -0.42076360344759794 0.3754129432269405
Ni 7.844618265160023 1.7201071439986442 1.6589851660898602 -0.10159251343252182 0.13627849485048144 -0.11932875437002029
Ni 4.601408093164541 2.6538756642296657 7.812136928455988 0.7901054007797941 1.212808901562582 1.7741390857130543
Ni 2.3783247868471418 2.410157908770085 8.670500741132038 -0.26346993979803013 -0.44031504321696424 0.12694744725754267
Ni 7.230968826708825 6.252219518415028 5.623903189082456 -0.03657419957960798 1.8647992685037884 1.0856493382942334
Ni 3.3775840875780427 3.1107616468518096 5.580196826119706 -2.0180303320482085 2.2317923630981498 -0.32488793789419534
Ni 2.517677211993112 7.9223123536320905 6.074058556841803 0.3815938752266718 -0.8906476185709307 0.1282633378554888
Ni 1.590785086186689 2.8357333754455554 2.41537755056465 0.8323856496052439 -0.5695196619397997 -1.2587534866134968
Ni 6.18671956938925 1.4478477674140284 3.4074358910541105 -0.2788993869792229 -1.3604452446280442 0.1498876009934838
Ni 4.101512555548006 7.838081106193705 4.10882353810024 0.5225674615599775 -0.48347332377199315 1.983151260782836
Ni 0.4718820235833091 1.224584993236154 9.969828474353223 -0.21842318397103674 1.1547053125516307 -0.1381818825207814
Ni 5.30948417985433 5.813716430221311 9.157665780537165 0.3484053042898451 0.9900343826013853 -0.33257502212580786
Ni 0.8102886471222055 6.377415739572224 4.760989953855091 1.3636606662415485 -1.537917954328648 1.5553256082821343
Ni 5.702584727793895 7.6798048435912385 0.027269029730189052 0.2868163278334544 -0.06112643499767538 0.28436246697632317
Ni 1.4155562191961126 6.4986053149113525 12.26801759428127 -0.47108394896870487 -0.3479720734071684 0.4321669601885331
Ni 7.244510739462335 2.088626874001744 9.13395413885597 -0.19525831581879918 -2.0964137543541184 1.6436468585270465
Ni 0.9799228796089285 5.713917025805634 9.603809918215497 0.23431748660378998 -1.189326759280242 0.7948814820121988
Ni 3.2214257544583527 5.685347899102902 5.337808506915548 -0.3414072757054572 0.2676420688978487 1.3231377664268373
Ni 4.476376905473535 1.8321923731196048 2.0841278783428763 -0.7489029583995555 0.6881894425695826 -0.28702330163793793
Ni 5.083003253085744 6.77323933970393 6.667543656282306 0.1642598105547558 0.7881588185763846 -0.2640412389204678
P 5.796562118263412 2.9762960460102543 0.4656996865692998 0.20941301005262644 -0.009774819998576713 0.8946963347190074
P 1.8591295022122334 4.162767477082332 4.071880796693525 -1.4768313714299726 0.004864012960520655 2.042715236389398
P 2.150752805496519 7.30544476259018 10.416750103027827 0.5475904659668763 0.5559969448630167 0.261366263191466
P 0.15154473088707845 8.028493052073795 0.30719421081934745 -0.027278633210294955 -1.1820703348281447 -0.7668790832620018
P 6.131057448653597 8.236481062103161 3.3510622927086597 1.0476155234499636 -0.07631111315791374 -0.46250212083696474
P 7.707090376668047 0.6623333941247675 10.781157749165017 0.3313565763376745 -1.2115004671638039 -1.5089297946264142
P 8.029144017412657 6.247736109250189 10.61211855400917 0.3539984821069065 -0.7268763176168191 0.7421820947359541
P 2.6645203227989445 0.9473837811917271 3.0414310877052344 -0.014747076402187505 -0.8474309739741406 -0.5378416141102285
Ni 8.872465029645456 0.427422007791623 7.82958096583231 -1.5202632173613624 -0.44650523118807617 0.26656297690105707
Ni 1.5219477937335053 8.259237343385633 8.217727759228396 -0.7902630094035809 -0.8229296463986666 -0.6081450876214817
Ni 7.728553895798695 8.1124125696316 12.089489891672066 -1.5072768324040235 -1.5663538410718378 2.030466500929032
Ni 6.074075060188421 6.344280686971557 11.525701647619929 -0.3365098384038398 -0.4251843582231129 -0.5561465830670035
Ni 2.7401606614695315 1.4548708582530188 0.3990619234793976 -1.2496895766390155 -0.6819048951124514 1.2059785089043102
Ni 8.233308752141946 6.453386145175192 8.457754266160851 -1.6219901994892194 -0.15758316986552862 -0.9973437717786049
Ni 7.586799316867065 2.109411922215831 6.913032770945664 -1.088723606344183 1.396677487487201 -3.1273590162372527
Ni 4.484793612249245 2.2263197959599106 12.27365348715167 -0.15168248811037746 0.7236482975978247 -0.9561611268927082
Ni 6.420003542375239 3.885199524001927 2.591100601101208 -0.7652004100079983 -0.010240703891401717 -1.1744822380682418
Ni 4.413838390313284 8.560377576553563 1.9970112958039288 -0.05039259351993902 1.8074942641347325 -1.2138738524919868
Ni 8.356451223497661 7.650969829637421 3.717873009484099 -1.2302576931666491 1.410330045273629 -0.8971692217395323
Ni 0.6322734651107814 6.18053998293301 2.3903245535443616 0.5883740756421415 -0.6273561133322938 -1.2906539348665191
Ni 6.145818775351736 0.8689717971417318 0.07332253532320215 -0.11427987909220318 -0.2356187219137168 1.6538199424053064
Ni 7.793100318130929 3.7710605450794854 0.19193667173717188 0.8754331156140213 -0.8042564954691955 0.9214934003071936
Ni 8.963691862345133 4.378704599066534 11.578599457796892 -0.3157875182548239 0.8513516491847853 -0.06179877847435163
Ni 6.264166107662031 0.32595759907260274 7.6213444887510695 -1.9912898307295706 1.6083859784422236 1.656346565481902
Ni 4.895341864975492 6.330115314456883 1.8004362668142175 -1.127025330137859 -0.2283486706148648 0.9296741363457731
Ni 2.9317095045611556 6.320763418039428 8.175672647780138 0.5637501064458742 1.3163922201728877 0.7170498184447006
Ni 0.1749418921299234 2.9898654643414626 8.222142404448988 0.08788544825907445 0.6416817859263464 0.13823484724590387
Ni 7.159399313537601 2.2126495238438078 11.91784683516077 -1.321729573225401 3.196359711776682 -0.49343197764660174
Ni 0.4278116701423503 2.681069512047479 5.616307982227339 1.6694429936545443 -0.10155574665731543 -0.3435217509452987
Ni 1.6801415396028758 9.036948384281859 12.134175453200879 0.22457557672567774 -2.230975523623809 0.2484834936915269
Ni 7.197237819924693 9.193005863616653 5.357601520627313 -1.2992007959952656 -0.03526190852608766 -1.4564409806990788
Ni 3.5686103246933976 5.019722087327635 3.241777131397396 -0.01812062086011073 -0.3735931164093824 -2.385543560812098
P 4.078407870281354 0.06141537073756685 12.970921715511171 -0.04143024212032865 0.22023658303069168 1.1904917261226207
P 0.600109359402868 2.305526691205389 0.2663630975786696 1.7299251102000015 3.5503093429235246 2.28595779339696
P 1.1867648239008608 3.3299169214267237 10.35586742364502 0.04327140909412548 1.257038560804919 -1.369768578911499
P 1.4832749514895616 1.200288399602572 6.971687498534902 0.44653994108075357 -0.2246066870739293 -0.16319151719124153
P 7.346611443878778 3.9533583455385504 8.090246741417053 -0.4444468059971507 1.3710708426626903 -1.0152265655962966
P 2.6848652817698575 5.71209248915164 1.1905862654957577 0.4436826741376165 0.2683210972427444 -0.012328439658365864
P 4.217815306582721 4.891225196846632 7.294040033223835 -0.5121388100274857 -1.4827629064230594 0.5995774005571287
P 7.755610215728016 1.973763581533245 4.559287885182399 1.7863608245902267 0.886531539520028 1.3042512139349796
Ni 5.818914984406308 4.234401169934853 6.0667457405843885 1.4464882403617412 0.007106014917161956 1.2069143904550181
Ni 0.4742823436637891 0.9210609433343628 3.8621810228787297 -0.3487326057222769 0.9747255201584569 0.3583752710183635
Ni 2.5525634530405763 0.14820738745967316 9.828538739684696 1.1838670217172513 0.581768654510482 3.1703730579049334
Ni 5.550680590691558 0.22765541493630795 11.329474105761808 -0.8259146971689195 -0.4814642637617643 -1.2258598212092695
Ni 7.37143981201453 8.434081132288432 1.3514471355492828 1.084916573893267 0.44644943824947625 1.1126796029391481
Ni 8.824596155924349 4.802180473311028 6.118381961597587 0.28564107657843063 -0.7677635427494841 1.6983889872649331
Ni 1.965163504239547 4.312581190279592 7.104669631885924 -0.42002184018556693 0.2898682272859008 0.1498176669874968
Ni 0.7603550213685388 0.37478733430797384 1.6573614201530649 -0.4227343540207236 0.9376728382805336 -0.13208708247695317
Ni 2.289417591200029 7.9631489679883085 0.8941861602178507 0.796707479477344 -1.601790584612893 -0.20360797333507516
Ni 5.221869746359042 1.9956488528552683 5.778208563117863 2.0865039514395742 -3.0454984340160194 -1.32171106128264
Ni 3.610409634269059 0.49071325892822043 7.976009659267488 0.7502970105336045 -0.6016376255202671 -1.4663021897638746
Ni 3.8175541399156736 7.317262992474591 12.284388914127353 -1.3425459957501202 -1.5716302589794289 -1.7201307498173988
Ni 2.949038018511145 0.910944391856893 5.255026803421867 -0.39619979806530475 -0.8268279530118082 -0.1889377729174101
Ni 1.120723931847014 4.484775275197446 0.3441076129431838 -0.3790261144994956 -0.8353771281334 0.4212510846069777
Ni 3.625198466544896 3.539527760540294 0.6944058145736864 -0.1136468734938946 2.6660182626982407 0.4654894856000629
Ni 8.6180109303576 3.4276075648855238 3.141536720885954 0.6380886692584495 0.6074133516617797 0.8204536740543483
Ni 5.827368365285616 5.120309984970667 0.1744119513329343 0.22542146966574078 -0.17377932000941684 -0.6034857344725995
Ni 6.670854410984603 3.9922237268263827 10.20656714789813 -0.6092141523159443 1.7930138111303702 0.9189451799640431
Ni 1.7974528284865317 8.013530017805868 3.4911839571775944 0.6016782489502154 1.2172311989999938 -0.4247758099307845
Ni 6.729569650844779 8.12831996206717 9.668596555926296 1.0961582082453574 -0.5589531992778631 -0.6153547179960435
Ni 5.558061254040628 5.649003862437421 4.296569276648767 -0.4459673564067351 0.6034032020611222 -1.8909306754835176
Ni 0.00597879573904118 8.167542915865083 10.452445008059625 1.894807127719788 -1.1690613241629866 -1.743528302805733
Ni 2.730258653498109 4.283021862779717 11.928232941299685 -1.5654249014996653 -0.07663584348718414 0.29055034095459
Ni 2.164019662473045 1.9165428113946836 11.551801690297935 0.7420630526595866 1.3106131515972652 0.14650222946101865
P 7.269394118753484 7.88428130820111 7.059501805894799 1.497470130726247 -1.9126269295100289 0.652387859489941
P 4.871283653015296 3.3893289692552573 3.996975773800075 0.5082469311722473 -0.441802169285452 0.4229801514829425
P 0.9057476713770761 6.3683113933540545 7.387463644729025 0.461750844493237 -1.004789943644005 -1.9091351143066864
P 4.2016878695255615 1.991247960423525 10.09551062738309 -0.404344024438994 -0.2823158688599396 -1.1379908280104274
P 4.702573607939239 8.93100606751354 6.306503609707991 -0.9642719289253007 0.014918568983045274 -2.1648323521378328
P 4.643812525449567 8.082238950896459 9.544698598036465 -0.8586810929666631 -0.13729768014361515 -0.3328817547329493
P 4.511684898712376 4.8239465537963575 11.157375373513307 3.3422135090204246 1.365949719386041 0.6077504232862242
P 8.160308948930405 5.468558104210049 3.900466036477126 -0.23366571195240401 -1.299863112169613 -0.5043604516336475
