# total energy = -340859.43715149624 ev
CRYSTAL
PRIMVEC
9.32791178666258 0.00000000000000 0.00000000000000

0.00000000000000 9.32791178666258 0.00000000000000

0.00000000000000 0.00000000000000 13.65234177955647

PRIMCOORD
 96 1
Ni 6.00983375580355 1.6056228132274084 4.454117137133363 -2.2272649075414415 0.08760288402164913 -0.6484160193263866
Ni 2.2492767220592333 1.6726345327330505 11.409644456548332 -1.9995942368302078 1.0543860094045776 -0.3404310278351169
Ni 5.961645762628974 3.1649138877598664 10.524603774860847 0.3095667341560927 -0.7233878448475864 -0.6215765305360391
Ni 6.421064082380073 4.847118858161735 12.117791548657161 -1.5557315854713012 0.34819961603694227 1.4633647044021056
Ni 2.5021377594143206 9.0881379810342 10.299422383449668 -0.33466224367213976 0.582980415430396 1.8875393904137814
Ni 0.8350570654610113 1.500739771172642 2.1729613431667696 -0.06636942856416957 1.472505233250793 0.41745819322344885
Ni 4.571451076069551 6.251258773098236 7.969582351392337 -0.561584209142807 1.0080058794781415 0.25637035263877134
Ni 1.6281870322535985 8.854007390890601 3.207044334908973 -1.9920092253940982 -0.973578293927891 -0.28940517160655316
Ni 6.645139183433043 0.6993284841438205 10.718795044374254 -0.8839555512627357 0.4484651831279244 2.2207882986781624
Ni 5.222791184354697 4.787951912612697 2.1010953782782296 0.3110857419037804 0.06342757232702624 0.9513482788850971
Ni 5.917506083244134 7.513353244739649 10.679749337709628 -0.3319001075459703 -0.46971895030037814 1.8591708665734175
Ni 9.517548408016694 0.8907120521578953 12.589615991312284 0.319706650803572 -0.018608102019490532 -0.4442532019291059
Ni 1.088399423073127 7.209944252484635 9.496036377459356 1.1100334235655527 1.3524144039037675 -0.8118492202147889
Ni 3.71098850959997 6.925424281944393 11.358489254579945 0.38647665724026986 0.4102092249705193 -2.0788562050863293
Ni 1.8862250607453273 3.7951076196364237 8.803139488610517 0.4453155817553492 0.43213456428870095 -0.5815583382718887
Ni 3.5125371826953855 9.092876560308818 12.773554020001553 0.11528106666320792 -0.6774463451204655 -0.7777008564678541
Ni 2.8275606238900086 4.978315939849772 1.7825863621457465 -0.6768642473647505 1.2581194525739234 -0.28884569955865735
Ni 8.518678283915609 1.4490164993660182 7.448936550340698 2.009834169390661 -1.633607472013174 1.3998458579128537
Ni 8.510861493694879 0.8365187492648162 9.77593716599804 3.5390101158606213 0.18560176656564165 -0.3724649163422102
Ni 7.524192278434744 3.9012126181576763 8.307068071611997 0.21391501168803803 -0.46153461471737284 0.22654915551228083
Ni 1.783468782616965 7.2778794352741105 12.590380880092832 -1.067131481995704 1.9857053946632577 -0.4397509431833781
Ni 2.099050699977055 9.1695426686909 1.0217001886180752 -3.29352144313136 -0.21050315779301168 -0.923097768679836
Ni 3.889562056122244 4.989378843431856 5.904405963690441 0.503877598459958 0.6885900204421108 -0.7704899405417117
Ni 6.382642413025431 8.216920332077146 1.35486522001883 0.12918662100070652 0.29801296788022225 1.5308484490763765
P 7.2055787896883325 6.123270493123721 7.7111432226864185 -0.27951670884824764 0.5992254165343487 2.16778989210426
P 2.2586792573128087 3.617177699039246 6.538802852695234 -0.5639971894596738 1.1942468222896787 -0.22973475232911403
P 5.742225289643003 3.7283850654014765 4.97982799437815 -3.5858630716584177 -2.555073875737174 -1.9878309256466926
P 7.560207346504243 4.3078349562269915 2.0647668923669444 -0.15609604379704084 -2.36076224010236 0.7209041591937843
P 2.186341300079199 1.4451827275513163 13.481906326173458 0.7502589582068175 2.5015548207731113 -0.41653336741633423
P 2.259817262571674 1.652374307960465 8.825706506010295 -0.3500130150965972 -0.8184052761657519 0.820403280432387
P 8.542772280502897 5.351348466958644 4.979473533723749 1.714836848408311 -1.3111137453827677 -3.4335591479139578
P 2.760408985704998 5.767643849728314 9.314869671412783 1.1948147789780068 0.34724599387442134 0.43432128752737453
Ni 8.539992562739439 2.5376677760620088 0.8519377877312453 -0.5202064175269686 0.19024055088923364 0.250577142995762
Ni 0.8605763669954679 5.652154971777401 0.19979547901772013 -0.24070436396674025 -0.33989443860535656 0.015148425605664236
Ni 2.464695520815261 6.753762718182932 3.6388408417703015 1.594810296640318 0.21125212014389425 -0.4708913733419245
Ni 5.066147558845474 4.012802428910182 8.074090411386395 -0.08221025225116808 -1.2684704567909446 -0.4724535756227218
Ni 5.73933363693605 1.4998629474485983 6.7309046699300685 -0.46441990668496785 -1.9428163086092154 2.187312021297588
Ni 8.714750993270927 6.936356594759066 6.115280203740574 -0.818937494520138 -0.21248907787478888 -0.30327498761010996
Ni 5.842985394612372 7.156765826412577 6.173930382967144 0.8804267121738708 -0.20110808973135688 -0.532146106387348
Ni 2.140988992139829 1.5642628516060253 4.202409029696274 -0.6274268186692291 0.2681496046618866 0.8303202824357829
Ni 9.429119802655686 3.750585495861308 6.358018591038935 0.7427587931750305 0.17832914416362836 1.1167131495785736
Ni 3.768681645059658 2.9312870048619937 1.0494815088023253 0.32781693861553224 -0.8984845981168462 -0.260732486262209
Ni 1.3913886592900357 5.26754650592876 4.824655380584691 0.05877233294320201 -1.8469540127922512 1.2119033590291772
Ni 8.70942475554296 3.4553477544814246 3.9859380424713944 0.3307515957638239 -0.9093665351366725 -1.251922322624276
Ni 3.4316268743724536 8.800297273836941 4.440124336405299 1.6335467939785673 0.3750308772971735 1.9109153461355608
Ni 0.14210887309640285 5.480614670871393 2.800491023388147 -0.44175280410475537 -0.6597538129367089 0.30088283322884957
Ni 1.5113176233329146 3.563010514299649 0.1285927286693879 0.4162379476631025 -2.3737794782976342 0.43521937386161175
Ni 3.2835462720405957 3.647735938613367 10.808504372047082 1.2105674138265732 0.30412782252870846 -1.0782453325206787
Ni 3.584156890708236 3.2221312997097002 3.4520633966810435 0.8494081523051693 0.6022194661656661 0.5380622147614669
Ni 2.1032482603581157 1.391248740610667 6.6695783127627735 -0.9921336883325753 -0.8138127716990629 0.4363961677785323
Ni 0.6878896657098326 8.75087799628392 5.5596565984291555 0.7186619001268268 1.7937643161431494 -1.3830866361766438
Ni 4.017923452575076 8.85360629067641 1.9618137952962698 1.5636775797912554 -1.908330873237836 0.5911490672841173
Ni 2.7782812650163575 5.178903358592718 12.443358995768198 0.545020648357171 -0.7398657878979515 1.2255366335418958
Ni 6.941356355568507 6.462218829938383 3.020839623613931 -0.2653478735470334 -0.7532062137605996 2.1406716957312293
Ni 3.9806397884792997 2.5748674889501633 5.977786781480946 0.39808853044758535 0.29494744158102104 -1.4379046124577881
Ni 4.44581342990843 1.670442473422941 11.883926804004364 1.7692465335074432 1.0912417447803464 -0.42815655347755943
P 0.45389806145440587 8.081143245617774 7.513102323907981 3.8856123055034564 0.09394450996896078 1.880214317507278
P 6.156207350247111 7.57067326372102 13.028730245104596 -0.533075817290469 -0.46582372901103003 -0.7864863159699681
P 4.4113467952239445 3.808157368465543 12.840286834939652 0.41375143379582296 0.13255476614199105 -0.8445312838288423
P 0.49878304100468424 8.519592419287486 11.024593847672886 -0.1297111260456089 1.0782072801938916 0.8441607878633011
P 4.742795490824443 6.487208306073629 4.200962270551602 -0.31299787132482865 -0.6687465033536225 -0.4280879050231531
P 4.472957653705955 1.2515072915691825 2.917574041492667 0.3720669095728431 1.279250321015268 0.6797719079298487
P 4.752645765851998 -0.03211786645348376 10.433297508660822 -3.547287268267749 -0.39571385956782174 2.006442627210609
P 4.279338185195568 8.520609161690897 6.616143369111873 -0.5380912682271894 0.4104748199270801 0.04957575404559849
Ni 8.87492056950024 3.4272800674000665 12.347123860889612 1.9834690491335711 1.415256536040969 -1.869330837825555
Ni 5.211588362093243 5.377615867032126 10.019986124926488 -0.4166531808236502 -0.23702408690167562 0.6195949813296362
Ni 0.9071972709611138 5.391486472113542 10.957424486455153 0.08934712040626548 -1.0966181786009113 0.34137487980562503
Ni 2.3859959276263543 6.974638345434338 6.209999552925999 0.2573417154131052 0.9781247756479929 0.5147880747248746
Ni 4.4194714065392855 1.594065530311555 8.785364219583519 -0.3776451749915689 0.4548294347830553 0.6963357258258007
Ni 7.524882543919629 2.52287370769676 5.965691278045121 -0.5135007233720189 1.1520745597970028 -2.5269501209177645
Ni 7.290444132681418 9.336586916033196 5.728372407594307 1.0584450099652998 -0.12853818878343024 -1.6607133270910301
Ni 6.287441743582979 3.20962256977414 0.3092706521293667 -0.38946942132000667 0.025676321720181586 0.43294986110114475
Ni 3.951322161195581 6.936505841350392 0.07213740712651505 2.2647767884439705 -0.5273242595186726 -0.2658906334243808
Ni 5.11276846281112 0.9049240588169706 0.4099589321766598 0.5689110818215234 0.5017988615540584 0.8702855099748108
Ni 8.424139896222169 7.822526886584654 12.476807022466879 -0.07660730424209387 -1.3290783002809885 0.4611381506099026
Ni 7.877729469551579 5.09427121339858 10.44801415535682 0.25657526956072585 0.5894189719668882 -0.9354874005934405
Ni 8.350374768458996 8.233617294481808 3.4727191249206446 0.4687146774055798 1.1596024927429318 0.3805433224749704
Ni 7.974935640064984 7.749386728922664 9.996777347184006 1.4725260591863993 -0.4542013142807532 -0.609811419580311
Ni 3.151901450578578 8.29210330245792 8.46529837494526 0.5818002790793658 -0.8552188454496755 -2.57603659403177
Ni 5.841632847378474 8.307102584886243 4.000491450708129 0.10267031987773287 1.2444949198119535 -0.6601903862534952
Ni 7.504976779801444 1.4591932513121004 2.897149645469622 1.7602206758597494 -0.9131879657652918 -1.0699039025345187
Ni 7.0550542744235 5.922785681412312 0.9413504878038139 0.02012505288464921 0.5694654116630966 -4.100685084945021
Ni 5.643787834751154 8.826471394790843 8.67678732439342 0.8783577454599841 -0.5982016032555246 -2.6045339301405144
Ni 7.803143485536112 8.302765105825813 7.670581730328633 -2.1348098376338136 0.5355746724529228 1.89585433803738
Ni 7.403619688466769 0.3314011232495137 -0.16251741166911926 -1.2121152179296675 -0.49944167417579144 0.7193573835319547
Ni 9.125486940513682 7.1549095719329525 1.3758418284297833 -0.5369239873919656 2.294365814954997 -0.11365227281053329
Ni 0.15719210673234713 5.522133206996061 8.454526502216263 -1.4062116522298813 -1.0429685115962555 -1.09596743239079
Ni 6.951383860923263 4.768027492670596 6.094118902672855 0.24858839470050736 1.9807624488356852 1.8902439338291381
P 8.928593374906068 9.269295359168815 1.351617241075085 -0.5628893011074758 0.550715127638787 0.6487170955065731
P -0.017675460369048084 3.465309964452475 9.704890191779405 -1.104770889615033 0.25350280128298924 0.5898473177535583
P 2.5399437865797396 7.220083692782886 1.4761457985044106 -1.844222472793701 -2.5777859726227086 1.2203599744369629
P 8.43574381869781 5.489326940640083 12.62481206871188 0.03642070472087921 1.523925496704298 0.016324191081320272
P 1.4503597186879578 3.6839189090981086 2.829284422019831 0.3970148377674324 -0.9971884771476633 -0.039108021745055226
P 9.122007629353378 1.2956376430420655 4.76293351995038 -0.6463722494234804 -0.18713954336640673 -0.16801850626623965
P 7.436836382948894 2.0698823192846634 12.418743568902462 -2.1344599104935624 -0.6413963934754437 -0.9286953173722716
P 6.755964105404999 1.7017656017776108 8.69190040734763 -0.41269753861001185 0.845712448621137 0.05386024035356531
