# total energy = -340872.26875588595 ev
CRYSTAL
PRIMVEC
9.19700543371717 0.00000000000000 0.00000000000000

0.00000000000000 9.19700543371717 0.00000000000000

0.00000000000000 0.00000000000000 13.46074709980091

PRIMCOORD
 96 1
Ni 2.5907043830877954 6.906435841717779 10.489044588750073 -0.9283078521258658 -0.3257649411825099 -1.4655992501595794
Ni 2.7845312668024294 4.711414211562592 3.342074872620397 -1.0738312626133828 -0.45880410316008724 -2.1248462986631984
Ni 5.596552382023509 4.010602418487616 4.396885832148273 0.9436691650732846 0.034283346662902246 -1.5865868802892609
Ni 7.148620578555619 0.796384311580189 0.24672989678715218 0.7928279419172798 -0.5488341085659902 1.8482781309203138
Ni 6.281214234040221 6.5303243157623845 5.478039773551537 -0.942322678347719 -0.5000461405290098 0.8621711083977927
Ni 5.73852655065472 8.229765322953726 13.003767913721212 -0.5333398695851331 0.2171299190809099 -0.15479557981806244
Ni 0.38750293654466944 6.985686435168266 1.9588213845739613 2.341479480613348 1.6142846033148457 0.6987497345839321
Ni 3.5637383318481546 4.145550075177762 5.40870263196136 -0.3364080227186529 0.4662705867404615 2.7933392912451183
Ni 7.799060374377686 7.054719155887699 3.8386414145372303 0.4527080175646785 0.350228473541513 -1.5299027973336556
Ni 3.8899561048188813 2.698612844612056 7.621999631066933 -0.41483489666798884 -0.40382414737978195 -0.4513365911384485
Ni 2.8833530872301276 3.3603097747480835 1.2021295078566723 1.1436621673635916 0.49419662372676826 0.44673097404563705
Ni 4.756176035668838 9.257797362561702 1.8970092326044388 1.1129056029070252 -0.6412223297914247 -0.30906048394363544
Ni 7.21161086688594 7.561612095196455 7.682734813732398 0.6427613921437705 -0.8137531221057211 -0.39676055566478124
Ni 0.4449170806474142 9.183209650726557 0.008236837819920585 0.3668714814148327 -0.9915431059364278 0.40002894200340783
Ni 6.376329661389058 2.4583502818523364 11.931995837280098 -1.434813118016658 0.3220543251001421 -0.505577097649568
Ni 0.29895417087897563 4.872196255742864 2.9964698127756275 1.4055724759839856 0.008830968028068664 -0.09672670069978825
Ni 6.365799090482617 1.659434034752022 8.167065659986411 1.9669646237206444 -0.3814925737621172 -1.0807040784738162
Ni 5.179652138190324 6.534407786052743 9.019480886093511 -0.18730692218220646 -1.9278352618193506 -0.9788583113799078
Ni 0.087320045776523 0.6606622670557003 5.746150867931088 -0.26280710940305063 -0.5929850920515916 0.1430068147132505
Ni 7.67333731386148 8.60438693407345 9.707715774614288 -1.3576406852997134 1.1630331156910356 -0.13280879113432612
Ni 6.3255254048937015 6.694444872815179 11.010446723396822 1.4893714128785123 0.2653566152977817 0.7263525839028652
Ni 0.8902664205372762 2.056597505515142 1.118668525444641 0.3249655852096661 -0.9276812742854604 0.7492405442446323
Ni 8.629577531202484 1.8665229999051614 12.320648399469576 1.6960117452820083 -0.4224340491714854 -1.1660554474571272
Ni 8.93718056573248 0.29460674654056956 8.089787824142416 0.1039098487117888 1.1167370608379734 -0.6055744986808281
P 5.78003263493487 4.601675546011797 11.13989824980427 0.26880112220295643 -1.284817273580084 0.04309426008631288
P 5.603229407768554 7.352554970939405 2.9441342549213863 0.7833832515646121 0.2468657555824458 0.6389263346683963
P 8.754436073233794 9.02455211473789 1.9913695858297664 -0.17859191090671178 -0.09611452103708608 -0.8521011257563001
P 1.8413232057709694 1.525636003706684 12.1512184113388 -1.1880404363686505 -0.06670752862987867 0.15101554395033992
P 2.744947356600399 2.8605904994629285 9.393797156641975 -0.6803095256008735 -1.112965252500367 0.2325917621619349
P 7.955887706339818 4.511149424237033 4.43880210285849 -2.806932456548521 0.09245789812110528 0.025071598256647145
P 4.680769790374589 8.067796865108011 10.550021652651205 -0.4555915097600605 0.5249663008094572 -0.3281622377700929
P 7.693892620390647 1.5672708460590516 10.284845322617722 -0.7748263631335366 -1.0987059143678755 -0.08629522095381913
Ni 3.041532378950554 1.3240376506331477 2.9777456299735094 1.6980588576190239 0.5080106467917251 0.44194872216564535
Ni 1.0656753817215698 3.6125468382241244 12.881126769633608 1.0703751857439823 0.7172758184125776 -1.0955671116285777
Ni 0.944182943578257 9.089556547197914 11.032051408214569 -0.4923446581196939 -0.8318652583253996 -0.3228133147533537
Ni 3.4920108886172923 7.946451579047234 12.269524087194704 -0.3578083427712999 0.6385591811369649 0.7876970484486177
Ni 5.50012178293701 8.707669302003003 8.662044798812895 -0.7862644297671492 2.3488258936760906 -0.3147824740290772
Ni 6.352187522848089 3.6032210749934417 6.631934668154129 0.572533251955143 0.6535222302047003 -0.7706118108315567
Ni 0.469687374640706 4.816867072709543 10.456173572613205 2.5719045741412674 -1.6869797169867269 0.3704381157201685
Ni 0.7052484283634192 5.365422445386144 8.217570094113603 0.5918777179200259 0.1899595293137051 -0.6592485911655163
Ni 4.7680769603438895 8.49778444728169 4.910507300430962 0.18367755295973529 1.0321523948173579 -1.6225247318364509
Ni 2.045855403490056 5.616638641289594 0.7866796317369775 1.16370957293277 -0.40061952439955517 0.09925126689385487
Ni 6.886901402761202 5.284516391007132 2.544054413822517 -0.17606991581580644 -0.5488099401962742 0.1769991124982952
Ni 0.9231034077550571 2.6366158328388485 7.610867576023127 -1.0867896225462637 2.4983969918704196 0.5762634084215366
Ni 7.810207144629744 8.624657133442705 11.913016897435092 0.691459628680422 -0.5248881392733541 1.168786216124729
Ni 8.38604083460635 2.84453252845625 2.57684449631399 -0.08607230630973564 0.5819568592618881 1.720643170677443
Ni 0.688199939901174 2.208384878650436 10.253386966473194 1.3887258367402922 0.16418164901865273 -0.47475085629733077
Ni 0.36167498695815425 3.113131064109199 5.028598686066676 -0.47163802169996194 -0.9069286151191414 -1.180836976641676
Ni 8.032452774284033 5.5386204465303415 6.933940405344683 -0.9374548087324565 -0.9311319518382223 -0.13938875834468897
Ni 3.20756591307631 0.6950287162313338 10.45319834144444 -1.0860951675824004 -0.45522024246357085 0.40578718464342367
Ni 0.36983181083319616 5.819211876909928 5.16437683232263 0.1626600701678037 1.4870738750935875 0.32728677714367505
Ni 4.434317643143222 4.877392563657397 12.861110407606727 -2.906583272873639 0.017074438983783496 -0.5605629669671444
Ni 6.950415920385556 0.27528015990057275 3.1516315671035615 -0.12257322944924696 -1.1217653672905004 -0.5429640229384586
Ni 3.6004803674562194 2.686822283998905 12.426691708347699 0.8434138823949474 -0.12775323098828964 -0.7635998982900978
Ni 6.2857575545885025 2.420679348723267 1.7837508731794993 -1.3943331556247405 0.6094206118997956 -0.5080340438304928
Ni 6.678405295818816 0.12400322055157352 6.188444043006792 0.4640956905763297 -0.3747426566327933 0.26240113221388356
P 5.166638375891097 1.6634071409804785 3.4870601407404904 0.09671384518398184 -0.013149135787448321 0.6512712293869944
P 0.9781014986026733 7.990275308627316 9.03209365896783 0.36473052381242993 -0.33862405653336525 0.3399954829595951
P 5.148796185883676 1.302470673536549 13.381920255121273 -1.3676548750026059 -0.5943400634175893 0.22880427009504467
P 1.4227675010092613 4.361652105386196 6.28148462599188 2.5785529326957204 0.8081350045879953 2.1596479797234163
P 5.074861461414782 4.3321849008584765 1.7282929320739597 -1.5980560572711253 0.016685945296113197 -0.21356996964379346
P 2.6266462792470735 7.8077699382627515 0.6918281584361882 -0.8082579033191049 -1.1570555579513622 0.43874641317826374
P 1.8075242118136132 6.871422843079507 3.8477142601260557 0.40742343469526604 -1.0598323772311296 0.5318936240569098
P 7.829226551297449 5.574295629540026 9.27709267938416 -0.7727753941417788 -0.3772391978024019 -1.4611522701318191
Ni 5.014924578797071 1.919387385556014 5.621059641669268 -0.17885879141485328 -0.6671470200769866 -0.3151385718169153
Ni 7.31150873691718 1.9030351103842644 4.762897207038643 -0.3096875760046731 1.5844330671710518 -1.36854653357894
Ni 6.454127128024508 5.107363677644795 0.08078925241349753 1.430618106098704 -0.311056945548374 1.0335647017838523
Ni 2.6243470279574574 1.973530154923893 5.311570301381271 -0.5556025376380754 1.2673188596850045 -0.6906780133193912
Ni 3.6897464995242735 7.016579175495548 6.298041074678147 -0.5255789946927916 -0.3069678630806649 1.4025231476347009
Ni 2.0026110852349572 0.8637845638839943 7.233118983149525 1.7851637189583323 -1.91540089271074 0.19030817090237548
Ni 1.1027669035256562 6.989208888143957 12.500402945591244 -0.535075364219001 0.23156666333153023 0.6448046478260443
Ni 2.2201110602274783 8.996409278952989 4.95352813146071 0.19491070267139338 -1.6207732963629828 0.3943159507790306
Ni 8.875625010206878 5.162637678647165 0.7807889499329812 -0.9367325858544513 -0.6723236791819195 -1.5592151731445276
Ni 8.95711047591087 6.9031801018916825 10.502612930460353 0.06410094424496703 0.8593891747772812 0.4056827978550755
Ni 5.645839132667718 3.8466749985431488 8.74834121791528 -0.01186255576554086 2.078340184681859 1.7943926937557677
Ni 4.615112370548312 6.6201238741296295 1.070250891787906 -0.17623806596255454 0.03775202193779305 0.6195114204768943
Ni 4.980702522602424 1.858392847345079 9.848743571414694 -0.007642347036606193 0.9785754900321664 0.9515459967182
Ni 0.34054302820555094 1.011440642302106 3.4865625827614175 1.1286636370722303 0.09184957511314504 0.32905106813294943
Ni 2.9597250180660146 0.737743286989305 0.4051197999257077 0.31112122312740614 0.3948972772037973 0.0016586186493455306
Ni 8.167897069252737 3.30721546396827 9.134045220250954 -0.7349531810876827 1.3484862724939548 -1.1087730687958905
Ni 1.1301279938720874 7.6959803405616185 6.837951262505791 -0.18991196390522133 -0.507030799376959 0.014351126515349477
Ni 7.45188262665082 7.358790540436844 1.2601653695081292 -1.7189341584061362 0.4830760883335745 -0.4684580813100835
Ni 4.085567207534258 6.193989837117346 4.164230112355118 1.6272910428768426 1.9481947993123092 -0.16346456834697007
Ni 2.49641668620322 8.488541457097433 2.666426085658979 -0.9110938022404245 -1.8195062009939438 -0.6758684591103844
Ni 3.7643158173491016 4.486814148587737 10.344920160312808 -0.29872593478684684 -0.17213252843461324 1.175092617958731
Ni 3.059374568957975 8.365182026906952 8.4437106554525 0.6222663575142122 -1.124018167880419 0.1881492155778437
Ni 7.98899692491029 4.254746117424208 11.866523277257507 -0.5554788675760175 0.2577006414144207 0.5106470559733076
Ni 3.026007834243067 5.629753570645565 8.470592581830175 0.2926560744436831 -0.2625122038704511 -1.755233764168119
P 4.158094790213907 0.25119964129416583 6.796560140790122 -0.06426832306076674 -0.19601036349347534 0.3296542489345871
P 8.093428918484651 2.270979695758944 6.648303497935164 0.09932839998869344 -0.3246303133574345 2.2673859439320436
P 1.7767970175791843 2.839952419887335 3.096173625998022 -2.500983007430041 1.6035119381793739 0.19555964910930193
P 7.852678914451532 6.448507757872686 12.692380311568511 1.4581073126579083 1.558044549875194 -0.5315467822404523
P 2.3427991090413913 5.256759829438888 11.973320740558625 -0.08352228619437228 -0.714873122508356 -0.10347276117437017
P 8.415167749943206 7.829585234498629 5.673973691147976 -0.5446663503415458 0.09408643486346377 1.5467880031247683
P 8.141382103380884 3.08233949083866 0.5287744539817755 -0.5244291973590646 0.6890132240224585 -0.8174411124802696
P 4.943730561865399 5.3290850780050505 7.082600796726099 -0.32908372114309775 -0.03330529902034909 -0.40144896227938603
