# total energy = -340874.7311653055 ev
CRYSTAL
PRIMVEC
9.23506722448294 0.00000000000000 0.00000000000000

0.00000000000000 9.23506722448294 0.00000000000000

0.00000000000000 0.00000000000000 13.51645437792968

PRIMCOORD
 96 1
Ni 4.500589986702763 6.625828316380064 9.987659702485411 0.5123167303662467 -1.7900570424948912 -0.768003169564116
Ni 5.063513513214123 8.367312659991363 3.821804229508786 0.8290095340441593 -1.9903058695497469 -1.8969020625756041
Ni 6.986300697814202 0.020258043601924708 0.32132123717538635 -0.2704774814641148 -0.060346105188225106 0.020370593236552013
Ni 5.117677182855484 3.0330454440414507 6.193631784857327 0.654935051391827 -0.35739568071391353 1.4928426592565645
Ni 2.2257989773712095 4.14581564178503 2.314192423913798 0.5646633622887631 0.3409264794142967 0.35624048406354775
Ni 8.560630323521218 1.5209417017178082 6.935495822145317 -1.9373416586478893 -0.3845655562604861 0.9082373066282358
Ni 8.116959220893728 1.9678266077613604 2.7835379371073508 0.22613083702793957 1.697522782609896 -0.9224670770743726
Ni 1.4761054500368525 1.3839302434400202 6.237438326535723 0.8382727045136401 -0.14389744484831993 0.029666930936813427
Ni 1.7025770051289382 4.835074888789794 4.497438058237529 0.07914189773848951 0.7603029727063809 0.6182654638849352
Ni 0.6494062376321592 6.662075955483616 3.2002500313090874 1.2579741852453108 0.17235955684375476 -0.31411270165556227
Ni 6.130376191471394 0.5262861675682735 7.292005436206376 1.3094417569969834 1.6657007530032923 0.1377486516381047
Ni 4.659220737500657 9.004366071619723 1.3495961102784433 0.47550007575852954 0.20077461765133808 0.4763649948619861
Ni 0.45309825931460224 3.1148496700743866 1.3417065922947067 -0.8012156517603426 -0.2056712836220071 -0.7826000935416845
Ni 6.915199914767513 4.51697299607084 1.6192711571550498 1.2954590695646464 -0.7219313149067179 0.10427391691942688
Ni 3.6476207018919635 7.985793560208945 11.512193845378068 -0.26489227406685345 2.0848931553090284 -0.09821254121669537
Ni 7.558819459237306 3.1936617343061635 10.905048199160372 0.10732787325440227 1.0231417066783153 -0.18303683405194282
Ni 1.7996375623208731 1.4134547535582522 3.2253232389947293 -0.43715027233573744 0.5243129834961744 0.2382517886611897
Ni 2.717095322000491 0.6630926073522779 12.401495731911465 -1.8365189335018566 0.5712104193786615 0.13423189673409786
Ni 4.759993791742179 3.915871701392833 2.2658579287443263 -1.8406725506589139 0.17639978835139944 -0.05710651520500487
Ni 7.184623767813899 -0.12430585270360454 3.16517524575105 0.4096795777192944 1.1588234484850626 -0.23050402639497075
Ni 5.399272854586833 6.106143374908916 3.1252474323334165 -0.023524051263869163 -0.09830098716544361 -0.9638142725625916
Ni 5.9090208636565995 1.956587530872437 1.7343641067326148 0.4301540435235624 -0.9115401457492237 -0.7244625659690039
Ni 3.135129877837801 2.5074592945735716 4.936276450153456 0.10930093782037303 0.9995374369958139 -0.5887931654574311
Ni 7.626641793396923 3.0712601524772474 5.379507963578063 -0.2527031881998293 0.7049846597500504 -0.380024730967339
P 4.726479732555734 0.7477966445134986 10.803959305617617 0.2278244226802786 0.01409915840554346 0.4478638020984997
P 1.836014492366452 2.558797033624948 8.287397928725456 0.7757645586770897 0.8271884216750206 -0.7559079289624788
P 6.752893607189182 2.8134909543477242 7.748009971196365 0.35734811530542976 0.047945160420710974 -0.6757324477531523
P 8.158794075706234 8.673953834206493 8.135324075701709 -1.1223500361493768 1.2792053267099452 0.06276294215983384
P 8.78195794613415 6.083462049650743 5.589905884056203 0.5786661043257583 0.4331748326277572 0.024623969196267272
P 3.309423302755346 4.230362682802362 0.3558059019337502 0.48507023594546783 1.3040139011131928 -0.13164870938795392
P 3.1674341432095794 6.056781940257071 3.350174884175027 -0.5189550616183708 -0.34788645567189763 -1.1336369219171056
P 2.528783064940477 8.502929623108734 6.653853051570801 -0.5321448208357674 0.44046648119316406 0.5379560282009057
Ni 3.2704328486673964 3.798687932581371 9.448609748419042 -0.08724035847590782 0.25717665059015066 -0.030317162926302623
Ni 1.3819816442423518 7.117946581997935 12.602822969299796 0.9462970896144348 1.2266944012954228 0.8816351306596751
Ni 0.9780120958839489 3.581266743431064 10.686014567261662 -0.058017714165364595 0.18834436230778528 1.1354102117674445
Ni 1.1998014718612573 0.8130128426845744 0.9797279713859718 -0.6747374308297347 -1.8474803176093666 -0.5515111411775211
Ni 5.78670239743327 1.9342940784403408 4.121410129464276 -0.8849945340502114 -1.3974002245858386 0.23711484684326906
Ni 8.268091097054146 4.212973051099945 13.115056134976633 0.3815835908140267 -0.024265557415584015 -0.09288135881176908
Ni 6.5443196125003285 6.976068243259619 8.091868466580237 -0.44733055530284893 -0.6556588169317289 -0.03300293728858187
Ni 2.834648493503454 6.31557623085551 1.2481701367796931 -0.0275002623027978 -0.6158925927773845 -0.8121577525941431
Ni 0.9923910956506323 8.354891494489637 5.056722044730874 0.35538250693862666 -0.6227564097767533 0.12404647156066378
Ni 5.437663029301094 8.747612730891829 9.17829471137941 -0.6939793097784822 0.016025171783662726 1.3139249895793177
Ni 2.1886647718080536 7.302961920036301 8.938404603518544 0.18016182649699294 1.102751802302475 1.2761603692360344
Ni 7.601660936384156 6.896655899654153 3.7150514691985888 0.6509909791424144 -0.24484255450482992 -0.02293603997088308
Ni 1.7330896674469356 6.448422673786623 6.902974532692281 0.6412092171653021 -0.8436319119430244 -2.2821327632239146
Ni 8.975829713701257 6.751323645750301 7.838110981680417 -0.7743836191691631 -0.30538766307773857 0.454966731691868
Ni 3.1188484542098873 3.048384890806037 11.6976127558569 0.00018640497919322736 0.2195045899606736 1.1990771537987865
Ni 1.4049861968555877 4.681745066614941 12.907172923320887 -0.16245541035616537 0.11195585894471687 0.5090280323126459
Ni 7.396559326995413 1.323246616293664 9.231738045772344 -0.1369050726908868 -1.0581174514225518 0.5324070733582186
Ni 8.68136959323838 4.613774971378724 3.155605869027712 0.07663352949433899 -0.3960555591779566 0.7888427320172866
Ni 5.481889766541072 4.733987842260496 8.608116116006967 0.3276559875576357 -0.5428100138590974 -0.02792346588314546
Ni 3.073116401002041 4.18895264108508 6.98964286866556 -0.027949691135390576 0.36669767484112975 -0.08472684802543473
Ni 4.171267487229461 4.598066121922637 4.666163661087421 0.7929955778433956 1.0054139503812491 0.7205920272700042
Ni 7.913455278145727 8.380851268634881 6.0182689391478865 -0.09019404178759305 -1.2496350692519962 -0.32492830421382746
Ni 7.865100465828222 7.993181614038969 10.218750638234718 -0.42117035196771335 0.05638789187142547 -0.585199791679218
Ni 6.6212846632746 5.423514906216598 11.8756112897702 -0.036682700133014244 0.6239864255291124 -0.9825352460108627
P 7.042893190152183 2.4346777292805513 13.500734709065357 0.6109704728854187 -1.3317818152550807 -0.6757987822147136
P 0.2575697206761127 9.018892832463008 3.082400414146194 -0.18540970515949362 -0.31792924718817506 -0.7444786040796146
P 0.8907730327523015 2.2384787247569875 12.820694829733734 0.7100697875824417 0.7175100459105707 0.014413090101536468
P 4.692864087629127 5.8830149141749155 6.788247291779302 0.014365010472420423 -0.7005124829113096 0.01742925122004095
P 0.5616564752795115 2.989021878281797 4.100283989537323 0.09867816799920424 -0.21688437872900715 0.7557796309147305
P 0.07323038956319392 5.598011502614468 1.2201666422437174 -0.18468851072275289 -0.6138236260634977 -0.4356785728862174
P 2.898481278594858 8.279736516903721 0.38684126906022187 -0.6577277836456157 0.8225740628314607 -0.5789245001934675
P 1.2473897735938968 8.769056557133473 10.447124617188035 0.1196434573969617 -0.4317141889218306 1.1137278416980045
Ni 3.3237745973201664 7.185196341985725 5.089201776381116 -0.6833046036734555 -2.0617647968216812 -0.3944630178798561
Ni 2.7783699934532495 1.1661211814636372 9.91218334455789 -0.09767389510440598 0.1380301874342655 0.09222084240963473
Ni 6.944050264973755 0.9762204928301681 11.590481357787912 -0.6382048831213395 -0.4078936894634652 0.4440760529212932
Ni 6.419008984475841 5.868294216918594 5.384725776595516 -0.6952198670538027 -0.39278511595680093 0.5272394131143501
Ni 0.12965388016981289 1.37668071561931 11.018032782876196 -0.22027360691621417 0.3925640010849304 -0.7017869787483592
Ni 2.4706390812981915 8.339210350235412 2.660268258953407 0.286005659006701 -0.3619866425187056 -0.14757103704516522
Ni 8.782105707210752 7.809052842460205 1.337029030713573 0.3215323911584011 0.1739634109957649 -0.5995843425356642
Ni 3.109992024681146 2.2271657673297636 0.9430333550257021 -0.04384245110624707 -0.6611573781524549 -0.8999778948329209
Ni 1.0893131268332543 5.0380247275005425 8.841139951339555 0.17073796207993175 -0.005458194901093826 -0.26427058132245457
Ni 5.350096121280738 3.7046657125270333 13.207617367386085 -0.03567662746600307 1.7105765304700604 -0.29371434050486833
Ni 0.6962751276231002 0.684684194670522 8.62082172158115 0.6438937059760008 -0.9695460328400464 0.671063067301941
Ni 8.753523173955847 1.0831718070870473 4.7885689369432525 0.9328620471554514 -0.7799901667226631 -0.8327103799345141
Ni 4.786249088040625 1.569878323274427 12.811070966113398 1.2330313992570443 -1.7432683642761266 0.2048531585960859
Ni 7.594485289101745 4.774031094019224 7.108046589865705 -0.01525101262179954 0.01472805023879399 1.5621765697656969
Ni 8.844211534719387 8.710247648646483 12.278387667435053 0.18755760474043182 -0.9405205921419737 0.6684233156862489
Ni 4.776783144070908 8.114862860619457 6.529001406390503 -0.09271809376102742 -0.8101947153305015 1.238198031059648
Ni 3.565419367965663 5.8577477700762355 12.203506971347577 0.8738578007071015 -1.9783569247179864 0.6873098681781067
Ni 5.572448836362586 5.9515298783810975 0.4826911089307618 -0.7213345618629835 2.0267882807464965 0.15848716973703675
Ni 8.9891282105953 2.9461342257985104 8.74214557105761 -0.40268180624522265 1.7993456668856689 0.14460655510020257
Ni 0.540713189684852 4.044839416063183 6.260821516907748 -0.1393782168217277 -0.7242417082074495 1.209707636929439
Ni 3.5213496268695725 0.974752117131451 7.535490755762278 -0.2953680740582074 -0.108653019823729 -0.7349683505963341
Ni 3.507746372755042 0.24711470099990054 4.727136345839878 -1.5086469732786727 1.7828399559211618 1.1047539203341683
Ni 5.020708976336424 2.096378744403771 8.87682332783184 0.2513782987408187 0.526205572533197 1.1676875837439116
Ni 9.05667349273629 6.122637205084445 11.230808733180874 -1.0113938221137677 -1.0611420971814887 -0.6635263926052637
P 1.9969540099862286 5.954355808971081 10.738958284514341 -0.21028975623062496 -0.795311884681398 -0.7744777215448662
P 4.897383887778755 4.3057115968013155 11.041294070360022 -0.3593890569948585 0.3912486247076165 -1.1293310954529003
P 3.9638848162206988 1.8187633866733468 2.791283388041402 -0.31911838240026974 -0.9701972932708001 1.8387082278436913
P 7.688304337675758 5.166466043335503 9.633501336555756 0.42450610120916565 0.17834559922386056 -0.6144946839885933
P 6.407816082923354 3.8899488675167375 3.741882110189048 0.5065556595127534 2.212631473898983 -0.22008900170923384
P 6.639754797849658 7.6610239489083956 12.084048605463199 0.46255071468671305 0.677971107275684 0.34518396913907007
P 6.63645787882801 7.559336623005408 1.7821989847618314 -1.578796951931197 -0.7929382422428989 -0.5365375505868243
P 6.11678217242415 9.32233867339665 5.284352600767545 0.7326013930260544 0.8266387198191376 -1.0493507609735153
