# total energy = -340866.2504456816 ev
CRYSTAL
PRIMVEC
9.32288375636160 0.00000000000000 0.00000000000000
0.00000000000000 9.32288375636160 0.00000000000000
0.00000000000000 0.00000000000000 13.64498274896915
PRIMCOORD
 96 1
Ni 2.9862315288645553 3.8573151688763554 1.81789333529582 0.30070568422103694 -0.803655628660403 -0.5808749390516189
Ni 6.735951296773648 4.973646587923318 8.617352115943396 -1.4303370845231753 0.23088146433904752 -1.1707687937723965
Ni 4.454828109123547 2.0360152518706807 7.555144698310127 0.4519145751291056 -0.0946309945130241 0.36096899988746867
Ni 0.5639729337902267 6.542715885990488 11.488857170086261 1.2294974179618567 0.6396845529906596 -0.8256074503411458
Ni 0.3992329170852605 0.19484640508929868 6.0670371870101265 1.6414971591738956 3.5084124455794217 -1.7307866868693484
Ni 1.927599437136403 4.415103301609336 9.322265608888184 -1.3644175990122307 0.1799286274402643 -0.21517716622991326
Ni 3.2437295771026453 0.9375558009074403 10.068169024667455 0.8426271248275939 0.2202208993014078 -0.07747196623523431
Ni 8.353546204583006 4.3523323255489785 2.7309206291462575 -0.8376466408938671 -1.04351744212119 1.754318194332385
Ni 2.237613289347163 2.268677137889137 3.4631650879931013 1.340624610357691 0.658144302357744 -0.03080284431346953
Ni 4.2378286677481025 4.006294850659291 9.145686462152169 1.194595206768033 -0.29907174816203974 -0.24394086862616698
Ni 4.353870601362132 6.7585965813200035 0.8871637498452924 1.2571000101704737 -0.6122102588297907 0.6841769789760797
Ni 7.4251361526010395 3.282102566478025 0.8151715095013622 0.32156890082329137 -0.547715935801147 -0.9513691048207035
Ni 4.821021658607397 3.997783057826511 13.30369446409995 -0.8298173746574353 -0.08657701386029605 0.5756106053288861
Ni 9.224284897897313 7.968278035016061 0.21388653050264592 1.0022039280843837 -0.6038058368161795 0.6535160595571131
Ni 2.827863703179529 5.586523640534606 13.061496200328317 -0.19217479179746902 -0.7648841643191602 -2.1114778477760927
Ni 9.277844864846184 5.6321591563248115 1.3055952813670735 -0.5692070157953873 2.0048290028665856 -0.9721775569256225
Ni 8.096672789553894 0.49180262636731936 8.585218000350816 -1.2091563924116595 0.8259967153597646 -2.736619727065887
Ni 1.9168315064443322 8.1705473201201 1.7733159668073903 -1.276631395335182 2.153311238872111 0.10005036575638253
Ni 1.4595440601706788 8.706995372026977 10.790766163444898 0.3813840732087109 -1.1671700206775446 -0.5279130421426069
Ni 0.8630184133090206 4.611592398809408 4.34808295515119 0.1789348960684273 -1.2477823323139736 0.7493372177234966
Ni 8.06270952417622 0.7285880238533974 10.758782146280147 0.33853458214335247 0.7801261780798951 0.784572643887023
Ni 7.624906904869171 2.8067753402137594 7.53070662322517 -1.6180875220007036 0.25351899923290533 0.603645142868599
Ni 2.3070967416830968 6.57366785992787 5.3233032062715875 -0.26445338675722196 -0.49628744481752585 0.8230348045179632
Ni 9.271421397965806 6.961816800563083 5.47792882643298 -0.037368670456445326 0.042444028096823676 0.4483664527665311
P 5.341779297220112 4.89742269066066 10.90962733709467 -0.8933984418431905 -1.3620642682887059 -1.5053068531618463
P 1.3225536068466204 6.017651075100944 7.314774652035217 0.3863144206307928 0.3744125269868842 -0.951865841951464
P 0.5777857183039687 3.5459494985267637 1.1728299589431421 -0.8573664879202976 -0.33765500775187657 1.129756355915777
P 3.388262243353011 0.3928551323350912 3.0572402049764396 0.11594826793356161 -0.040913193274594056 -0.1928401932956098
P 4.243524949698626 1.86650658014494 13.379274150097826 1.0763512008217593 1.017234597165261 0.6223632881033927
P 8.652288690381027 4.057216441516512 8.996273266276436 0.5712132475921389 -0.8601772178962153 0.5413413997333709
P 5.82974835380338 2.1375973928410725 4.560412564073252 -2.6896055630998776 -0.1432515837342049 3.9461867246524034
P 5.646012961526904 4.367715083680508 1.6523394308424402 0.6452962427504823 0.2428666617253817 0.7125987246518823
Ni 4.982419421500149 8.944300054136042 12.290118004794861 -0.6428051008975124 -1.106780463845894 1.486015351922086
Ni 5.470332540781119 8.590869532459504 2.9874052799244097 0.8666083182335398 0.7060683797325323 -0.4216460060525513
Ni 4.644623375815474 6.484158853369799 9.382044871564052 0.19143919918302513 -1.311601997873096 2.582531457727494
Ni 6.526288964882758 3.020017659451624 10.01226528475236 1.2998052623484841 0.8763509994426003 -0.8533108297936852
Ni 5.567393083149214 4.207501327019699 6.352257762266348 0.8884480398164506 -0.6593810029783225 0.7371345050097176
Ni 4.745972444692964 2.105526672857762 1.9968479528026912 -0.41997967409372183 0.35916279991666533 -0.3329797137633943
Ni 6.9515709513591135 7.048295869913429 4.5049460674044415 -1.1358347008993728 2.2396190582314204 0.5073480735070617
Ni 3.576109027348278 3.0456649125545563 11.257888319750643 -0.6905348028733076 1.335109594076733 0.9479302543424835
Ni 9.403619889059799 4.698229957182925 12.824100153958836 -1.7486856786369562 -0.7656022734321072 1.1531256267693366
Ni 2.0873284038439768 7.062000508976064 9.110795569844745 0.41352774782079105 -0.2473763766702772 -0.06473035029884981
Ni 5.8355751561259295 8.684769617247847 10.088704540628859 1.6297227922467867 -0.9857367836672959 -0.3197099932376817
Ni 6.54644503947692 6.571514273789455 2.270074638158177 0.4221604837951245 -0.3640836342570504 -1.3867437733132568
Ni 7.940542455960727 3.214791346047938 5.0296221140430255 -0.005107753540210558 -0.7370103207270274 0.32948661300847126
Ni 0.5031513727149017 2.398526262286679 7.779496165784071 0.1482760335319898 -0.5065638870428695 0.6974590407969665
Ni 2.680450265860895 0.8353518235931858 12.67826321627659 -1.4874615974503094 -2.476497877804483 -1.196692969837326
Ni 0.0463179508782215 8.076526037843449 7.530011136099951 0.9893754088611477 -1.1996314836403597 1.9547788802877302
Ni 5.4954483895122355 6.307024062764306 12.453802671063167 0.43122670776245087 1.5013532678307369 -0.05426184666735816
Ni 4.313064339336856 -0.14706569375602443 1.0285695208972856 -1.0679467788081478 0.9091356500727892 -0.9234631224390547
Ni 3.730020514617019 1.4444316656669154 5.427578728347555 0.9760349829984996 0.2255924480259663 -1.0015812068987202
Ni 1.3256208355892105 0.05660948221240062 3.8780679080283464 0.44157334110409757 -1.3398874750813505 -0.006302288068943984
Ni -0.039813374909513484 1.0574014710776303 13.114575106477439 0.8817726846788039 1.1484068811374286 0.22914828369802473
Ni 1.9376588286660517 3.0400245679063285 13.340222454787916 0.6466990366352798 0.43936399215760463 -1.4388435793322898
Ni 4.064917143465993 3.590951058224275 4.593065032000444 -1.1698390828692755 0.42991493092956284 -0.6550918886846654
Ni 7.569948505362888 0.13695222950082242 4.077966383803388 -0.2332949588765466 0.3290991477620655 0.7292281056784473
P 8.282282081457302 8.348977991562128 2.4314127345951464 0.9245496706350141 -1.3300139247213802 -0.7784338779791368
P 3.12349234581638 5.34758745377523 3.326919533077957 -0.4842963338939208 -0.42717953427627076 1.9771873298899176
P 7.775881683767348 8.835147731588194 6.1638749124574055 -1.3761215177127204 -1.419911261204161 0.18056651813457933
P 5.7254625765553255 1.1194639079755653 9.084788453430372 0.6249583025240785 1.9452074345492112 -1.2041517401082167
P 2.5708038304760947 2.5251123773835937 8.270824257370242 -0.18244059522884062 0.010556435359607626 0.4829858426126133
P 8.336811628312645 8.064033373663904 9.789374713156725 0.44750847564160995 -0.6136552188064335 0.7472942191515388
P 6.201134749517085 8.13089709567562 0.47792551395593647 -0.9852575300380323 -0.41059309067249933 1.1216936335123007
P 2.6575625863379218 7.722750569469416 13.550504758445927 -0.23252491347974147 0.5390690587594265 -1.285571378137289
Ni 1.912170064586293 3.102021744618251 6.027630289830634 0.9594264279075413 0.07230841975642385 0.10598370052168199
Ni 6.466976778681066 1.1889380374277827 6.525167421971714 -0.17932853196242018 0.24244577213787924 -0.3688543161728164
Ni 2.164680370036281 5.9721274339153325 1.4802072996389954 -0.059403538769297694 -0.04535503109603157 0.22167357258753434
Ni 8.971923758586781 6.2860475744031294 8.77059888160318 1.9661560117764203 -1.5682400023509573 -0.38981369203330285
Ni 3.4884459517659914 7.445590559474116 3.33071301446203 0.10524862212787035 0.3358470080088603 0.8450758434784026
Ni 9.066448476584101 2.96777221910672 10.93395633444015 -0.41491665774851766 1.186567708477866 0.13819859469132975
Ni 8.869950056500315 4.6463014948843675 6.788897817974002 0.9659449457523491 0.8209398696621475 -0.0910443056030303
Ni 5.47741793240534 1.640902117099555 11.384009222950125 -1.1474494023201656 -1.037127479434446 0.18587430350073794
Ni 7.060350358558319 7.401511965264496 7.810292447563394 -1.0902698677853804 0.6488523355328567 -0.3655478775074027
Ni 1.982790908735588 1.28192447961195 1.3055980782321885 0.010907648051439279 -0.023132215142089196 0.5306116720206927
Ni 9.129340650132768 1.5216624343709102 2.80227052280215 0.43337537867433756 0.7538898700911855 -1.8679149313146346
Ni 6.019413100123282 4.691489512256201 3.9958243199577628 2.121596424267333 -1.115308555921563 -1.9608736803315583
Ni 6.906047310173501 4.375518337350866 12.253945215976477 1.4489768111115497 -1.0453372689387481 0.38793961493904155
Ni 6.913552231564945 2.280284128115655 3.008117930676421 1.32397903138121 0.8775457910816499 -2.887179671536047
Ni 2.9740651656150727 8.789363049658531 5.864736204101452 -0.8526919652627638 -1.2260056027585144 0.16065666658452976
Ni 7.553558875790022 8.92887068158593 12.660524565430007 -1.7481881701752475 -1.2342295333302034 0.1973943883251955
Ni 0.9760220191199805 6.626202309667971 3.340687567749862 -0.9343093211249394 1.316454440869391 -0.4914581417496826
Ni 4.044388153523188 8.029967556565353 7.78111927983904 0.39648184808209785 0.5987754734811236 -0.42698901553201946
Ni 3.372236206245072 5.013063740274898 7.095950722316536 -0.7548082681403968 0.30571676428238315 -0.056069332189742145
Ni 5.437273595123905 8.847724301721183 5.30036611546492 -0.9216515231516128 -0.6370178047917738 0.5617839838584389
Ni 1.903415876776895 9.418816189517006 8.310531351405393 -0.11623828837015465 0.42811258761350146 -0.9070301736940121
Ni 7.800605971382388 5.688814320667421 10.490808905898673 -1.2244639693030073 -0.11969822189429709 1.6288804988511498
Ni 7.46364898523216 0.6946545917036147 1.262729594328916 -0.6745931919423866 -0.4258322762197569 -0.5828875986062735
Ni 4.626164066057639 6.006873821525157 5.018201581490829 -0.8880186655885158 1.853907818402265 1.0846301530010996
P 1.0300667760220878 1.3241291741946377 11.178952395614978 0.4518171303192928 0.5601652173080934 0.35892651553614313
P 1.6253701928285682 4.453522905403296 11.497795018704865 1.4319301400419082 -0.1378800350096464 -1.0034964216435622
P 3.8901690110918166 8.086380325931342 10.63917048049123 -2.3552731919633305 -0.08777334816124238 -0.55727915400955
P 5.267102998654324 6.1406851715020325 7.459329693206501 -0.16764003988089837 -0.0014652716916168313 -2.472088435882878
P 7.951151897629624 6.541792920502596 12.438520600075773 0.14307186362323102 -0.07617458758004945 1.7640819585873684
P 7.174537038312848 1.884061570182316 12.536942283466413 1.8077344051699964 1.0354140962877654 1.246633563421511
P 7.981171583195397 5.371062474972315 4.808505687218561 1.5450753913090358 -2.07223150068096 -0.5669819831196106
P 0.5774472976250751 2.083589927473829 4.6560774707490475 -1.1506761367875795 0.10271968505842954 1.9719217106156037
