# total energy = -381165.77855742694 ev
CRYSTAL
PRIMVEC
9.33428193636246 0.00000000000000 0.00000000000000

0.00000000000000 9.33428193636246 0.00000000000000

0.00000000000000 0.00000000000000 13.66166513754862

PRIMCOORD
 96 1
Ni 4.691335290057652 7.821371957591481 12.257040339444847 -0.5486466751455326 -0.4886399555745971 -0.12360655580976776
Ni 6.0112027173429095 9.281813666736117 10.204361794425521 1.097781088560761 -1.184887492561966 0.9418197705693715
Ni 0.7413566525974327 3.5195375728079394 6.121901697308586 -0.8640148464747507 -0.7584962585149453 0.3391771008233578
Ni 5.197328030498099 4.8201017056121085 9.878954734197055 1.3840070911083842 0.2891418906428375 -0.5394655228668968
Ni 2.289456600848403 0.8994299122922534 2.9129399445932314 -0.47870238474591104 -0.45301037929644566 -0.24794304780702456
Ni 2.2750911413675543 8.457512587272653 12.446596264335906 0.48800077932870156 -0.32631464303839286 0.13180914622521814
Ni 3.5491552485277142 5.721018568973432 11.401902527076295 -0.08734963036026247 -0.025014519766466597 0.3219491669808455
Ni 1.7893537921379206 7.995185616456253 6.251372851128672 -1.171537296507305 0.23359654927736542 -0.9811643338052651
Ni 8.65518467007053 5.396913641037091 0.6095453943641895 -0.5560668788690036 -0.012429741122920529 -0.9026502994587616
Ni 3.7846031692196753 4.09514538589827 7.75113708863911 -1.5642195683376545 -2.453008022212659 0.5035371844014038
Ni 1.1674852791209585 -0.17811862956819474 10.322344314373595 -0.6262788211077149 0.4364571029234548 0.2904210144655772
Ni 9.006265672015743 3.9620571979333956 2.5770952906081157 -0.9904768694554426 -0.7042948327718773 0.26755850804510695
Ni 7.722596589023358 7.26991193116584 1.959998462377775 0.2589841361125346 1.3273623460311463 -0.7532761477665865
Ni 3.6399124691464877 -0.16019867562970652 5.118014639199352 -0.5350241992660915 2.2760557037918994 -0.023453088816617673
Ni 2.573004074954798 5.423021626851213 1.7690078583949667 -0.7456548837759029 -0.9728180187230987 -0.47336271770055255
Ni 3.5649021816948303 3.01125793335982 3.239003204822674 -0.09627984297035677 -1.6872144587053526 -1.424537961342895
Ni 7.193986884111114 4.179200592282314 11.710055167648914 0.616861641558873 0.3219136857572198 0.3862532283755542
Ni 5.000552038739962 1.915935985783008 10.071406153260277 0.18672610997807196 1.5009794294310859 0.01793267321902073
Ni 5.132884149890056 2.00231542830138 4.85403088603247 0.0684515079041789 -1.8029066447640498 0.3569205408497079
Ni 1.2271220046720583 4.435659980999869 11.194859758915959 -0.3456174571320628 -0.3325426262259757 -1.0215118843843762
Ni 1.5147298913022802 9.331845416454993 8.085137288567427 0.5226055138867645 -0.16052116944793 -0.3058790008918604
Ni 2.6458768119054064 1.7866748533003614 6.835572870490687 0.9227334433618819 -0.6844546581174986 0.5023418785417221
Ni 9.208296864350695 0.2293993061737092 3.1368002880275414 0.009371671022887086 -0.1594292219353319 -1.4603467435113882
Ni 0.05218703535508589 2.3704594971283286 10.588773649336437 -0.06197001394489327 -1.8936832985279903 1.4678818755461687
P 8.474939691139284 6.1477259209601245 12.046104242402471 -0.319458796458824 -1.1619272842213666 -0.03612451363669908
Ni 0.19504634936580303 5.578241396641358 9.00697134370954 -1.5573434100431114 -0.07228219450417873 -1.7401424170526354
P 2.9443404681108243 7.611817334235371 10.464712645168786 -0.086492938786922 -1.325362541992298 0.04127237638622569
Ni 2.3570741372221966 1.0986169490041933 0.12360082408161571 -0.5981188137337313 0.6518625831140903 0.25208638055143684
P 8.388952288450797 0.4184091755874233 9.819676445061853 -0.23136071796831123 1.3556707060575364 0.24602011975269888
P 3.178108218103271 7.0913937943424274 0.47058034266368043 0.6635204790679928 -0.40002354268676915 -1.1070997948585257
P 9.292137382256465 6.6049190368613395 6.967954453333598 0.4673468505237758 0.3036274858535222 -0.9224526788966694
Ni 4.637700507616485 0.9488390654241421 12.115546630841571 -0.899472158841096 -0.2485907086933525 0.6579812944173185
Ni 3.3536207162308855 3.5544851233578405 10.190208223138445 -1.1009420027872459 -0.032201267322892926 0.4251499054407517
Ni 6.8530802491796265 6.68148814935088 5.731232139970148 0.3796218391019656 -1.3293222979709942 0.14224885350130342
Ni 5.849327604726354 5.154324994872193 13.234683131227667 -0.946067747212448 0.09519483743629412 0.6039647309915469
Ni 4.885068305993335 5.765337738313958 7.0178881930950014 1.4826171248738145 2.7679807578756717 1.0759007435479018
Ni 7.810581527987933 3.6648630040342773 7.037751544475928 0.613380367878492 1.2352613170288274 1.2380388797739648
Ni 8.677540274655735 7.8917897784644655 8.683764373669272 -0.4764683532090698 -0.05007660494141698 0.45622400113773687
Ni 6.971382934988775 0.804759760799944 8.151683249406195 0.36479865804620404 1.8953653142161033 0.4657152284576238
Ni 3.662576105026605 0.024092714402871127 9.582155380412324 0.025675036168600944 0.570301791521463 -0.6082204209441074
Ni 6.561906666953769 6.881764496733005 10.77360269399286 -0.14084554539587357 -2.227541558241596 0.5745793358508943
Ni 7.170567171416215 1.749132372447877 12.198104618446713 0.8213041949801017 1.519790391490002 -0.9422157204562096
Ni 8.68316884649911 1.9359393513888943 1.181337353110289 0.09873113272432672 -0.7586572095728419 0.2580055742493492
Ni 5.969665163938246 3.0144875948155536 8.311824985917752 -1.0517125763374728 0.35490325330936295 -0.6539315498279771
Ni 4.37543519570394 7.119966030515838 4.9782291041405795 0.4326616404367645 -1.9590613097131682 0.7776180669460607
Ni 3.860733570471009 9.12339223833523 1.2043948956766262 -0.1236942304275676 -1.2949052539437054 -0.7245235011139264
Ni 4.902430069888317 4.063212808325831 5.67781484629175 1.7606230535044904 0.7868246731459932 -0.4649541819218831
Ni 5.436285641095713 7.059367873953348 1.1343691146335284 -4.051382639165468 0.11575286409330389 3.0550683370926417
Ni 8.032158706127236 8.359577304054286 11.416943788549617 1.1291999691916748 1.0271521133892891 0.3528826233349084
Ni 8.342234208722632 8.802853005994525 6.4672001117629705 1.0207063577639452 0.33355152710646424 -0.8660658154665085
Ni 6.607476630037267 5.311402286713468 2.2559231939705935 0.1627217766436746 -2.636519739018492 -0.3336140049132835
Ni 7.473016565892147 1.6361502271871926 3.925993267296484 -0.02862846236997005 0.6199076274740485 0.4611906011143928
Ni 6.61107966275956 0.03210059464239038 1.8253346476680228 0.46904403572054065 -0.5496352643110469 1.9109845088105994
Ni 1.0123868549924449 1.1480233018515826 5.136048471374141 -0.4311655155072123 -0.31366095883012435 0.47419138424943497
Ni 2.503734370726482 3.2870579536851205 13.139679745879953 -0.22248012764922975 0.7465971930845141 -1.1727984226079158
Ni 6.41636654724916 -0.039177847000011895 13.131086606180103 -0.3399582019637564 -0.009495341084944939 0.8453329537945313
P 7.086857333453739 5.446217316786176 8.485778659007483 -1.0164774072842624 0.09629578380995674 0.3810027786098922
Ni 3.245875102983688 7.442316113499352 2.7839607074168367 2.0237582356709214 0.947345585483607 1.0017799531730875
P 5.827410711379354 3.364859191354305 3.2037560238313594 0.44261155256062484 0.5055786403114648 -0.47732170234830046
Ni 0.9717827297541785 3.4628784831076462 8.832552823392941 0.7839434949434563 1.2235219171047123 -0.9261203575562437
P 1.540595185793139 8.416395076542868 4.107639321905492 -0.28760617072460143 0.24411776052366346 -0.38484606361538237
P 7.849020099880158 1.7306224919082256 6.230744088651301 0.535810956833445 -0.794216080514058 -1.3624059678988407
P 4.925513748443314 0.8275988811753442 6.944223909059288 -0.41743453907436495 -0.37362114143384045 -0.3159348424659656
Ni 1.5971702669584569 5.677987530502533 13.017107559637706 0.5870401873220664 0.3024671469968339 1.2657936812897297
Ni 4.854545204952156 3.29756835483875 12.405146453178881 -0.1566172064078335 -0.5838283652529881 -1.344169390286156
Ni 5.122215065948139 7.262099137413098 9.123805747012943 -0.6042994886231463 -0.6939875373085984 0.6527254453350178
Ni 5.197290693371443 1.5218892853385444 1.1249657592852458 -0.9439810398867485 2.001571929381869 -0.38767710530627425
Ni 8.239025056364122 7.742609288910908 4.175974664539245 0.7515396246914541 -0.5878400575155424 0.3341577932318955
Ni 1.507813188589279 7.960835459932846 1.4963488238495917 -1.2422295208165444 1.2754926537450486 0.216838098872104
Ni 6.2325838755672684 8.877116550913064 4.648532008059354 -0.6675005467616634 0.5096998615686898 -0.16861448797902573
Ni 1.9767674993870958 5.721811982914869 6.606357449665757 0.1337115054542536 -1.0498009611370565 0.3646775590873074
Ni 0.6957362843929492 6.943025387293636 10.645373933062247 0.8039479630898413 -0.5680410205117442 1.7359206656618038
Ni -0.08853472815458228 1.6446537577830684 7.9478514741382655 -0.28818389760494234 -0.10020874571111774 -0.3784082784098386
Ni 2.8595385191936633 3.463158511557565 5.354607876251483 -0.7199739340700311 0.7092832871254042 -0.1517853322368289
Ni 4.287851630850915 5.1194521185756034 3.467220790937725 1.0007993344273731 1.4050268878931609 0.30729876405752243
Ni 0.22858815709711028 7.593960853412197 13.312813869039589 -1.610584271645123 0.17913081412931728 -0.424420740584211
Ni 6.758281284600355 7.1377291685223705 13.293797137005585 4.58369715280988 -0.2141790639827021 -2.7153374206483427
Ni 6.656453605928114 3.16018639730845 0.6241806145851271 1.0227367579304127 0.9561667833196629 -0.043219987030899756
Ni 3.771712526241734 7.8747173773010655 7.483600707870922 -0.6634852549546831 0.9752651947120107 -1.1286677508372884
Ni 9.219077959672578 3.4013842355054167 13.120895437459382 0.5316439699399489 -0.17705439121626282 -0.5492997353484991
Ni 7.282522545693862 4.063502171057414 4.911710212718636 -0.6663970292848395 -0.1534120692069745 -1.7096943849754231
Ni 1.6948908616985512 2.9604421039811712 1.681382289274455 -0.35504852063797565 0.26888031218032404 0.10307526862563537
Ni 2.1439724868337775 6.233423960917026 4.277125607790849 -0.39014999232679903 -0.7397508595866421 0.4159427850201869
Ni 4.258261957976133 3.8245445604598003 0.9428679254437009 0.22790926908460107 0.2970971409341722 0.7547311350455582
Ni 6.222250825765255 8.340077989658255 7.318909442476348 -1.8336737507435776 -1.8239778636120523 -0.8189120405988413
Ni 9.27121925704751 5.379159837312221 4.823537654692616 -0.9010436170932741 0.651830187214258 1.4102809372032488
Ni 7.862302782687987 3.6936779315309507 9.599792505616396 -0.45384881603734095 0.3918577190465251 -0.9770960772731624
Ni 0.20273593060058093 6.223716307986498 2.678095951924929 1.302694410970821 0.1479037377942356 -0.10756312919365991
P 6.030814043118909 6.776501802408423 3.611351434111074 0.19431806339271696 1.1854348804250034 0.5983478990254018
Ni 2.3799897987072414 1.4973867959706253 11.318934764506103 0.2816625515466568 0.9133576585739367 0.36872910344886173
P 1.4176906991236553 4.079323778477842 3.8327120569157733 0.5219848495836301 -0.10699028740932541 -0.3562926774577218
Ni 0.18000228760798373 0.6154670626518117 12.57037070605647 0.13194387203086955 0.8573796005464203 0.47341002599872023
P 4.3927689567539305 0.6775316348637099 3.1413768863273854 1.1889120403403268 -0.06960747588549303 0.10945340423783731
P 8.44144828852896 9.125828485849524 0.7355796656756022 0.5415470879862738 0.2062711219895351 -0.040073985202750344
P 2.4194924787091594 1.99194504137271 8.963281304953165 0.771850054114032 -1.402072176140211 0.7835750558604441
Ni 2.573424117629677 5.701603263112377 8.893702636001771 0.6844276615343051 0.8912891088096716 1.4774029276627265
