# total energy = -381159.8366759725 ev
CRYSTAL
PRIMVEC
9.28022510893938 0.00000000000000 0.00000000000000
0.00000000000000 9.28022510893938 0.00000000000000
0.00000000000000 0.00000000000000 13.58254750646724
PRIMCOORD
 96 1
Ni 4.696267219296311 3.43536302765201 12.191911572163281 -1.563806906280268 0.8646100568565884 -0.39998317636713693
Ni 7.320297282653814 2.763381924266688 13.48971115495147 -0.8159560432943109 -0.5732637023632643 -0.07481190290456795
Ni 7.9433159181277855 4.52779401185456 0.947327239743052 -0.5610602183185369 3.574910429301656 1.3217167177095945
Ni -0.431053466077938 8.389147214740605 8.741890428880874 4.317450421597662 -1.8843908174824708 -0.01047904515445292
Ni 3.552210342563274 2.5832063529060187 7.640495675202286 -0.034967517214120426 0.07602263538321745 0.3499230264859522
Ni 9.094026716296083 6.379792864443822 7.196006299146702 0.23317668813112744 -0.5182359240641591 -0.4081423151391616
Ni 4.0270701834571225 2.625496338931802 0.5853260729893718 -0.46236816636226175 1.516775515923078 1.0874457680730238
Ni 8.926314487316944 2.24422756871384 11.730907107424029 0.5596152583418943 0.8266070952502539 -0.06964604243291231
Ni 2.207143788999329 0.974692767676523 4.859577837485012 -0.17595730149734212 -0.022172936552613428 -0.017165198925376886
Ni 8.423558289610826 8.174245040854485 5.933698937459151 0.9002095512277529 1.3232480667524567 -1.4673856526360405
Ni 6.263762209346091 2.2710938205340376 11.403934150513296 1.0835132657878372 -1.7297399907723887 -0.6305756487108559
Ni 1.8457996621865362 5.1337648737210335 7.8922477671290405 -1.7424759502818183 -1.2412039077655075 1.6963087076971366
Ni 0.8652009592221467 4.944039950677124 2.6472788834127576 0.6889823707845231 -1.1298831113016283 -0.44672788872184355
Ni 7.047588586284789 6.6417457798596145 4.412032483286288 -0.7716356241103808 0.4660808393271586 0.585205705216489
Ni 5.179553504629792 3.3952074934115974 9.469195594520464 -1.833348249083359 0.40666830169679635 -0.12592594797156378
Ni 4.445246409111673 8.47738359550276 1.6318347910409488 0.10970305835479814 -0.7293857143022341 0.6718716792461655
Ni 7.8423099475540266 1.6015255756886984 6.329929286670039 0.9000012918716886 1.199645624707747 1.3025619991580146
Ni 8.568413324036202 6.170848595106431 9.309695436779906 -0.9835210069628998 -0.0005538156209409817 2.0842328960172107
Ni 5.549286954981603 1.2689037457268597 1.664174519656847 0.8275059529154395 0.7704608870759893 0.32345943297778484
Ni 2.2719104803475703 7.711802141216396 1.4101534126799917 0.7932084651851501 -0.1102501891075198 1.099788348798777
Ni 3.7943592575008958 1.6084950247791883 11.124282917706728 -0.04232164358634647 -0.8409862467900613 0.08382439081582338
Ni 0.7967166096773003 2.9189370582943743 7.791152706393806 -0.31286185996759663 -0.6626866703127878 1.3392740098670675
Ni 8.641300212394004 6.69486578863986 2.755355457531182 -0.07292085652944216 0.7992423300840559 -0.5506333665582582
Ni 1.923846355729839 3.4750731110850417 5.991017320098967 0.8498889485963299 0.6030720439739485 -1.1166686694938832
P 8.230399683260018 5.217221938528992 11.533579823934142 0.17553101259320092 -1.9624816482486265 -1.9373344595590378
Ni 4.691042452534732 0.6429664794420245 3.889783172644655 1.655976069516361 -3.6558790958362395 -1.9563133146543856
P 6.857316129956806 7.374976369259895 6.9857488779500505 -2.6093094971522865 -3.734811962887716 -0.49555905129193356
Ni 2.096820472371174 2.867598852743655 12.378509059330366 1.1165807377657673 -0.5487109527245647 0.29020144225560346
P 3.956911681294534 5.35611906840564 11.694871993151894 -0.6006945448807074 1.506007992993929 -0.9698347677250588
P 1.4938656836796784 2.7336016817482025 2.0141151058006725 0.005562581689442033 2.120422201453574 -0.872193525630801
P 5.556024398443249 1.5028303811782313 8.199743387487016 -0.5253745919914693 -0.37023268457758174 0.26540598047847835
Ni 6.445849507088439 2.9277068710646974 4.5663032341526915 -0.48443234525115286 0.45658626957316206 -1.0724688350482174
Ni 2.985680437600371 0.5353789731892041 9.069311620666532 0.11447168338803511 -0.6203038344712027 -0.5306692647315054
Ni 4.801885461771498 6.472511593955254 5.674611755570846 -0.7034682231055239 1.619377958677353 -0.9497683359924868
Ni 2.9847802557604544 1.2951482224617539 2.653527259008799 2.1622177973331214 -0.25848431365798064 -2.4192532943597174
Ni 3.5220867317140985 6.0796425422950655 9.563620957437676 1.3261834952316967 0.7574950709439406 0.17058215322835782
Ni 6.557982467621582 8.575948866861074 2.9751343897356137 -2.348164091722375 -2.183868028613045 1.8701229947095468
Ni 7.954758435742398 0.5598834077077642 10.270837219686875 -0.21060420214725017 -0.12784296248861854 1.0049148992576433
Ni 2.4761682359823025 5.4176005600494435 4.417777870678995 1.434421539005194 1.174802854632454 0.7064005662609705
Ni 2.776587684660519 4.898316281344442 -0.20665854988201532 0.9254783530968707 -0.587620999526201 1.2728621581007369
Ni 9.474181859495589 7.871978827370667 0.770275392169146 -2.715980710659297 2.5362798829591227 -0.4466237590438115
Ni 4.499879094591985 7.922815900763082 7.916506275681025 0.5376577802341965 -0.7395503135400618 0.6804375665383056
Ni 0.29702103022690174 8.073508196810186 11.158334847863498 -2.4801133630698833 4.292063863203756 2.8498655084666207
Ni 7.505400653571141 0.6882103611342556 12.71990627019762 0.2752772168456033 -2.2640183130113916 0.4433648857868816
Ni 3.063049674707448 3.5121197698989377 3.5452353253376914 -1.9064807074029748 -2.3671347192876073 -1.7221853183535822
Ni 0.5260690513149304 3.6808992247707626 0.16796465110332312 0.6989029723323448 -0.1906241594808975 0.8225522084545898
Ni 5.397610955068197 0.027777569930298954 10.092471292231194 0.017916732379420756 3.3717606265499227 -1.3659787728517636
Ni 6.559959155579338 7.961681483707118 0.4554938670429371 0.3904541538307792 0.3238528117614616 1.5134351386959355
Ni 5.933729562202158 5.321865757363032 10.849928837417938 0.9753924643184945 0.24451833839619178 0.5376289838787902
Ni 4.26083905508088 7.767427810788163 11.099590094617545 -0.026766983681199064 -1.6029059291642587 0.5285866711708639
Ni 2.785505981033303 3.951028018547036 9.978010851229483 1.4785113302355568 1.4854340254973193 0.0933313018649941
Ni 5.982589947636818 5.5006585751757875 8.489377358491508 1.3045726018301405 1.0208130585451387 0.48330440229429666
Ni 1.3186735932265903 6.630711592151768 10.343449413380124 3.0710816818017626 -2.001618209238772 -4.731083584648065
Ni 7.915735088970746 6.813671231058572 12.716035488285979 0.7894952779996209 0.1976628114952338 0.3378486118199213
Ni 6.546502829106354 5.128567947634916 6.215822422246687 2.0510625799128293 0.3398085637597696 -0.6437684932520461
Ni 5.822988635442083 3.0951035723886093 6.674206151402512 -0.7886488708389257 -0.838230281311479 2.2508468086264397
P 1.6225452856620135 0.7301885315948711 11.826147274109742 -0.04219488820049508 -0.610219196541691 1.0257174378252916
Ni 0.23579660081985868 4.220971207820234 10.01878630451017 0.1951192191377736 -0.8163069988758264 0.6478354642325682
P 9.539050633320523 1.1333382166804187 8.756641346762809 0.01010186432069228 0.20342028280430127 0.1330029094230032
Ni 3.4417571027829656 5.366392277650877 1.9495711398561215 -0.5640750938854608 0.9896055225940829 -0.1261321504450989
P 5.946777558768375 3.436420973319541 2.4374288641003563 0.4986693147861412 -0.4182863455516989 -1.336065530232099
P 3.977086890778855 4.189000832165457 5.46969231988265 0.527648989847943 0.7448161899246915 2.0641824051242383
P 4.718187111109542 7.412449918430865 3.6739566883332184 0.3208142820454539 -0.08033540382595841 -0.43855666576496083
Ni 0.5611919194544475 1.1011079947213356 14.035661232613348 0.1462471760274191 0.2588756355591284 -1.5097384065706385
Ni 5.117951370058991 -0.00295853577902556 12.915888849062725 0.2657407381100778 0.7774766562721901 -1.0299391892161232
Ni 2.4130348642611263 6.85857824057772 6.644541911698449 0.3114346406027668 1.6565257713722439 -0.8073533892269644
Ni 7.115278548556472 -0.17773208807767824 7.934421750340401 -3.1326428903440116 4.126327725213791 -0.335012685033023
Ni 1.7963082214414194 7.450266835932525 3.6314031439130683 0.09418902187959907 1.5614440624750463 0.041323798449451415
Ni 7.874855697168338 0.331498922718231 1.8789551225934518 2.5427518638367115 0.6482812935207352 -2.9258765738856125
Ni 9.776624397257331 2.7155330833737903 4.249463355087374 -1.127621311850645 0.7616060077885206 0.5505521196983615
Ni 2.82056667166429 7.545751072539784 12.868893788883975 -1.8622397353067282 0.5316077173853748 -1.6277512703427128
Ni 8.102109850734141 4.311379161268374 8.083911329207575 -0.5378899508496607 -0.3562646524332639 -1.1669334791867065
Ni 5.903902918557904 0.10283510295156881 5.793771702590432 0.4607334589723162 -0.4517183999578994 0.7351812379380888
Ni 7.211913533082799 2.600616055294513 9.348650109885417 1.6138670561614528 -0.6099708279763109 -0.9000974511299208
Ni 7.550419025792135 1.059152096801089 4.170277049895187 1.0448387320357748 -1.21411605040978 -1.2557576372099664
Ni 0.8831934597502984 0.9224655165560711 2.775905588111716 -2.2118187481897005 -3.589247414749619 -0.19387557653865967
Ni 0.5535227413873625 6.1762496861459315 5.057706004405671 -2.399687456412648 -0.5730117342534583 -0.22371528560791148
Ni 4.042067027305634 5.220850506564121 7.466054354964138 0.06690833178677509 -1.7321943658501522 -0.8209704657897667
Ni 4.583902253134323 6.507191795354935 0.06038364100811045 0.18750772533910287 1.2679179267215843 0.34318159399706055
Ni 6.728970616080008 7.5788814763387835 9.65059058746634 -0.04972539224958533 -1.5854365687349017 0.41793487574955124
Ni 4.105441684880807 2.1092466938520875 5.140940343809938 0.4299802369498595 2.359152215302763 2.731176958783761
Ni 1.312177435618943 -0.1266555848762953 6.853630952548239 -0.8319663026796381 0.04554734961249575 0.9032197988089864
Ni 6.133291523909077 6.256774199805294 2.082082546804453 -0.13190067749775994 -0.17188184587638786 0.08494384913224726
Ni 8.44361285616815 2.493420174543182 2.0361463603157497 -0.24264837506698855 0.826437659551925 0.39629595732353684
Ni 3.6115573824217067 0.24882325286822185 6.5235212795355295 0.2828594000682354 0.1431705939846244 0.32659720727581815
Ni 7.6905411453890835 4.515989565458949 3.334338496627944 0.236876762690534 0.35566764227921327 0.6199202258795389
Ni 1.6143044457254554 2.2710845403088835 10.264168449891368 -2.29480855891937 -3.156327892665777 -1.8152039740741641
Ni 4.832343160726209 4.854829146273822 3.6248967780577526 2.5743026420597985 1.1463654252273676 0.9528852843549137
P 0.29206260592723626 0.2803871546612637 4.7087027210023775 -1.3241320120193065 -0.30446437993252085 1.0054008377551265
Ni 3.1904207649431 0.61640276296184 0.0827109347055935 -2.795386146471818 -0.1916842253142957 -0.048027178611556
P 2.2509093308245625 7.732005191376179 8.697000123767001 0.30726919637116756 0.3518552105116585 -0.7544470281462362
Ni 5.817522582826506 4.758825217057952 0.020900923091346824 1.0005257690510123 -0.9185865110730438 0.7941322625510001
P 8.940114182120615 4.018662299467796 6.098563993361111 0.10107315059394205 0.19227532193107533 -0.7255653121148794
P 0.8078036946685232 5.981949612101207 0.6961134008752161 1.0272714125759725 -1.8996107197560188 0.024237018170493743
P 6.515432635291493 8.153782144390398 11.726764414915381 0.16026791578654334 0.42703066740323237 -0.17006767548578453
Ni 1.1211440008283498 5.515952386229221 12.068976429551137 -1.8550267624980568 -1.0729015517102618 1.7772395790152489
