# total energy = -340874.5373497748 ev
CRYSTAL
PRIMVEC
9.18324959339316 0.00000000000000 0.00000000000000
0.00000000000000 9.18324959339316 0.00000000000000
0.00000000000000 0.00000000000000 13.44061403702524
PRIMCOORD
 96 1
Ni 5.751561135960149 1.8316083411224273 5.907243850241923 -0.3096901471078344 -0.0872724972654239 1.7111028352871758
Ni 3.3165306385847386 4.207526260010865 3.3831238922985998 0.6996737890600983 -0.7172989583410292 -0.9412968081863661
Ni 8.14748935600178 0.9246705981717732 12.384141210843977 0.3251867000815367 -0.24315642505165866 0.8034599677098291
Ni 3.764149779984533 7.710807465025782 5.712892308013442 -1.6319820205946087 -0.9107726714555798 -0.6982213728842878
Ni 1.2784185608712684 3.969450510861455 11.168289967006643 -1.4376490448035562 -0.07637410518536525 0.9333533849695732
Ni 5.163621938745387 3.496898846455271 9.939603295027124 -0.15804288311076653 -0.4028291304563643 0.490393190820278
Ni 5.930487573623681 0.41856242094140916 0.2841306648508256 -0.4185753375470275 -2.1019038309344125 -0.14982666584856133
Ni 8.234702678650649 7.649867419843314 3.4942770286584666 -0.1744118113870932 -0.41823055261309905 -3.1345460209039953
Ni 4.684540983783939 0.10327298976989133 4.241938651709518 0.18662249452067217 0.3679865688558823 0.6950095508152095
Ni 6.876986756394419 2.5402613559869076 0.7181815547802924 -0.05892582780193077 1.1180254406320937 -0.5770331967080256
Ni 2.771137437351047 4.3569193665552275 13.141506773880609 0.3602190090953215 0.8756699142151758 0.7909736623173603
Ni 7.333568749526897 4.144519983640023 9.09015636866181 0.34146538263690224 -0.2225742300249328 1.2731508929857493
Ni 3.452874347268298 2.6189985391385773 11.70990701595296 0.8172475084122248 -1.8693614339531743 1.8169091296907287
Ni 0.2827495040920186 4.122232236554752 0.5774344778530627 -2.271413834144514 2.097241392461737 -1.5434725655982902
Ni 0.6357563785386168 5.799525249279622 6.459881717184543 -1.2902063058061393 0.8582146948532058 0.8491435857898731
Ni 5.9377790739062135 3.8952131200755797 2.7420329639940855 -1.0492078076377478 -0.6707074837347352 -1.1916903744164122
Ni 9.07511696058536 1.0958647395659216 10.129787478529897 -2.120265621271052 -2.129484054545526 -0.9003028822725075
Ni 7.857105816412446 7.499207024836749 13.029345316700816 -0.6424551737572612 0.179970022201161 0.292443958432877
Ni 2.0810529534327618 0.640720843340552 8.48257328195793 -1.1533032899977815 -0.18992199120755035 1.556270745804223
Ni 0.3713522524244487 3.0370935326689277 9.222559544887897 -0.15435463562590188 0.810371607227998 -1.5776996051019603
Ni 5.497469799288401 3.9450322498397283 7.425966016646156 1.7172624271306682 1.4960097441306364 0.530268429748661
Ni 6.655725537493517 8.169620987841705 8.47683375087911 -0.6032414796722773 -0.48304214977184556 0.31876305594338006
Ni 0.5430404526538618 8.142943647387355 0.5869418962945048 1.2298967102828045 -0.2962499624425285 1.7513223449288549
Ni 7.269047236951247 0.14801837406036378 5.4209760840448205 0.15285876780666577 0.8382953302214595 -0.037816813737457454
P 8.638141205618128 0.5955548662126237 3.734232589026811 0.4280110290386306 1.0007882786837796 -0.10467835144669714
P 8.962576235191879 8.808747619029806 8.374914372118848 0.8092549771250513 -0.44528652828962667 0.608465704185694
P 6.891018761975915 2.116426831377739 9.821970457660516 1.6208568572157245 0.5467754262647486 0.9646521950828546
P 2.442459746403833 8.993211556278183 4.244237219115964 0.5693358280637678 0.5720948788661437 -0.016385897557191137
P 6.338554458453119 8.441693127477176 11.715041370874825 -0.4452495044041042 0.8089734413288906 0.36040541407451476
P 1.0560002525048766 3.7718728930041916 3.446778506100106 0.1622911168641592 0.4019019906564046 -0.09190228272795141
P 5.892377087260323 8.3163876849644 2.7659847159297266 0.1715152065655885 -0.08602731200441313 -1.5838522549669174
P 8.605788616833042 5.5103171656552306 11.170776791032475 1.4523652679678083 -1.1666588853690811 -0.3000307696411994
Ni 5.387757514810563 6.791389685697345 0.18330409280797008 -0.680088410729003 0.669793199450582 0.5505508341467809
Ni 3.7550399962562317 6.512604590512088 11.879405929447666 -0.1927975129831325 0.26839565923442166 0.36426129748549524
Ni 5.201199796624631 4.537535522168365 12.439059799181033 -0.6893888621943224 -0.6579175310589186 0.32595108905138703
Ni 8.67066827614801 7.582609298849283 10.609026385386633 -0.7273594279008248 1.5340641278001967 0.39062127553626275
Ni 3.8822831044612163 5.258117578427063 8.911718479883708 -0.428287679738785 0.6012149361605517 0.5375446516951001
Ni 1.159734241411019 8.68795115213255 11.941528777194858 1.1800875000701612 0.4848727752226811 -1.7514146475323449
Ni 8.087486002291374 0.36924836991219684 1.5676459293200853 -0.9250479504276713 -0.38624448662480576 -0.28299489720483517
Ni 0.4687167393205606 3.786079380330485 5.533151316099203 -0.4321651604163202 -1.6438733727155557 -0.2513716138725993
Ni 1.9136790439246751 6.284290635821533 10.263965776928039 0.49879375617914745 -0.0002514538891737605 -0.2403873469469537
Ni 1.1406238987309831 6.0913872920748595 12.501975161379589 -0.5990544381741232 0.17187593233911688 0.8994616173181348
Ni 2.7580237567421615 5.57321324302936 6.908623970025841 1.8077310627358867 0.2926571028849476 -0.7305028586258129
Ni 0.19896704354082378 6.51382596272566 8.748697430745798 -0.6433347481487373 -0.5577054429136911 -1.1814026193371587
Ni 3.7372795912859345 8.682900364783189 1.4772579572408993 0.511981458514015 -1.0917631645014552 -0.22111667164279983
Ni 7.036830401127094 5.17964670951745 0.4772075720173222 0.5953139972950844 0.08654487507077999 1.5377189509439646
Ni 0.15349250922209817 1.092320005171643 5.813106357299566 0.9624688142782909 0.8026325867125274 0.3319839255090283
Ni 3.9760349009150766 9.333028529143169 11.877914569692146 0.32837949598722155 -1.2988904638436984 -0.6075917862211729
Ni 8.62621216422391 2.6002279766984078 2.4659495808782506 0.6237568260168096 0.1235052543452131 -0.8486507053138546
Ni 7.41572210157668 3.7999920036655417 12.150893096075583 1.1692603275476703 -0.3715591166984891 -1.7342936715813422
Ni 2.166126578895448 2.095479838752481 4.372970768751496 -1.3286160159325893 0.32628944622741224 1.945287138747211
Ni 3.17279441387166 0.7170970129876388 6.4368179854974175 0.9514935462137097 -0.14093476267557017 -0.797133254160853
Ni 5.973612114337495 1.264570220284294 2.4989863217679322 0.1619419610548566 0.21817430118502423 -0.019373776540921473
Ni 8.089919563468795 4.857222811633717 3.038573872524777 0.6322679488116143 0.9394299301809563 0.6458629138872296
Ni 3.950946262663343 3.4426258405739594 5.68363263773611 -1.0521668902660717 0.23849295813771829 -0.021210572639344116
Ni 1.6533063644402697 7.901258881095584 7.044480966473917 -1.2497078314714605 0.46474772233803185 1.0682499118708633
P 1.5210951181334595 1.6302196746288284 11.185548048216923 1.6225879809742183 0.6185133182296831 0.7876906206907144
P 7.736217517017931 3.050271496025896 6.499545091076587 -0.17500882154114378 0.32118297823878234 -0.1902634337073691
P 8.772988044596332 6.29059952838337 1.4464114214108947 0.3004693998405148 0.12148770969455207 -0.568812094349814
P 4.903240076011256 2.413927389504808 4.011727437625549 -0.20767108766085526 0.6486726154218828 -0.3467099188652932
P 4.437383000655406 2.0797213822224756 0.3621625744235301 0.513942696005444 -0.2823665195922169 -0.3161359027331781
P 5.925556168520759 5.962491198919176 8.907363782863586 0.9840789363488988 -0.5096335271071287 0.5763703663130461
P 3.87011529857412 5.609937058684075 5.049893819162319 2.2417029373436423 -0.41786237064040294 0.21022419310001214
P 1.5176881324850726 4.714965090126542 8.427399399278485 -0.2710711491840557 -0.18793992778051502 -0.009242344533874406
Ni 3.60602340295064 7.960114328590225 8.197685917329672 1.6704706635881101 -0.4663988847882097 -1.5397480655588516
Ni 7.654192730464312 5.358922110670576 7.206292581622899 -0.9975224634483141 -1.3153815195201863 -0.7725612212484437
Ni 7.302391616706752 2.601164668170471 4.245204215312123 -0.033159517471104176 -0.3343177158485275 1.7355337146360301
Ni 7.5442416814935935 1.2816051485262285 7.838982673077967 0.3684362547987913 0.1314031690360511 0.050413419455545436
Ni 1.4945187934260962 7.637148618972652 2.801440324797266 -0.5328423611234243 0.872287370896188 -0.38768276173322913
Ni 1.8801785489238247 3.0700522159359376 1.5232917514679452 2.6727483823332228 -0.6983622693375263 1.7607199840936707
Ni 4.896876083951062 7.590975239349769 10.111400775928278 1.4238095678173026 -0.6863192221300631 1.018224471882356
Ni 0.7685801476021584 7.814302689439045 4.993564683667333 -0.4194397424298518 0.7950244353479662 0.7671387646812917
Ni 2.491801347182224 1.0628234070513767 0.04149635053737465 -1.0731949145809647 0.2597678083560946 0.08940059935202023
Ni 5.36500142198926 6.3750854258635865 6.8673470991569205 -0.1011993917591612 -0.27536849100782895 0.16507562158783182
Ni 8.094042842595817 7.504404744181728 6.8269049856881034 0.739538743575836 1.4982116368779617 -1.2502318222957307
Ni 6.671006465037764 6.251634999795485 11.435288361168437 -1.7168785614286883 -0.5369766950067719 -0.9307347163998035
Ni 6.082663204835055 4.685688889999703 5.148696402965541 0.30039278096630845 0.2735797745385224 -0.6827286765653274
Ni 2.80668579704082 2.8045828328535407 9.577754787744228 -0.10899780475765745 -0.13204543060574034 -2.1760210217648006
Ni 1.1458859008240445 0.8587835363618496 2.1593153625735915 0.3907670570855077 -1.095215384716114 1.1418400265531885
Ni 5.974163109321061 6.2132490159403435 2.7161334447915366 0.02870559546480863 -0.5751362367956288 -1.3540696801190033
Ni 1.832747064088465 5.714956702551873 4.508600020606364 -1.2029356083129281 -0.1671006224376606 -1.0984858279372696
Ni 2.0052268604442687 5.737988292864958 1.5986935783190914 -0.7101595190827704 -0.20348944547933986 -0.32649410603905066
Ni 5.363954531520484 0.7000740229703482 9.683304305121222 -1.1031948033771646 0.31531777770725694 -0.45388943946728927
Ni 2.1062885236801128 2.595829200079601 7.210379127751018 -0.6914264614496415 1.767928586026968 -0.1955460222625471
Ni 3.4097130735555794 1.4018689869393695 2.7133105138257303 1.2445748811202695 0.9177617011789032 -1.9081457538102233
Ni 6.330868078432365 7.385334728232981 4.716687867775161 -1.805983998137793 -1.2910704535786475 1.3976365089663605
Ni 5.911046633953506 1.801101585532289 11.8490442692032 -0.1682941285251295 0.6214780572849619 -0.6886234447832075
Ni 3.6190636175617166 6.775759794663505 3.187132221669036 1.1377229190610212 0.31778757940398816 -0.33814017491841114
P 8.18049395551742 6.147423481903585 4.995150630895031 -0.18578817154483487 -1.4548849490658684 0.6349719780063386
P 0.35160826551331154 1.9817820238935093 0.4415499316558085 -1.2934659503940178 -1.0671965309056843 -0.7171277228704875
P 3.328018883992102 4.590770820830627 10.986492845478727 1.0220101641770334 0.9309002954433903 -0.45984951370546606
P 4.065828716736983 5.091974224382275 1.3799072452193764 1.526040486164772 0.23858423229994394 0.3004462599120632
P 2.622543273532856 7.574821903081541 -0.04167817888195164 0.18679681531500733 0.6041619346040176 0.5220933501370364
P 2.8524459304260277 8.292511235676514 10.085285450357167 -1.0010631296117212 0.5652958536664393 1.2346738199564737
P 4.3726135403371496 2.317494084130924 7.701512179653014 -2.5315626799891113 -1.8502136573801298 0.9070057482139798
P 5.538298527570689 8.535426557431583 6.533267820720809 0.3555133760895361 1.199214193597283 0.6044031040805462
