# total energy = -381166.7621647345 ev
CRYSTAL
PRIMVEC
9.20183571602267 0.00000000000000 0.00000000000000

0.00000000000000 9.20183571602267 0.00000000000000

0.00000000000000 0.00000000000000 13.46781670620356

PRIMCOORD
 96 1
Ni 4.077406919426498 8.887224732686628 2.9668254319909764 0.8489769783050217 -1.2729500898288528 -1.8878132129004583
Ni 8.729118795331432 1.2100045593329545 0.06143697481932838 0.15864992056714614 0.5706581464196172 0.7429140878059721
Ni 6.189660650195508 0.04718333164838214 3.905276464604008 0.06862480025724955 0.13769440136140157 -0.22894002434196056
Ni 2.7621977749589868 4.4705553406522425 12.691019674794532 0.6422821385145068 -3.02814014524323 1.5204028282630202
Ni 0.2754615462516857 5.929515559113635 9.780435861306348 2.0098776210340867 -3.273052633754047 -0.7018833951169073
Ni 7.093740986893679 -0.26319826009679864 10.849996486319817 2.166900033300139 -0.3134347017519312 0.7277389227274306
Ni 7.670539640789369 5.330172408272291 13.231146253719809 0.08389098238770068 1.0486550204580714 3.210178105717014
Ni 1.9474580590140218 7.9265070985596795 10.335471254089317 -0.46208303102167514 -0.9061647403699233 -1.3776891193101561
Ni 8.314106812986147 5.432137947315065 2.384301396054639 0.04363727707397645 1.2538881881013952 -1.5113255485521004
Ni 2.5260326671588995 6.628726230506483 -0.35882465467187313 0.22596242977087536 -0.21353628819238063 0.956948912901326
Ni 9.147866722884855 6.310839621737271 5.372069285432805 0.0681368048772375 -0.18747070145358036 -1.0674495274567553
Ni 5.433177754725211 5.145049881924263 4.899860534061072 1.7704590657583057 0.9771606119625107 0.2654000669412075
Ni 3.5718672795500517 3.0000560204888704 10.744367696569261 -0.3777228223070398 -0.9642127935525909 0.5114728943087127
Ni 3.137310598628208 0.5744365427259143 8.799049984489754 -0.6406456313523483 -0.6903010895959467 -0.4563515278545367
Ni 3.7605141088899927 2.6775592921401596 0.6068408063969841 0.28025795788964636 1.7782680202797632 -1.4780750140290866
Ni 6.4722122106907145 6.848024373857026 1.2368288299640877 0.06500185879268161 -1.5747832027861137 -0.02571771648107829
Ni 2.5439026316766387 0.712351812653292 11.27883790722005 1.5086127776066276 0.1450806665231437 -0.5603313105723124
Ni 5.389045751724657 9.024010017216076 6.538193972057577 -0.057240726790023996 0.15208075199006066 0.2394509511756134
Ni 2.892799426040485 5.621152850074527 10.91399525213901 0.688054459653615 1.1411388867211056 -2.043472426270397
Ni 3.323242886499183 4.301848888814845 2.32027594491253 -0.32160258227470423 1.109871958287024 0.6854787285066388
Ni 9.161678677952375 8.68013742502869 9.09563802483839 -0.7179697591558087 -1.4098983570528492 -0.6205612018976474
Ni 0.9875869937519723 1.4189506377594725 7.154562358918859 0.06441873259570197 -0.6770784202580855 0.12698138581927165
Ni 1.2810979403134135 8.223643568303402 12.627869318207335 0.6235082003411133 0.40456668197276136 1.0007437985990892
Ni 8.426102352710865 4.386294133088424 4.299560392328974 -0.18521790086366163 -0.8180291237732557 -0.35324386332906904
P 1.4619324113240235 2.360666481603655 1.086329129823291 0.0652078041559006 -0.6339638484567984 0.7783009519456984
Ni 5.248561329329023 4.018294328251445 12.395239555601746 -0.40619136206037787 1.2857534122411083 -1.4179160851510033
P 5.808014523329791 3.918297982003108 1.0590144013606462 -0.021613464504717614 0.02552308397176895 0.6026861213894394
Ni 4.501059425295036 4.579514274665913 9.28752758100431 0.850870852893625 -0.23847727440843444 -0.4341137995022588
P 7.6831921645853996 0.12228779271806973 6.776291465310149 -0.4362544999943454 0.4998476513649585 1.3394156776512545
P 6.706021648605868 6.421298454935489 3.4177411360434258 0.49801831146570363 0.09204420762245438 1.82566887816123
P 2.387885510977224 4.683126942261041 4.514196885821285 1.2293426375515473 0.06570762661045458 -0.7628326811067702
Ni 4.418353327928693 3.275439351138908 4.513765319736897 -1.3235740826333076 -1.4353615343209603 -1.0533935635843212
Ni 7.9290376033188865 4.550500887372179 6.4910566495866355 -1.1037000251483573 1.2864098148781844 0.226725533189145
Ni 8.503406972645738 8.09529636691647 2.6401630327168375 0.07577118149404369 -2.0426296186541273 -0.8423651294154589
Ni 4.294211365359787 7.203196820023703 5.285969551138479 0.07451905425449748 0.6215567330416972 -0.7242851598508753
Ni 0.7895009215684181 5.284190836338645 12.039931842453393 -1.2854626204735669 0.9166484135100665 -0.2482721490116692
Ni 2.616956003616046 7.354428986269347 2.0264751405332166 0.07099072938626484 0.20850566774700866 -1.7333930141439435
Ni 7.199966975767406 6.263468572644933 8.504979566330642 0.692619196206162 0.7261042153374849 1.0700540549591377
Ni 1.322625823870857 6.207052119267869 3.3438973264355973 -0.9039307088330819 -2.437801232565234 0.22422899201953644
Ni 6.155291794647745 -0.04712259953416119 12.886881663340631 -0.1405652951512934 0.9000550279277596 0.7937129156253944
Ni 6.470804329861048 2.250115630050557 13.1613963407206 0.9341851368422492 0.07599383902781105 0.5348673619732531
Ni 2.623526114154494 8.907146706518196 6.3646611575067125 0.5339386795113966 -1.5451684652434745 0.7176162324711319
Ni 3.185997510195333 1.7924531402182895 6.4391647387190325 1.3167498606226227 1.9037172857252245 -0.7148468972561108
Ni 0.9215454204544377 1.4962828632008103 9.477517878325502 0.2116141314690033 -1.1181059161610423 -0.08244550819042575
Ni 8.349699512653816 8.111583615730268 0.020025954572582504 -0.7767441489815398 -0.39721564092432876 0.2781825634178564
Ni 4.87671515725805 7.2534204381173275 9.371283607799835 -0.5834797236643177 1.346120600475256 -0.5033793186673008
Ni 1.4447617863033746 2.3529737471356684 12.412088116380316 0.16870627636188362 0.4196284614018902 0.6242659044427442
Ni 3.135424222353164 2.0237228715387494 2.792201279751232 0.03536552398348748 -0.8143131083742492 0.6267033102396433
Ni 7.451581965351883 4.950026180591122 11.091433325670991 -1.071340120760413 0.2905161452825448 -2.30997986734317
Ni 2.376208381742924 6.464271026664552 6.4154074398560565 -0.8363834579107272 -0.24582934389813146 -1.8459674805092658
Ni 6.674275316172192 8.629702164718841 8.68519291344581 0.41601014792301255 -0.840485653004559 -2.6212476433507694
Ni 8.102795862839207 2.427048522814246 7.169282535149049 0.560392502827551 -1.4462121038822189 -1.7299415652602335
Ni 8.420921719331108 3.133077754303718 1.5334453960027363 -2.431025090183665 0.05589912516046502 0.11951207402542
Ni 2.472321553415315 3.270847635230385 8.421493153314914 0.004462406646727798 -1.6489448737011925 -0.9931587871629798
Ni 8.250788982993068 8.69642467384249 4.837639562858164 0.016717312754680885 0.34882979342177345 -0.2306140696102738
Ni 1.4347685929633824 8.24003203730757 4.28644225565725 -0.040625743941162286 0.2183833318720368 -0.03558021109745486
P 7.901625335400069 2.3689573353783624 4.614033120132129 2.6823774207825544 -1.1051876654374773 0.41983363543416075
Ni 1.2390547539686403 3.4374468667410247 10.374636106293435 -0.6649677530374806 3.295236111829621 0.571333575220087
P 3.0584600703313463 0.4864688358275205 4.4183192811373875 -0.774543284675479 1.7092590972102175 1.7426955224917922
Ni 1.2991059323634726 3.5996844282303426 5.960209201567482 -0.5563080483455323 0.22246033015488784 0.6354787424394281
P 0.4813332914416554 6.776507708444118 1.022569611726786 0.9939851397190173 -0.3952580029773258 0.5654863724106906
P 3.1983187679137948 7.591578690466652 8.056622892727411 -0.21079446378118535 0.589416657974043 0.12559993209071274
P 6.466672705726926 8.831323582096894 1.5840168434778081 0.8361451166476761 1.6678921042276567 0.8495989281597368
Ni 4.970270218664771 2.017005531632493 8.201671425525102 0.34450751189733575 0.5930285436950175 -0.37805475172516184
Ni 7.67146902617366 4.003967070396594 8.790780294936669 -0.3627237777950463 -0.48612181713843383 1.9707513444565863
Ni 6.479122789142219 2.6465030973680848 3.185394789970868 -1.2076767225423395 1.619848213445552 -0.6418756471047075
Ni 5.925844026753914 2.698134596291377 10.336684056006638 0.7402681655426929 0.36068103633340465 0.6679168083634756
Ni 1.4575339339607492 0.3133675873610439 2.165260904097761 -0.8097892523619667 0.41592787262185144 -0.09278828487733051
Ni 1.1356813340962 1.595763906661817 4.648955926176271 -0.6388337749545902 -0.7995472629189844 0.008646362821088336
Ni 1.0761270548177209 3.3731628440217025 3.040346257173175 0.03327881665778785 0.7606834959742511 0.374352106062594
Ni 8.494444384880405 3.4725150617858773 12.51247646082044 0.107551302119118 -0.08645668623234788 1.9158354091449974
Ni 7.565077404261149 1.4726709533385454 9.07317358386148 0.3763521672117583 0.1451562569560855 1.5709586868337009
Ni 0.23806160609416865 6.392883186948477 7.726176698700597 -0.435269767483573 0.871913532496537 -1.395977118986067
Ni 0.475924452541796 8.146688618117073 6.486557872216541 -0.12198727503878991 2.5091269766934143 1.2113282032519979
Ni 4.670317987261715 6.24133815829624 2.8415608454925314 -0.6281451848924925 0.5934129236176297 0.16601535979328183
Ni 0.6907560249464528 4.521193041342828 0.8187434345658036 2.5026501107198187 1.5280058374212586 -0.764709843524825
Ni 2.869159910671756 0.6636943469597287 0.1782220699155609 -0.09345831436116163 -1.1641250632036337 -0.07914318329007014
Ni 6.205138137486361 2.110680216900558 5.779915798483567 -1.6733161034567052 0.05065536026302244 0.6001435574732439
Ni 0.03884830906333172 0.30876850998413047 11.535547953114243 -0.5642219038759703 0.6051605510718611 -2.51328470761553
Ni 4.366648214321497 5.695733726704946 0.4281420814031436 1.576805118312149 -0.8949950969063488 1.0366867923526017
Ni 6.702985042894821 6.923856700113816 5.966821640549174 1.682885235202379 1.097828911079561 -1.56482686290435
Ni 6.571343584403177 7.063190893073446 12.248453716263915 -1.7748397113245045 -1.3112569558288514 -1.2359490871244714
Ni 4.479435111898184 8.014614673357492 0.5474549207079359 -0.5411387968042615 0.24492688668852014 0.9146810053710505
Ni 5.26541909194308 1.3722053134803203 1.6795309756599288 0.34895114949098616 -0.5087886626083302 0.0020386276965835854
Ni 5.160260515985963 0.3171302178920962 10.144592059459981 -2.2881995382432847 1.3594440570570394 -0.312902483397545
Ni 8.105151532724141 1.1117933691692947 2.3627939459684852 -0.21989745452371806 -0.8276057117180973 1.1193166486396917
Ni 3.785846761988518 4.414884235949709 6.482531149006983 -0.8467576020561998 -0.5865285377929705 0.4991796787636565
Ni 3.997709822264739 7.938432677352157 11.600341757519603 0.5371134776949523 -0.37388133707376253 0.4908971270398901
P 0.45631626130036973 4.3658660583050155 7.899358923319369 0.9911430422845319 -1.8258907643640492 0.6332349407105738
Ni 5.26723185353422 6.121208196000112 7.412821073725688 -2.1302713263335114 -0.11749812891918474 -0.8139757796394884
P 4.80181221638555 1.427094262166372 11.993077016331936 -1.3223805765458387 0.7330546785133892 -0.19340712154267334
Ni 2.4686040118781536 5.526870843664252 8.485734847590992 -0.2669265308880629 1.0000326314646777 1.1720440609403944
P 5.803017926659796 4.026658796710056 7.5130345832915415 0.5756730831357053 -0.800190552929938 -0.5508148864414449
P 5.269523110570737 5.918491760198985 10.823033267972814 0.37201291640645606 -1.54268092293493 2.599299421214453
P 8.60113966736402 2.2831502194525566 10.998398167969345 -0.5881573316456451 -1.821298517007676 -3.19346362117581
Ni 8.58746573982882 7.1024275195943725 11.104821076122514 -0.9304575514790169 2.8414135210445255 2.714756351333892
