# total energy = -340867.87858141924 ev
CRYSTAL
PRIMVEC
9.25673215072497 0.00000000000000 0.00000000000000

0.00000000000000 9.25673215072497 0.00000000000000

0.00000000000000 0.00000000000000 13.54816318740731

PRIMCOORD
 96 1
Ni 4.827117465700492 4.211044902102074 5.241107231440619 0.719197975135955 0.565971025356593 -2.0006486462366513
Ni 5.763574792028495 1.7073024545110524 5.59619085531527 -0.31935081012605 0.3278750455469773 -0.25109881982718685
Ni 1.6129670953195465 7.35185418221962 5.995942841056137 -0.8304958887816987 0.40236196101195865 -1.2004727485947324
Ni 8.059161099678454 8.409047068348901 5.8009581055497295 1.085602287106382 0.2848630607618255 -0.7014928445467079
Ni 2.324430285595275 5.42521345511091 8.194959214329735 0.6990713795894089 -1.4504518529951795 0.16868210799216757
Ni 2.4281612281033715 9.311717321666503 2.7856784469080043 -0.7933383058947949 0.0548071776478669 -1.2096078781267814
Ni 7.221010270712219 4.204389311555642 5.65302534048493 -0.22194456686073388 -0.4023259655677006 -0.40497343049287676
Ni 3.899879844774779 2.0698331195464887 11.644307416812097 -0.48256469591479473 0.7784601032313819 -1.1408563224836805
Ni 2.220865964269147 0.7171097969980141 5.056892704002047 -0.33307278769783283 0.33511475782852607 0.4088192866015282
Ni 3.343096651760366 7.746885234471363 13.60669116447288 -1.2968484937130051 0.06536978365506162 0.024398740559338626
Ni 1.9132740056218558 5.079983622803266 5.866978046212053 -0.029485411053626637 -0.6392268966279507 -0.7474973363012805
Ni 2.990739135557376 2.5326789928596556 2.543126140969118 -0.8158277452465627 -0.19271086680659713 -1.9837917225803128
Ni 0.195847462959714 1.3326824970505249 9.323669614453088 1.4165796257277667 0.34728224642899547 1.2005755927211839
Ni 5.219121566479796 3.31913097175381 2.4638690730725825 -1.3687362809922425 1.0929990937910854 3.35331733224307
Ni 7.7879018154327575 0.33475954236735317 0.20532080282789053 -0.12905909428390677 0.8877684972509228 -1.9757739944821588
Ni 2.3593559366824643 2.799772747556124 13.459043506763894 1.6829806231296627 -0.7109177374050337 -1.0275053829636498
Ni 8.80634602002189 5.919754379927532 5.5516576417410946 1.1263768979205826 0.4868216714189358 -0.5196148066895567
Ni 4.563189513461436 5.257305587347715 9.249033507336494 0.6428858335367766 0.7796505239950573 -0.27209084869782174
Ni 6.753822989935524 6.586109513551292 2.275887981248277 0.8724282673494265 0.9834122492991774 -1.0723842457542112
Ni 6.941966074575633 6.675668398859683 4.525425748241373 -1.7034260354682083 0.4850956898667646 0.29156952624772364
Ni 1.2443177302129116 8.027401251048675 10.009410196925717 -1.2015243297876985 0.521407122703289 0.6067006418654713
Ni 0.8608844378994516 8.307093418448474 0.6751953130004538 0.2677415705901905 1.857302703016427 1.3754522595598377
Ni 4.937337377573052 2.9146858227208132 0.29147135929178086 -0.9455008189653845 2.5714561737499393 -0.7587019467678482
Ni 6.839771749634585 4.828274557241944 10.05288629166762 0.00472645894139186 -0.27369187463635447 -0.6785945997922959
P 7.317863461097924 4.856322456206743 7.718916943404617 -0.2241315472097237 1.1487503805197765 1.0885271740626608
P 3.910164074395205 5.272153386007629 6.8195226476591735 -0.11746496168840417 -0.11656224736847667 0.7536451010702311
P 6.058170298482197 7.107754150634888 10.05631405965002 0.25585844599935936 -0.010473388727498091 -0.7523880887346784
P 2.183876061872007 6.815815326360361 1.8532672382821505 1.7292795061962023 0.2450271597118103 -2.82530221730496
P 0.8830709739518705 4.9821955024520665 3.493597234373956 -0.24356805866778053 -0.6139454963533427 2.3053012309205783
P 1.4364874934172742 4.629282582309179 13.239373843148764 -1.1412743838577053 0.3757785540964754 -0.7553970507643313
P 4.830144417172931 1.5823828516958853 7.989189459983762 0.9504010844804794 0.00865124791709478 -0.8601535637471316
P 2.9485654630545306 8.658423437362654 6.626311502067503 3.5503736205025564 -1.0445703088657365 -1.679585738515501
Ni 7.321779058874198 3.1484831112204565 12.811251824157958 -1.777723717740519 0.7154135683928582 -0.28981680522267506
Ni 8.108064416586384 8.560172480394876 2.06479468013839 0.8750952726586285 -2.004624600165264 1.162374141950798
Ni 8.441945495055466 1.9441359512154657 5.602503946765432 -0.3676142731181282 -0.25265048058502293 -0.2799669090117888
Ni 8.048071534345176 7.04993660049161 0.14937218694236604 0.5966257741279725 -0.1874043669920192 0.21707232637009713
Ni 3.259471331876541 6.652471027636653 10.569802589876229 -0.6057686169695051 0.09811226819340522 0.7819061527984534
Ni 3.4274902804277154 3.185565580940913 8.977920479461638 0.298274449071725 -0.8514722339230497 -0.24415272752665693
Ni 5.59446354906219 7.643108008301608 13.753417777314871 1.6617595089673574 0.44858242543207905 -0.8475469307267145
Ni 3.1041341066196813 4.658357978562789 1.121367034364679 -1.1054584026003607 0.8153130103936731 0.6182058142915934
Ni 5.540830041932803 1.076419119182048 12.93237246402423 3.492634099699243 -1.5976405670002614 0.00113925581076578
Ni 4.246701835043462 5.738664925324115 12.706239749895165 0.08854493621994429 -0.7829068261488258 -1.0668376049043693
Ni 3.79871301712254 0.3940702034357208 9.378268598764661 -0.8555988544969136 1.0900762637173356 2.1323737173884956
Ni 5.037374883880834 8.360902803492163 7.837666934120762 1.2046829300213382 0.3355513311453124 -0.7220300452681113
Ni 6.936726764075938 8.111507921013745 11.818333984646491 0.20804595450177074 -0.033117865599891355 -0.24475153745292044
Ni 7.9685747170812515 4.804966105230934 3.2439181702129583 -0.31557000292737913 -0.9718574545820422 0.23786406630446777
Ni 6.947325722595639 2.28243249100673 1.7109162828133158 1.7955877425051334 -0.9823329001920694 -0.7949727561744244
Ni 9.10202456415839 1.5313504863516822 2.7085893057235335 1.6171500977880988 0.8590587880210561 -0.5365277803948115
Ni 4.4520069014263886 7.539728821622114 2.125355000071526 -1.2736574003085226 0.862673759065824 1.9032524302736642
Ni 5.227350801522603 5.290824215120499 1.2640530835439185 1.1276560217433225 0.05874687902190528 -0.6227885485662694
Ni 2.296549007812445 0.8859248245297079 7.699936013758636 -2.117638725171166 3.1105247182887332 1.2384299445647964
Ni 6.766717618073466 5.786605542069558 12.343622997249046 -1.100100737832873 -1.5765968589560846 -0.2390568010609883
Ni 7.537497949130193 9.063729462502492 9.66383693984857 0.3433070638313313 -0.016617553952022995 0.3832542936482302
Ni 8.959702304559784 4.984954008686888 11.685629469940435 1.1417140424982852 -1.0655541102062551 1.1720805706052846
Ni 1.5135497900779833 3.0607663156460565 4.375528704575805 -0.29327442475397236 -0.08272781531753495 0.09697249816200719
Ni 0.45158043006558907 3.5730616530747197 1.728880823249284 0.6337399053714505 0.36816346075337886 -0.9125066234275511
P 7.483077619752619 4.749731183408176 0.8020023635380378 0.10179923012668919 0.6511946105127882 0.6827027084233984
P 7.236441243509024 2.840456086153579 3.902250493924906 -0.5541470361384715 -0.8400017713896049 -0.33304527689400704
P 5.885865482861484 0.24227738098863705 1.5351698141117074 1.8906005458376085 -0.6339273387919082 -0.2242415904250267
P 1.3815950706907874 1.4372372887361353 1.0898728539528195 -0.4123108446945544 -1.698784165820823 1.1126022127339934
P -0.14783186668238502 8.305723422063394 12.178566203043987 0.5644538173811182 0.30647395416338186 -0.4765462576348567
P 8.088578995028332 1.9175043322974046 10.990852465365679 -0.7572305044286443 -0.12871070980555252 -0.8694439879101219
P 4.971087423654126 5.879015500936087 3.447926368396226 2.259239660675825 0.06295706044851093 0.5635444181929714
P 0.3368635976263296 9.130451989148785 3.978106638362805 -0.03003974089519988 -1.1992221640170833 0.686840898961488
Ni 7.073198768840963 0.6757423858812522 7.359864032706168 -0.509349934428439 0.35900956216825264 0.6126419470505706
Ni 4.791266141380141 0.6288922122044738 3.326887187774472 -0.31423945704141365 0.5019153325272646 0.773327409990507
Ni 3.9557812513254125 0.777017517301771 0.9356038556070284 -2.4745762353017384 -0.02135918240206644 0.31903302177531506
Ni 5.770739502853167 6.2964385886980105 6.646281976399734 -0.263641689489204 -0.6990662373830864 -0.27578115306521533
Ni 1.444003960070547 6.737170128470946 12.752073534361934 -0.3670131491990195 -1.4291034692263904 -1.913443511874053
Ni 5.653382650352931 0.5820901735358198 10.720444800494493 -0.049093415092541254 -1.715214543462704 0.334608764726385
Ni 3.9311028029293222 7.794187136685925 4.688003589528023 0.38588890305759993 -0.2956107861966328 0.6113746503023729
Ni 7.3841416645923 7.432156335196396 7.811938772278267 0.290374477498358 -0.7953620211930431 1.43920816176056
Ni 0.03269477859527018 2.231603773773822 12.944471013181651 1.358743174335273 -0.8667949803230491 0.004169043776025078
Ni 7.95247725955657 2.7954128266279326 8.321363597010894 -2.157660259869426 -0.5025725064952893 0.34359014228938894
Ni 3.049121346372883 5.220445279203217 3.6680838618052314 -0.12155250149421645 -1.4154758511406267 -0.23397810098650026
Ni 3.161349969161404 2.96722703543507 6.44433340116025 -0.048003524462472164 -0.5821805452369199 0.7610537348294764
Ni 2.972808845031035 7.735073644016221 8.463984849063813 -1.0801044972166043 -1.6265572500346115 0.07046365323820122
Ni 9.327546333953567 4.1765358039698075 7.174484082667046 0.8308129058014853 0.961211287722106 -0.520077348148272
Ni 0.18597608360127793 6.012155082061731 1.8464792764633757 -0.5906603005731569 1.2967731603903796 -1.6767374704334284
Ni 8.448647369263558 6.4773243951901325 10.072530929021779 -1.2497044890373508 2.536071109382426 -0.3835957361480491
Ni 5.943192426191186 2.554719272541235 9.834842110249925 0.17679188158349554 1.133277481695158 -0.24742625607160612
Ni 1.8148194005427805 7.218307304871386 3.7763746706598824 -2.236644034763496 0.5883465648383158 0.6833387993455006
Ni 2.820415260655629 4.248766086353412 11.161098583715841 -0.616475718974364 0.3769687177498346 0.27966146195622804
Ni 0.510239417177811 3.7892804068766224 9.532203429073283 0.5555860825778433 -0.9486630187434499 0.7900079559699814
Ni 0.48745582189000275 6.663875321869203 7.687444979150353 -1.9087435352952227 0.6692622666477763 1.8111984524591969
Ni 7.427861211394526 0.49136123726071185 3.7565939593404507 -2.296851557491328 0.7858286277813111 1.953702616504416
Ni 5.440968413539322 3.649059425517293 7.514339456182955 0.4226145406134077 0.008538633598630456 0.14555786326987835
Ni 1.9865040150972753 0.39301123325698395 12.325007708530165 -1.4676497049307047 0.4272165581617932 -0.20987118063596757
P 3.7762839546830325 2.4651233603035165 4.434937487006887 0.7520669579498338 -0.693312879839077 0.179959994898832
P -0.16809300240982766 8.93575513801789 8.11574287605546 -0.12486331103500431 -1.642873984916764 -1.263802361891314
P 5.873285583622817 8.744964627930939 4.964128212287217 0.6898927984139344 -0.16657354628959697 0.9368953366845607
P 5.513356060372565 3.9669818974466686 11.678963696988436 -1.4676191088030852 -0.02121417218376992 0.06183503102892576
P 1.0231281111489305 2.4282352819620248 6.4713889784191 1.0418205140347412 -0.5300375446847775 0.4892634480912089
P 2.055531468094141 2.244794617346376 10.346055335669023 -0.35952918211714857 -0.4524784180523756 0.16582072728397249
P 1.10505944901607 5.754567991469832 9.836738814704672 1.2877578442656468 1.3518369341337428 1.7878464079968177
P 3.9976309381966515 9.14250425464455 12.117193142012136 0.7709589097583303 -0.6198477207703906 -0.8752857914028798
