# total energy = -381175.8704385992 ev
CRYSTAL
PRIMVEC
9.14598710705877 0.00000000000000 0.00000000000000

0.00000000000000 9.14598710705877 0.00000000000000

0.00000000000000 0.00000000000000 13.38607662172426

PRIMCOORD
 96 1
Ni 8.124334685439738 1.7168481301954936 12.509596829809645 0.999675248125259 0.37150358087020535 1.73878795990727
Ni 6.257227131801483 2.058935488831423 9.226768201009143 1.4325029818262425 -1.1539231829699674 1.758117770584133
Ni 1.8945089312409424 3.2106622169266728 0.02409784703189439 -3.638428247349643 -1.0357241713290162 0.9860337460824244
Ni 0.635245515035928 7.311265570786491 3.913299023927763 -0.7928048019888282 1.059087528645305 -1.7540567131408824
Ni 6.17241639264604 5.197664516557454 12.341587789039266 -1.779163021290207 -1.0350667402506755 0.21905721801060984
Ni 8.85560209072102 6.588467349637416 1.2153004850098916 -0.0543376942106161 2.746452139775277 0.5248038070896639
Ni 9.268909251557252 0.18384806137529416 0.8707290762548406 -0.6682780483576362 0.5911449535190594 -0.38373611838065524
Ni 8.99247178892669 7.7820369690985824 10.304240488356502 -0.2967382149328567 0.5969425340374429 -1.1254867820061456
Ni 5.489311755874689 3.7486383290653773 2.955137053991884 -2.8939046489647064 1.9525538476119535 -1.3494671483499854
Ni 7.400374923918322 8.232769509490954 5.108474678738407 0.677719139165878 0.38192014821783904 -0.34775584363130435
Ni 7.3192500175979545 3.3451356664901852 11.086281841488685 0.724580579604107 0.24362308027543203 -0.6443184522182451
Ni 3.356229748944143 8.3643436811172 9.736470408367827 1.348637967580471 0.08971195994485194 -0.6356566627781891
Ni 1.4076405954853504 7.264639328123443 8.507039373158955 0.7114093323294716 0.23835103324321533 -0.1668892777578029
Ni 0.5485077163808586 3.091160748383052 10.918340481023469 0.7370856540496531 -0.17108686077891827 0.42825065585326244
Ni 6.6001925052070565 1.176631251196756 7.002443996735504 1.90991852943993 -0.07030193084935635 0.2573905663731696
Ni 8.549732841332967 2.8687211940856847 1.4857738493978945 1.26774154904472 -0.16484036564857418 -1.3363231547688599
Ni 5.950205488028269 5.521715988466917 7.847721619855247 0.21626937085282755 0.45108745124211985 -0.8006122138483889
Ni 9.11040929366188 0.21426304175504396 7.727072329920058 -0.20148578478574974 -0.3589529978987044 0.16373247729637608
Ni 6.260428227315814 7.824748729246961 7.250394453084664 0.5678137349922866 0.7228823659660776 0.4606229015363809
Ni 4.576651986776966 0.43997685946421417 7.7722105204683 -1.064485816842741 -0.06346896708792295 0.7975037501263943
Ni 4.048526102835222 5.048594071448585 6.626576849034903 -0.49070737962658717 -0.9682687087895194 -0.9345224655770099
Ni 1.7664285267189108 5.6325196231987364 0.4468994571636376 -1.0729925687621715 -1.4746238222556927 -0.2969271910152112
Ni 2.49647036971756 6.0062795354521885 4.358827497612548 1.1652807740746318 -0.8421656118101432 -1.0832366150876829
Ni 1.634772041208011 3.4855357157488047 6.196374306074023 -0.5415949105050737 1.0268770053510314 -0.9601442799101723
P 8.01336642293861 8.46997983309017 2.62160942476128 0.6790854233857853 -1.8142169275705466 0.5113196565603001
Ni 7.203864243287047 3.611256455577414 6.907630291397133 0.18318621514561353 -0.2269175945952931 0.5581875247564323
P 5.141480717287329 4.563527495168204 0.8269499794021122 -0.2007198531540027 1.3280120638000033 1.2478160137653864
Ni 5.58197889802102 4.596681698709504 9.9011054944661 -0.40790294543484595 0.32237031367866414 0.2583827550831098
P 1.5083470603662483 4.972654939861437 11.821378671603824 0.10817505174604597 -0.05504834712439551 0.6468777283049891
P 0.7778652953840574 8.957643869730752 12.061337364351774 0.6781333438851612 0.5914385735000782 -0.13923320660343116
P 3.7860179786855963 1.5286602979014834 9.583146164619771 0.09068306560886963 -0.07875623226429662 0.206470896705167
Ni 3.257773196910462 3.7090087665979423 4.229143801537195 0.6568019293972366 0.5493082199889313 0.8451529765732413
Ni 4.900666874737694 3.0287119478920186 7.860585450829271 -1.8298903724417452 0.7556168800846212 -1.1275305519090517
Ni 3.911217397244729 6.450911702392961 0.322225932867574 0.54051993227334 -0.2334479395146431 1.2151146668776234
Ni 6.448286804071208 2.997944847005692 13.571875803247263 0.3978188217259665 -0.7795530791852445 -0.6164888316004866
Ni 1.8392946066123004 5.963055600021517 6.448006022264665 1.7668368956246863 -0.36054862452059844 0.8588698119387014
Ni 0.5359585073659571 5.111463587350075 2.6329477050730454 0.9268114700859973 -1.5896827456057654 0.5666027454033209
Ni 5.411525134876411 6.963114422647697 5.10990694033139 0.23058681591676417 -0.17545105128488492 0.9339429389244561
Ni 7.670913224815329 8.633628981770027 12.035301482635633 -0.36045709324805664 -0.9665468410024063 0.7425903859179662
Ni 3.519348430367339 4.269355963388239 12.648637785372749 2.6961266520478464 1.9857701864629222 0.6548201230805174
Ni 3.352104908724246 8.338186157771512 4.309111740478811 0.12674304455622043 -0.3466363853148804 0.5559709767210876
Ni 7.402030347598591 4.850748076688475 1.592313624904624 -1.8700880277065537 -0.6023217960714853 -1.0868305030865284
Ni 7.787332495678007 5.860968091075865 10.74082693037168 -0.24904219440847433 -0.62412937886488 0.0781985599886137
Ni 0.7783838728573793 5.282447817751344 9.924571353783591 -0.21547027199029986 0.5182624064267203 -1.4095546005601853
Ni 5.081400727476901 2.854700395732909 11.369531235373747 -0.3238463840035584 -0.8916914864544127 0.29697527064432727
Ni 7.217930771575741 6.1932143675020175 3.389568701426556 0.668033793557314 1.2524108322249206 1.0715429807998385
Ni 2.9582329706536026 1.784711355099341 11.735144816842585 -0.07249431051498482 0.11003858731734598 -1.090296864368574
Ni 3.070408503462994 4.106356179798433 10.561775024675574 -0.1850723764247329 -0.7825263028809556 -2.3527028601329936
Ni 4.046495693680416 1.3996470026867034 3.2009052777989875 0.7609434345038573 0.6082602730431073 -0.2527476682845195
Ni 6.281939589172128 7.151274816980157 1.23042703321319 1.3231161691602826 -0.8425170816122908 2.114144338864662
Ni 1.8500868714891925 7.7572696358048345 0.9571001208238394 0.0001884618617222561 1.7643339266971743 -0.8669129939581521
Ni 0.3724245981246165 2.461432092816396 8.217819478840303 -1.1419325862669945 1.4372695499769506 0.8646241979239754
Ni 4.243070396221978 8.67070681381318 1.7116239423161033 -0.6273694830687324 -0.3099642267048275 -0.2979340350131708
Ni 8.813356775919015 1.3020593194354837 3.1035755113863517 -0.038611798834927054 -0.6479434505653421 0.8662884730002758
Ni 1.9351811362473317 7.211784668188223 11.095758913408547 -1.346864934840448 -1.1276606497290127 0.4951353334909537
Ni 1.8500137035917221 0.23531070206113874 2.8925172235405134 -0.3020585987045056 -0.06807895505610856 -0.4765323736777858
P 7.266880094983476 9.107839271263229 8.961014166007985 -0.84248725681562 -0.3221815947066258 -0.38504121034532396
Ni 2.381834566355725 4.256707063113034 8.335108533084162 0.7230626002976838 0.32163266418169123 -0.3069408664974714
P 2.9554891744984606 6.989308529942122 2.4719261985110967 -0.9573332928239382 -0.11252330141241268 0.7036096337793947
Ni 5.391321649187382 0.26764451055205124 10.98157583641231 -0.23759872845822308 0.8556847293425004 0.11900145293758861
P 3.974471044607937 6.115208242811329 8.96472286381102 -0.09600550626304755 -0.28749021397202745 -0.5380547585622991
P 4.726490694809275 2.8357773482496125 5.659874356266785 -0.11093255988652508 -0.6161548452998357 -0.015485754340424943
P 7.313341709877215 5.848383212710947 5.908279368178979 0.08429053181896451 2.028930266790164 1.1744480423961967
Ni 5.193512238376005 0.32633979790285034 5.38195249991629 -1.1343246920127497 -0.08183847073404615 0.24922062896786756
Ni 6.077499337652493 4.491502846095725 4.948765621337333 -2.079764832943528 0.2798378396330922 0.9624621294100715
Ni 5.979500084978002 8.77790692959458 3.2503667764890154 -0.4485801114392339 -0.5086889038056723 0.9895258183960829
Ni 0.48210693482770217 0.12107823673410911 5.255708609620767 1.2353194239602725 0.25660483724708066 -1.1132537302750634
Ni 6.743464394441392 1.9362420707606534 4.711792178806179 -1.5846621524627227 -0.47569393693689044 0.8270529245384207
Ni -0.0031370736040457624 5.351335393219777 4.949461630962022 0.19844082731183887 -1.5169495796070973 0.6899203092177603
Ni 8.742356477411123 4.56558534228456 12.973384352308182 0.4160314880792512 -1.0690284419081009 -0.6486535892584893
Ni 8.1354836438168 6.434732451064806 8.356285151809548 -1.2539210982218598 2.2045427833535776 0.9731342644119368
Ni 4.766056235366424 6.247870786912448 3.1146723376364642 0.5999173003950508 -0.8655963320292577 -0.9769860340578592
Ni 0.14789244195959414 7.329959968590193 6.353915764512534 -1.655735928481097 -0.42812004381266916 0.5510997646717154
Ni 3.080450797390814 4.590727661052846 2.1339545341078807 0.7742627773205826 1.3443064300846526 -0.8950202937173296
Ni 2.3510217355334793 1.6742003919574022 7.422339012140234 1.0441743589788985 -1.3115822003787538 1.365217726316023
Ni 5.58147586872591 7.563731401008296 12.646188490004928 0.10916646912503782 1.3406233248061104 -2.58191079342436
Ni 8.72159508650388 2.0326682136395293 5.769024396515773 0.6592506480480453 1.29577428681222 0.9520874710439667
Ni 6.520494372887363 2.0160408089393687 2.4999970623756367 0.4743685332572476 -0.38440691919543474 0.22091638270653569
Ni 1.4203718096452096 0.7031425800923552 9.819102573376087 1.7114221662998075 -0.045852539557740386 0.12814429577912123
Ni 7.7422976547849425 3.705414393634706 3.658414994694559 1.9814517615932261 0.3494550857105982 -0.4533024566155677
Ni 2.687548333961654 1.6912759500295698 5.082198257559329 -0.0990311804632488 -1.8888763640576505 0.13207551251272737
Ni 2.474282204809645 1.0307344636406688 0.5339290128098704 -0.7873910871724247 -0.9951614194153056 0.8711491435266867
Ni 3.780695014144621 7.44085506319385 6.795682493668619 -0.17329338151193383 0.38470516716214387 0.6090233764613768
Ni 6.14961544659681 7.349761030843134 9.858791584760215 -0.5044123879175054 0.4826467141056397 -0.329390196639923
Ni 0.21664648601514402 4.883115725331968 7.5625844942154465 0.2706101503872372 -1.8670428131223267 -0.7131520260521911
Ni 6.724879748483896 0.4579112257329411 1.1821243310993506 0.6730695562090085 -1.4127859630132893 -3.5330508129533924
Ni 4.079787087029474 2.6742683605707662 0.8200310400975622 0.636728298575813 -1.2513327686693934 0.9857313843506571
Ni 8.480305652620688 1.087832861629175 10.379122343825202 -1.6584975503866342 0.2943296054913641 -1.0009255755925923
P 4.899477896403798 0.7136997930986234 13.404817030545283 -0.46707251381646653 0.3967343304125361 -1.612292255475165
Ni 4.026191602132365 6.28196702713368 11.209460911478915 0.9184440719579086 0.060119076779083555 -0.3860907346557609
P 7.753410029213267 6.449045921007465 12.848424558613265 -0.6692018457234862 2.0205261018868685 -0.1525317234845502
Ni 1.8928443615734898 2.6705002138510383 2.475407161233253 -0.22725415199910537 -0.9249785306423166 -0.4328986961482351
P 0.6301621753591681 3.0596894064835722 4.114625981410031 0.5762274129772785 0.7025153722739514 0.9710845809717599
P 2.028909212906985 8.697028964928174 6.6020527990002424 0.36200746845431203 0.21197819967664136 0.3510095746819116
P 7.7019821432787205 4.311756759972368 8.978175696359681 -0.13829861060430376 -0.6343266311128559 0.5818457876053205
Ni 3.2968082702109496 8.545507395254047 12.317800905571621 0.7518707827786277 0.33649852554993015 0.27979001711429236
