# total energy = -381171.21233295556 ev
CRYSTAL
PRIMVEC
9.22282707251182 0.00000000000000 0.00000000000000
0.00000000000000 9.22282707251182 0.00000000000000
0.00000000000000 0.00000000000000 13.49853967826501
PRIMCOORD
 96 1
Ni 7.036804791687644 3.9352326685292622 5.090623229396955 0.025215580033679155 0.16202243658380483 -1.1162248970882453
Ni 0.4485152944643965 3.377242418886227 8.463624992479378 0.6200482668169709 0.9051064743087379 1.11600609620922
Ni 3.1375227023737433 0.6061075820910552 1.967681816335547 0.2584521748684646 0.725226440718222 -0.21042011116090215
Ni 7.458675339268209 0.5628875707213722 0.8529832899871198 0.40208325342927526 -0.19367194516828581 -0.6365763463789811
Ni 4.354576161542098 8.714141872431426 11.330970514820677 -0.9569561119901777 0.3160418003574751 0.47173469517882627
Ni 3.8253888002750425 1.7366490804703048 10.50000119033616 0.3393704477810865 -0.4880732844378498 0.5078517526163576
Ni 3.8545052647652667 7.354826308492179 6.743182263419343 0.9438167463947422 1.022882796589974 -1.6452962212050115
Ni 1.0802143766085004 6.230914178081119 3.2975046244474773 -1.6055821904448413 -0.7490651950090326 -0.45099309175610064
Ni 1.3412480460626717 7.640982958393411 5.234788003355156 -0.3682426507307464 0.9344772141613712 1.1848358133884238
Ni 5.543915025907435 5.165290313611844 3.39682616950344 0.14888641342247907 0.7215770168910928 -0.14930576034808482
Ni 2.8497981719012917 6.198560501352672 8.33711639831848 -0.6776088388402588 -0.3963412087391755 0.7343214610409546
Ni 7.416978938900675 6.626232207046746 11.705555628938658 2.6628848592755814 -1.4528545488994014 0.23301727973512773
Ni 5.30149302111632 6.76809773026139 12.649886407853057 -1.15739108691391 -0.023866007984320186 -0.2605054578530675
Ni 7.633567805574235 5.689165326590533 2.6156250634801674 0.7626437050244156 1.3786967346390642 0.05880292907082131
Ni 5.749731630774031 9.0367932483345 2.5351337640845437 0.5152706707882481 1.5399730370854638 -0.6148093870155347
Ni 6.932328608683127 7.01001247957358 6.4234554459229365 -0.7626820144615187 1.3007614556141662 0.3470865854784215
Ni 2.1148126514214196 3.696481348840179 3.3333694313727658 -1.1058744070918567 2.392752162745395 0.19424632961451707
Ni 8.603956759582294 8.066957663939814 2.5663290537556667 -1.368153154795263 -1.2491930966185711 1.0011700875032306
Ni 3.114686982995284 0.7222589416550197 7.023438148676659 -0.003887765090180402 0.021565641985917698 0.3365288645672333
Ni 3.0652526308674406 7.836220980817726 13.10669025684307 -1.5737426773367413 -1.3258487376000971 0.7347302664435992
Ni 4.814260299369706 0.14283484232073276 0.12084577845073186 -0.8655575083715222 -1.6250850363644593 1.0476849432353181
Ni 4.473790421916073 8.598413840621692 8.891137143268264 -1.6814083935465367 0.03735710049221953 0.20094456757029908
Ni 2.142923827780686 2.867192423414932 6.653322416469343 -0.33065826471906923 -0.029035725110717735 -0.6863495611473663
Ni 1.0364981771521609 5.302415303805272 9.88151104086323 0.9595907213995474 -1.324546730959222 -0.10306267022014508
P 4.341332182128743 0.47959068738595556 4.185289329419524 -0.5601379636145838 -0.3087774054855779 -0.055025464306260076
Ni 5.732217482510827 4.169695373714718 12.200924728567209 -1.045386891229761 -1.1263730412658406 -0.7636636616484977
P 1.8873500718451117 7.086506605795284 1.5716075155649785 0.6120878743193136 0.7318912543329074 -1.5541729827349298
Ni 5.281922182456753 5.610974200221157 5.630523826378878 -0.962191392247188 -0.7667867806585117 0.8718500262484533
P 8.05002455377065 2.5744875664221385 0.16458226812622817 -0.4304782596322006 0.7665682368898024 1.105179437907361
P 9.169850971869652 5.188024581894519 11.709929093449668 -0.1024098671274946 -0.24203645251460254 0.5887728537424569
P 2.0277952797187693 8.18419823935943 7.599826093398915 -0.6135544315625111 0.28991142181901036 -0.17988106203178053
Ni 5.8033531463097185 5.481891515075392 10.363260792024024 -1.349320338359476 -1.5842919136074973 0.021937680613355767
Ni 2.3426718125539763 0.8391020132356987 12.623496210991377 0.5740458319449275 -2.089086624565086 -1.460743978949807
Ni 8.919525004434217 8.3829962729631 7.385564145949582 -0.8443207104799331 -0.04090059486910375 -0.21781743206623777
Ni 6.912010721045507 8.839618432263388 12.139979366198551 -2.2061602643523424 -0.033562666446793815 1.7787326186210075
Ni 1.1062965310520716 2.9970313803656383 11.098256457613475 -0.1094037819468245 0.5400951860310957 -0.5187442311591453
Ni 2.4377314893042907 1.71740104075187 4.228417112520312 1.5101785794318507 -1.5018973132596651 1.5400203453836316
Ni 0.6801216901621667 7.354687966088837 9.180572508128721 0.502733971773818 0.8400678487408499 0.6081970239053396
Ni 8.559807087262147 3.063306614393751 6.64677513166047 0.21475010599482372 -1.1667321618091777 -0.9091227945569826
Ni 0.9469445280548918 2.027675382969205 2.3158499873938654 -0.8966377747160945 0.14624023404888364 -0.9170037399669562
Ni 8.044887439193186 8.755718376049396 10.026391506188059 2.2170943947663426 0.40569462492961744 0.547417944944754
Ni 3.217290932141228 7.927757537696242 3.313257212774783 -0.7377579975263294 -0.008860021493791193 0.9981405566482875
Ni 3.3310176105159375 4.086496252344331 10.705934925104254 0.18050686854123751 0.2101020656998511 -1.2237749136557825
Ni 4.20389361582107 4.376240581905587 8.304247165566908 0.5208373662427481 -0.7523893742862591 -0.05540984422887232
Ni 0.9641635458576314 9.136741023336263 1.293964457165465 0.22184223695491473 -0.4816288143640866 -1.8876777157638585
Ni 0.977610427462556 2.3437969974344983 13.362419878553075 -2.204845916416293 0.07083054965931673 0.24490914607670725
Ni 3.3781831472289587 5.616922923564899 2.621713051509942 -0.6166256142886671 -0.8632484006223713 -1.0034449995803363
Ni 7.593872758641728 6.663363308103966 9.11136533743243 1.3749753199234191 0.5302139223616418 0.6061128876828012
Ni 8.996701619845744 0.057293122920406274 12.369035650261369 2.1491730483340215 1.2391691367236657 0.43624318714043575
Ni 3.1522515569163114 6.605305612834418 10.541495610794813 0.412553813943296 -0.04789013881305946 1.4294575101316995
Ni 1.64063022972348 5.526815904854258 13.283169971656783 0.9275095245942866 0.508920045979872 -0.23845233470776997
Ni 4.926585108057208 4.591888720236415 1.0213874975763664 -2.037438304261175 -0.9830553801803907 0.26843036912709894
Ni 5.2616596317804705 0.24286008906836626 6.171694406623491 0.6050831608667063 -0.30388691016249597 0.3751424631743733
Ni 0.9845091019759192 4.532383041145213 5.394380722134152 -0.20373035784555235 -0.3659988490018922 -0.16965989852440458
Ni 8.483727988250472 7.484425471943757 0.3881020892072646 1.2721558760623317 -1.3458922865145335 -1.1960854181603142
Ni 0.6360402667610022 0.8200587202742113 5.9840237136620305 1.081489807599905 -0.3368451102560715 0.8348153420926591
P 6.497324755611881 7.624464875434275 0.8243519461912843 -0.0233903538994823 0.19124919465940612 0.09977808593160237
Ni 2.5463118302746457 3.3897393493215304 1.0079452273848863 -0.6927454373713811 2.120436599631277 3.069187292992527
P 7.884539370891937 5.413061557998881 7.497507129603857 1.4586693558089654 -0.5094386374875033 -1.2868399604370677
Ni 5.417682194270532 2.023156197793339 8.30017067608174 -1.5980408877624734 -1.4124545478157997 0.8235122583750141
P 0.7492956586816566 0.9164944427964424 10.67815484823032 -1.2990197903327112 1.0482395301872076 0.5757838976819567
P 8.96236503533605 4.187689108976177 3.4010244003035512 0.08699970322001145 0.16143211129797358 0.2985395298076536
P 3.372695565229692 4.083913860815263 5.324310294841 -0.788979514705467 -0.3825133017171477 -0.6198639187203067
Ni 5.521715681584353 6.36393501030871 8.337966742957693 -1.7885578322415454 0.5986152937541755 -1.972641362390448
Ni 6.865241765888737 5.218238562784595 0.2958553746582548 2.9144117677791224 1.1256258786871711 0.5557712020054557
Ni 6.106516688995231 0.6623797380747912 10.341176733037061 -1.2507288165368071 1.9096616762341174 -1.3782786732650394
Ni 0.14489891097860802 4.3980617903261985 1.0701384382316963 -1.3589586327801884 -0.8866135577108729 1.001270617636837
Ni 1.0628385707486387 1.0284374264507177 8.516903418854774 -0.6184055890072253 -0.40717146658546 -0.6541768330695636
Ni 0.7448041419864588 7.210830312266056 11.661915056662812 0.29524851776120764 0.29799471304777714 -0.17530115597058196
Ni 4.949328599166772 3.0683330550485413 6.186448162798661 -0.7442986268583246 -1.2578829110830851 -0.8951123392105035
Ni 7.459071920824458 2.2426133636295402 11.578034368385287 2.4348408643853294 -0.4963033856571259 -0.2921526524447033
Ni 2.189932576436585 8.853369667155667 10.08563617927829 2.340819735542162 -0.912762448192099 0.22967150319134638
Ni 5.5161543169699705 7.434170288222746 4.054758660452103 0.12808104664135364 -0.26310947113481786 1.5421947273271313
Ni 4.437885956835159 3.184909586932113 3.4476079766398433 0.4823219837763693 -0.8499974491497362 -0.07426708614469145
Ni 8.475187650550772 6.101766933147127 5.034212731009875 0.03515752173773945 -0.16190313739712117 -0.693681061811773
Ni 7.935237250303645 1.0145201806744275 2.965115787914444 0.41051287225386723 0.6871121503450038 0.9276198249199056
Ni 6.534391296880875 8.78619059609238 8.18193680220612 1.4658859281620626 0.4358521223496042 -1.091352816436914
Ni 0.0388769821874066 2.3182589897774086 4.495944574387396 -0.6936694918475472 1.1399404955376304 -0.9692742672358985
Ni 2.808277005244659 5.990456635417473 4.783005061323802 1.7124781183681477 0.2953541901011365 1.4490302900573044
Ni 6.872804483938146 3.473418057690173 2.3878101719166804 0.42925570007900915 -1.3487768071511803 -0.5222702420345329
Ni 3.5182133278925867 2.7548215005929837 12.77501803395935 1.7703518507564802 0.22050809152452347 -2.6445978880409355
Ni 6.1637904439791695 1.6266392013320736 4.4730922539205356 0.9128298110949247 0.4642358156986199 -0.23256270869621237
Ni 7.974240585219439 4.39668758911966 9.878581871043119 -0.3053393263383064 -0.8998825069056373 0.4154779295686264
Ni 2.5699960497269414 2.7629560339095427 8.896212464905568 0.7787642647353621 -0.1510152868400238 0.2581274445391941
Ni 0.8089415247415803 6.248087081749411 7.075704830942275 -0.7585883040081193 -1.3729495477426419 -0.05886206444353089
Ni 8.105426074896014 8.585640225379702 4.935349560450321 0.11573718036402003 -0.4667606390030026 -1.1162457230238516
Ni 5.832460387973054 1.9236142271747165 13.13087988720891 0.4789391833470655 1.898505402506982 0.5899828148901581
Ni 0.9937227060385528 9.229651781421317 3.6478991859169265 -0.06962727337983493 0.395082653741726 0.08883624220811798
P 3.7034169146610996 5.2640852352524155 12.346776357563503 0.1013883678415157 0.4348349939389995 1.2781419184424374
Ni 6.536226639431891 3.813989386239592 7.520077231567898 0.6765546865441315 1.309104685372539 1.1220556448374095
P 7.59286747051077 0.6895677094624163 6.430920402007316 -0.7743941606921243 1.3723016297459978 1.2634359796908305
Ni 4.580544643162302 7.2186143781608125 1.5009698844181212 -0.35785899350357725 -0.4112412657794595 0.03818448148952134
P 4.3540320147556155 2.2825482040611753 1.380481951650703 1.3417641232787731 0.20883014096596292 -0.5957999357925675
P 5.913824166792426 7.562210793929995 10.498246086379082 -0.26820308360764133 0.9014737626521572 -1.5411670573935652
P 6.173437520905611 2.9740757642376154 10.132665218153345 -1.14277102300789 0.7571415442592638 -0.9708418688333346
Ni 7.856972341319152 1.7866921391728572 8.693315807032194 -0.4745713932966731 -0.31318016253896386 -0.04140890196408997
