# total energy = -340861.8596407271 ev
CRYSTAL
PRIMVEC
9.36022091295622 0.00000000000000 0.00000000000000
0.00000000000000 9.36022091295622 0.00000000000000
0.00000000000000 0.00000000000000 13.69962945174320
PRIMCOORD
 96 1
Ni 1.439405405531934 3.2830225892162237 4.969253275064163 1.0261984912267683 0.08590184217014238 1.8303858240209252
Ni 5.245018486273355 4.991665387920961 2.249068255080146 -0.8622940071289021 0.9309383477701775 0.03646852723967913
Ni 1.4243635305900382 9.027989192724517 8.230792285334127 1.0658184196112355 -1.1598313209242863 -0.3477378459091753
Ni 8.082925132124974 4.71536102798952 7.404156547278048 -0.7634178641862788 -0.3546708255835827 -1.381265780917821
Ni 5.835386337135373 3.2485395355224185 10.859709535680027 0.5360996917184574 -1.5512126145550253 -1.1675094062948346
Ni 3.6640678207094672 7.932300457846822 4.452900434728311 -1.4503142989760507 -0.14731186984650757 1.118241670407958
Ni 2.458031441967421 1.551007318993182 2.8236304369770826 1.0107962977390852 -0.5626170212826955 0.9776583775345355
Ni 9.151263301613609 3.9747990730094798 12.352941827360603 -1.2254978098841605 1.3782046254939941 2.503825876195475
Ni 1.2409406423751077 3.8487824194047846 8.040298686272209 -0.43221915358270724 0.4372960538849823 -0.1367207245942226
Ni 6.399461327566907 -0.16533706944534024 7.460817708306843 -0.797075147229408 -0.5845847838030385 1.8942522836575828
Ni 5.45485591779011 2.3476744378821977 8.134703065924654 2.411614289757221 1.046562913815733 0.40635745532459694
Ni 5.304905179414768 3.386022459695765 5.51590889445222 -0.7515565939723186 -0.8518560996250296 2.2243629034032986
Ni 8.223506289407075 6.653460281159495 13.567537192068343 -0.6246878224715112 -2.8289742668399085 -0.8976147939173831
Ni 0.7131458680448731 6.583539431242904 1.9080155032861836 0.29062850249069305 -0.48346561046250924 -0.2618079787145749
Ni 7.362019640976908 3.2369983831867883 -0.04174752111285012 0.5021783563806642 -0.2863049354146746 0.13599875882653353
Ni 5.7896990990573425 5.99164586437869 6.601358483717631 -0.9086533111197319 -0.48065102383184954 -0.6137084406418721
Ni 4.383541198064061 7.040131005397033 2.459467299849242 -0.6162232366439258 2.7145146676367315 0.21618041068344707
Ni 6.512738720564309 7.762487330780315 9.793371645391817 -1.219427178210048 0.16319974472135765 0.025033031709227854
Ni 0.7650782454889471 6.30382795091392 11.980038115982145 -0.7989199137476306 0.2536125873879761 -1.027257785729218
Ni 4.695648402832312 7.147277453723033 13.12401248625204 -0.6904607551022626 1.4374536409632985 1.850414460537026
Ni 2.870527015591822 7.384596493721061 11.668002048892525 -0.8158853379573755 0.2181899849143081 -1.7562802031547624
Ni 6.816037957491661 4.588520674948056 4.719343801970712 2.119807964908343 1.5458873456873699 -0.6632574552145932
Ni 8.96041775824689 5.379917989485929 9.438579025379305 0.6459973825825649 0.7847443935781969 0.5815400834394436
Ni 7.493830271301599 9.175328429476469 3.7268056371286034 0.8568378691103371 0.728757593799932 -0.3260678171349094
P 3.8974555679411 1.6306815190587816 4.862587942091002 -0.03488215658916573 -0.5820098239870106 0.3943180076615596
P 1.771721327163628 1.736723461321843 7.501876317163488 0.6061393700453626 0.771432249850323 0.09377301738810301
P 1.0648093662197524 7.715695586639346 10.104339711279902 0.9622343296699815 -0.9450912422317915 -0.8764893247926775
P 7.48897231666884 2.5573995467484836 7.075940402388452 -1.0863697614000258 -0.6172570772250789 1.2659731442903874
P 2.144641886939656 7.583079977319632 6.239153504796291 0.47368204871318426 -0.7094051574152492 0.17261846693209626
P 5.965343643727335 6.498894953894077 3.7933043902942574 1.1435976326742434 -0.9155559517768362 0.4661201772055263
P 6.707955487078424 1.8942934194872918 3.2607443275178998 -0.43897909801436014 -1.682872636796889 0.8508124888518637
P 3.4960612162713276 5.84718957565543 1.0009043302578318 -0.5413439708365322 -1.3460977176571203 -0.755674472795434
Ni 9.019256106650598 1.2259455685375737 8.070739060571238 -1.4364095159695003 -0.16102433433659366 -2.187388383061478
Ni 8.586860703451542 8.260694446932995 8.661946523245506 -0.2592317333469665 -1.1912149774418905 -0.2781694507917339
Ni 8.557946981176796 2.578675328791377 5.321771361404689 -0.6460729730155067 0.4011944230664187 -1.0489054459059808
Ni 2.224082081483446 7.475474878170885 0.18537823835516815 0.15638452157173713 -0.2579649508194009 0.4583839849035331
Ni 6.160288963836151 1.0554678657891288 5.501798361487124 -0.012357493124088395 2.322612725615832 -0.6225910878434826
Ni 0.8073480669264754 1.0603070999801432 4.477983954622084 -0.5599114494260744 -0.9841216166613762 0.9693179759896402
Ni 3.53266904010316 5.530954513482464 5.895141987184573 -0.3223985958134383 0.2749010644531072 -0.6270000155444556
Ni 3.4876276572653238 3.334204276946334 9.1689017018255 0.0762486353510945 0.8611606648554072 0.281001006703258
Ni 3.2204963137888027 0.914505747517523 9.35658629860362 -0.4425986970448184 -0.031065868166869078 1.0934683201180202
Ni 3.3780007504081455 3.2111360929164343 6.676089551140533 -1.7672585565431373 1.7877145104046435 0.1055260441589731
Ni 0.2768088758364623 6.528894461790017 7.168755416536769 0.6644651023694492 0.2190191656838228 -0.897520434431364
Ni 7.156712556362381 5.149899921768348 11.023858793096663 1.7324288504584615 0.45060408384779815 -1.2659440908246649
Ni 2.4792791433476973 5.166626636467271 10.589922697542015 0.03356780865311638 -0.32053608868340283 -0.4336414878515306
Ni 1.293264277051647 2.0792981850296526 12.22887865185197 0.15401602133956055 -0.07426528637247855 -0.0020036606935900972
Ni 7.7347061952311265 2.9611526740780927 9.312665334204207 0.5373078530939456 0.9236978641576802 -0.2472534779391677
Ni 0.19012106227119718 3.844092948747728 3.1647646226926347 -1.270947200466211 0.39258996922685935 -0.7516093015871249
Ni 6.1438992170886335 5.211228088924106 13.042321158588445 -0.20855914669276338 -1.3381779485894114 1.9676017430840111
Ni 1.3701678517390254 0.36727915465625144 0.6384709619472054 0.13874341145120622 0.020396561378481004 0.6527850949283597
Ni 0.5035723947567199 0.27931273491982084 10.888875983918327 0.784352814566733 -0.15308348222296214 0.8080352457853375
Ni 4.695667123274057 3.0230237340444477 3.330146621198162 -0.17171652394311718 -0.6760839175553001 -0.8386133756825106
Ni 6.477329005004139 6.815307860263617 1.1235906172761385 -0.1129336494769539 -0.8292645874777589 2.204759013129442
Ni 1.7405330712168967 6.194538012008147 4.222746643808081 -0.08492662274106665 -0.1358349795551596 0.2182774024217918
Ni 4.218754509606016 8.124774679645332 7.001442404465273 -0.9313906048162476 -0.7046596723104639 -0.42886206418501627
Ni 7.634785837418594 0.6318130368406899 10.012606738664429 -1.0018218621546164 0.7022083825564938 0.5692101011191809
P 9.708514691029187 1.2729713182003524 2.465836930152889 -1.227944214542124 -0.2399823981990512 -0.48429479123202407
P 9.358807479016633 4.95032129232771 5.323210027352772 -1.2263236482195654 -0.22259608440180373 -0.36773511496670863
P 0.1696530672895893 8.082971933229336 13.304368030087096 1.129100981719965 1.8817387245716042 -0.28638952470868095
P 8.776049487723851 4.796055492130208 1.159072406537025 -0.5003029937348223 -0.5399360347454121 0.36675141089720065
P 7.427185498690336 7.172624931845406 6.824826268868728 1.8753927277489186 1.5883000063256258 1.3676006247259027
P 8.158565076994583 2.039872934715237 11.890004023455008 -0.8639446553584476 1.746777662980966 -3.353716367453701
P 5.4119112244276835 4.505495515810149 8.066287339524338 -1.015403200383477 -0.17513583403731128 0.44046802385506084
P 0.6576341421392052 3.894160770194026 10.616788403489888 1.8855383008233526 0.4039205637483302 -3.1564173670557896
Ni 8.154858429529126 9.143007586804181 6.18358842563165 1.5918478715778843 0.12899970180088105 -1.0306899513392185
Ni 8.096881221445676 6.091575582412095 3.1818620021381023 -0.05700727062297924 0.33462521978661725 0.11764133936526835
Ni 7.06660171002409 3.734194595485251 2.4445751884413043 1.8035905582049518 0.27843350308639786 -0.6815354275881748
Ni 5.254902879514577 3.3320607863665614 0.8054367098243378 -1.5150351361932035 -1.3345928023413145 -1.0947137624893468
Ni 3.7236924276664536 7.693268497429151 9.280375380260796 -0.1712213294742535 0.3900425202146573 0.7539896288938434
Ni 3.943152166240002 1.165375579272478 7.161946791874208 -0.868520190544272 -3.124323828955355 -2.001412263875553
Ni 2.2705742985565 5.009019237418332 13.00775667097305 1.6324162799185498 -1.550260277944085 1.2584264422913813
Ni 6.2397759594843025 1.1711508355507294 12.139036443852717 0.0749132043691226 0.0996112213364349 0.21213477985916368
Ni 4.483742362502764 9.097694757561046 11.223297955246304 0.5175494395200958 0.1922735221588624 0.24068430936208227
Ni 0.25831682348101137 8.037640383544456 4.771690837199433 0.7796237845221798 -0.3296797028558838 -0.7502728421638886
Ni 2.832196911119474 5.783951923441708 8.242382110818292 0.1506159945190761 -0.2124335420465051 -0.6663155253146267
Ni 4.9937059160711375 0.23236935520071902 3.365423421621944 0.624621230899634 0.8512781156343725 -0.46011922242708503
Ni 4.356696084602109 1.2182889078639763 -0.14284165062277737 -0.32198876196952936 -0.4990426389651599 0.22773057741489167
Ni 6.755973420153674 1.1530575286044413 1.0115628137651977 -0.9700497119493423 -0.7887931097262737 1.139328058764612
Ni 3.390084795554373 9.137719062011293 1.6069393188160193 0.6565257929177146 -0.9522113982163406 0.09309681725668482
Ni 8.591746738746918 8.463876761409495 1.701288473165318 -0.13315640428173198 0.6260407369549799 -0.32492084801465976
Ni 3.5721598119636826 2.39147091134401 11.546020586505907 0.1450176744956922 -0.08579359872705225 -0.1963240380791522
Ni 0.5317138988094954 2.7171597965980667 0.8372081075314177 -0.36001974860032193 0.8363006683889339 0.15910269183384856
Ni 4.8315588098991 6.1157811135880396 11.00567937211835 -0.9041078578408945 0.25487988413617396 -2.457234658699497
Ni 8.52875245227588 7.84803038933289 11.129140685424888 -1.9782479099439478 -0.8618116681758449 1.0119589505886184
Ni 2.3828782285831753 3.696641389345309 2.1707335026213825 0.17665535600563123 1.2709664837399208 -2.742770062937999
Ni 8.763899921031518 0.8673199380778267 13.322176786318863 -0.5824150298452292 -1.9838508579530219 1.6081638351290883
Ni 0.9790229419244963 2.0232398222250385 9.603713914053802 1.5488217457253455 1.4925228140233004 1.1056000703845474
Ni 5.937113217576272 8.171304337601876 5.166459088513656 0.2754777628921837 -1.6741136596573363 0.7625992249397253
P 6.45741045498774 7.03533857231038 11.974901226767388 2.2685264852943896 1.4509272499697012 -0.8858874781781259
P 5.263252196532729 0.37565000018241046 9.144667153964852 0.044640778637826346 -1.1598408340059831 1.3090265238364358
P 4.539519918681208 4.317748205552184 11.971448241287572 -2.4243286520000957 -0.5643697423077442 0.9323437127581362
P 2.9287288689762083 4.3664213540885 3.9500141441615355 1.950882373446801 1.3562764579623352 2.4242803152606633
P 5.477479571638624 8.573906157764183 1.1395217132009094 -0.3909138670760171 2.9027081061889493 -0.17935887097972336
P 2.704944708359626 2.7717579649465915 0.1921999673269502 0.6091568167154477 -0.23560046708127166 -0.7109323926930531
P 2.5687722151084107 0.03574200340113858 12.513282410904274 1.0955709682833195 0.9134067666443172 -0.8782479593549971
P 1.85938915585423 8.234485828490362 2.8984579146749696 0.03204185892689321 -0.37138865255889586 0.6465540264169833
