# total energy = -340860.6051449096 ev
CRYSTAL
PRIMVEC
9.33114524102077 0.00000000000000 0.00000000000000

0.00000000000000 9.33114524102077 0.00000000000000

0.00000000000000 0.00000000000000 13.65707426685227

PRIMCOORD
 96 1
Ni 9.050539031279106 0.989092063304239 8.289379785638609 -1.1347826054857746 0.7189010127208264 -1.9272012277797779
Ni 3.455705655866142 6.724816400554869 7.147416503135067 -1.5245523316550194 1.0639068044108193 1.6128342440215644
Ni 4.1522196604631825 2.640368847901937 7.7568905181350765 0.5812060971387927 1.179619559294807 -0.5288921182264246
Ni 6.26053593845838 3.3936348777918224 11.61228271635302 -0.9037874983869982 0.7900303245674846 1.6341929122029983
Ni 1.803169166662306 5.421162100380006 12.32967515840365 -1.5903622881712933 0.5229215024652866 0.29379327337191985
Ni 8.71044678105741 8.457778030501723 0.35755828786443716 0.9653492211498793 0.9971666227707923 -1.4194124671908717
Ni 5.857085212120534 4.78208129467765 7.675371767171024 1.3561311906337223 -1.6542886545116091 0.9865042579609397
Ni 0.953866990058515 -0.08377315565177781 12.313518280436769 0.12592646219219603 -0.019514158773527683 -0.6613826067893835
Ni 8.867844538808106 4.744532766269493 6.340597164537403 -0.30399695337779903 -0.5866516936343961 0.2171270908674325
Ni 1.9881124651338955 5.269223062589245 5.902287145846874 -0.5810454031912121 -0.5029658852789661 -0.5564797980367061
Ni 3.0169365448302656 0.43585126192225115 13.261619555857264 -2.51718841354531 -2.175191326774654 1.5965694454232697
Ni 5.556006480108207 7.3348213577185035 7.982205016447096 0.9030125678941868 0.36162077453885466 1.2599971292126109
Ni 6.116826970761057 6.302423449398792 11.004529364533543 -1.910884235787309 0.8902534684563055 -0.22893462502532186
Ni 8.876867756246149 1.6221542803328224 1.9343604030327053 0.7152407902604198 0.02171090931453035 -0.6611542928286613
Ni 7.80463518893677 1.2885751694821233 6.028069117327063 -0.391139609933578 0.15440888590260504 0.6566965141676239
Ni 5.282473288816775 2.69138221887793 0.6420733039778271 -0.3107815803998002 0.056993129555592166 1.2910133750884671
Ni 2.9762620827698387 3.8438626351709444 13.841581024721755 0.8676375308290025 0.5224859575897647 -2.4265958507677174
Ni 7.639987131341856 6.634621550755353 7.016431485074264 0.05006426364624281 -1.4520953021358733 -1.5420031801416154
Ni 0.8831117151180246 8.303328914643915 8.972370161452861 2.3032685167612654 0.2587378244296834 -0.8840635375955098
Ni 4.344338609617146 3.414704603722643 10.154662653643296 0.15279783266174332 -0.01349237805947999 -0.4843719243268626
Ni 8.573838814880615 6.754769376745272 9.55140224825238 -1.4955698283797403 -0.6260235105637992 -0.192108714446224
Ni 1.837993000663112 5.427087377601472 3.2673452920110866 2.894945174414079 -0.8350076606091232 1.6602721257885535
Ni 6.851337398737325 0.7819341073820284 0.4398272629050334 2.6197587175100687 0.06482779510866254 2.4364719722308488
Ni 8.417486145395754 9.17629487555265 10.150729575928574 0.39193125259693795 0.2804356211180912 1.3862305811222642
P 3.392916379609062 6.849396520529349 4.538368577314348 -0.9391463375022665 -0.1252860003947197 0.190229238035324
P 2.579221853205452 8.739065403479831 7.194996945780701 -1.6862104429208702 -2.963727326184799 0.026643313619141212
P 6.857841206963092 2.6294980637082235 2.529317022282861 0.13048914186221397 -0.27720605843720003 -0.4881005381313594
P 6.21768731955921 0.09841372251867611 5.404404296660272 -1.2280259756226528 0.08567147132689117 -0.9628817334459934
P 7.773114580347617 8.309123555832153 8.077817529167529 0.5618708871452903 2.261906151764395 1.5882660677638967
P 5.016227721950486 8.370205232512022 0.7771052397251642 0.29020247069686794 -0.5602693469861254 -0.36048486116219847
P 4.7151676522286206 1.0986956951835172 8.888447707477392 0.4564394595826527 -2.3316393545944747 2.1843778783699284
P 0.4923214866291313 6.9186242869955805 6.002694000986819 -1.2353538767426337 -0.8380914417407695 0.13127204277482554
Ni 7.487329595368334 3.332861128904564 13.558169883089151 1.4020086698921275 -0.8279754363526902 1.1858647688735706
Ni 5.041356496056641 6.129890574083974 3.380644990516227 1.6415431819204824 1.0681979755870055 1.5325001257471866
Ni 7.809384741859174 5.3724441911307546 12.318134397982377 0.6450545590533214 0.15191980093216417 -0.9829857032847199
Ni 9.319509292552748 4.120176507741112 1.9398648456042689 -1.1456159486558528 -2.011011220417898 -0.21858413502893323
Ni 5.6369075092579894 2.7579599400986563 5.913758855793443 0.8108930269491066 -1.2443671359848376 1.414748228945983
Ni 3.967295024282054 5.361181498837354 12.026746993406608 1.8532437024557054 0.14512771771099522 -0.8500087620036457
Ni 4.316709088589175 0.3394819933236116 6.714295534307305 2.855167894516141 0.4676736377355752 0.5238391291835494
Ni 7.506794364319481 0.6654982109648644 3.6088549431933195 0.11256495328362551 0.25437286259276837 -0.10575410100937917
Ni 8.74375896953085 2.5686030099329664 10.041500122973046 -0.22881686850053498 -0.5564851973533449 2.220153750417957
Ni 2.5119722895281194 7.505320043373038 2.5197572639940544 0.040290472088930614 0.5029214051942759 -0.1394617776744695
Ni 6.1912895097016865 9.324548110977302 10.644637357246918 -2.3107756237715877 -0.910123210797039 0.04709515371558986
Ni 1.5990503647417196 5.424325358613198 1.1730033371133182 -0.9975736284012239 -0.07844384323020039 -1.4210260915348945
Ni 0.4856245236970899 9.239504053345108 6.305443941109956 0.023507081983004677 -0.8278713066746582 0.5813660197554246
Ni 5.184496263894895 3.7948554604195426 4.029301417454282 1.0400989033579444 0.8804367394761998 -1.841862200091641
Ni 6.7887347453848585 4.831443052947818 1.952524410338699 0.3792634273212823 -0.2734172808187291 -0.0900073796980837
Ni 0.6662419032397476 2.2547406089546422 12.442045474843818 0.08377194031133316 0.5513098237999925 0.33001317493590265
Ni 7.1487209972383114 4.703093150300154 9.83347623677343 0.8320308373689863 -1.3683853254107272 -1.0519663442194913
Ni 7.062155962933522 8.077085967381446 1.9321890455375317 -2.395986610522293 0.9434855883075687 0.23907557011406572
Ni 2.547962516682757 1.1602532602701505 5.497395690685415 -0.366642139012846 -0.9477603044235227 -1.6745923990659675
Ni 4.853081978737707 8.479799533246071 3.3429238359213027 0.19913888182012804 0.1275413720877997 -0.19492278685625142
Ni 9.176528154183416 7.650857915535569 2.526190155516068 2.984951525670898 -0.31693500159570576 -1.2658990965193424
Ni 4.20003244862506 0.8051817226096831 1.638821571943819 0.8536607569339364 0.2124523110995825 -0.43893307526777314
Ni 1.254171237016697 8.226412284507623 4.394026957970386 2.038622040156631 -0.17339262609395945 -0.24859405112746222
Ni 5.148534030175949 7.584476148364687 5.676235487061632 0.5440302594194437 -0.27155683057122265 -0.5809194191363092
P 7.137029072264301 1.387121394263075 12.025435967501702 0.6259672034045671 1.1210863389456047 -0.5169678559850129
P 7.524794143469416 7.795574646917803 11.526257022242559 0.44869581108149176 -1.0933130254870784 1.2972174470166498
P 2.498283499474747 7.499562726765723 11.023184190078668 -1.3272049945176756 -0.855909443758797 2.1636915536651706
P 0.43925806304596343 0.9548374291625032 3.924182333972857 0.10327118668652538 0.10363011268784088 0.9892532814609867
P 3.282043711978415 2.213347648711455 12.377857459916662 0.07754858510944064 2.193945210343389 -1.4747873444167503
P 1.0871903931141191 1.0295612401695915 10.042975377034011 -0.3101490890221239 0.4285105943828684 0.4728772934237017
P 3.3849009258559293 3.370568286781643 3.0554153884179187 -0.8033393829715648 -0.25628653467571344 -0.33931542617343496
P 6.445777833577351 4.869756735264888 5.669816592257465 2.662915712513517 -0.30113968643466205 -1.4685485625958903
Ni 0.35548770673775476 7.134500331906793 11.597560035408089 -0.6061640526357108 -0.07017723234603397 0.4660777540033651
Ni 5.293596013931717 1.4899132901239744 3.7547259372405857 -0.8054181198774644 -0.09443584778308252 0.19683903004235775
Ni 4.438639163318149 5.184188336102283 5.898463242531352 -1.547880979078631 -0.9527546723143203 -1.38347075898894
Ni 8.34639214988339 8.015892316958809 4.512939340331765 -1.9391938813652798 -0.33276759775258824 2.9165483545061512
Ni 7.783042918873034 3.2597889306033023 4.568619217037609 -0.2687216751152727 0.17812551279325453 -0.6555618863425484
Ni 2.23662885606194 2.383874327801682 1.569853211314999 -1.2622861823571037 -1.8890136609664627 0.8838717332996778
Ni 9.199856017260053 5.146434522499051 3.9994333546854772 -2.1368880603190807 1.060497007398322 1.172290886843878
Ni 2.8090106356555715 4.380916698921315 8.244106935208515 0.11944599667417494 1.085586346266782 -0.019238022294005574
Ni 0.479218692496245 2.390154188541913 6.048472599488414 -0.2968120055935856 0.5549988426158055 1.4120377719933552
Ni 6.451628461636972 2.1780199328681937 9.790647213279245 0.09344237352156165 -0.3488177092369154 -2.160955642791246
Ni 3.6692862390506136 8.165927801122516 9.50372569481087 1.8335793912575584 -2.1442884665482103 -4.06210748178214
Ni 0.5277163867180533 3.575349600013605 8.355166225743776 0.870951425693584 -0.5657123723785678 -2.9222091523363547
Ni 2.1230035005882497 3.5767026160720503 10.859695993835922 -0.7412248730290074 -0.6192296275704174 -0.1376766607495887
Ni 1.5545128085558015 5.92651826378184 9.705440793720038 2.069603833250126 1.0292557899958532 -0.2843848355738264
Ni 3.102643113773835 6.696048479808758 0.4693920634538419 2.8686548732589823 1.6463154064981453 -1.904002421065811
Ni 2.7152979441040994 0.4426797940020447 3.230553519481136 -1.19751623706957 0.7510284893829905 0.4716624471799941
Ni 3.0901953660361405 0.40194747884118787 10.7331358048435 -0.7179872426573054 3.4503687632721283 1.9936665584918634
Ni 6.390126883421722 6.675230694799166 0.14228503493512543 -0.8943780321476403 -0.16760815820169844 -0.9354388067436923
Ni 5.127370992792822 0.8359231805720773 12.89739976341266 -0.8681728345071822 0.26592071533136785 -2.515096564013288
Ni 4.366061515714111 4.87190289866794 1.7932557579692578 -1.2058378695613876 -0.3524627621886704 -1.205078365687544
Ni 4.368338315150392 7.952860430925732 12.077647457525309 0.20578698326426492 -0.41328786389584304 0.34856419846521264
Ni 1.5011759824173754 3.0256425033304666 4.204056971563042 0.4666313125139899 0.7745702812586724 -1.8325357804843925
Ni 2.117796721549544 1.2830138069246528 7.7691273819905575 -0.4419458939521679 1.9834189126219262 2.4111481487540796
Ni 8.647489544186177 6.162512257810346 0.7546610361018689 0.03414090754776701 -0.5474025183257863 0.0536021015961722
P 7.490464860165834 6.486041725247629 3.278612649877103 -0.6325147747150978 -1.4832840690338518 -0.03730670687025833
P 4.737338453296658 5.442063865696675 9.266611963354686 -0.9235070883031127 1.111169594052525 1.411465444429653
P 5.408928968982617 4.591781918843664 13.486114779618031 0.6537808831827256 1.421050774125243 -0.8192257151845181
P 1.5935636513460942 9.229958291774148 1.261261974277472 -0.9730311631751692 0.027413616126262468 -0.2805878304252393
P 0.17885285997954078 4.2843486769292625 13.282651957207161 0.013365365563312467 -0.10375044031578905 0.7809522735256164
P 0.0661391573948853 4.622714665283287 9.992827003220901 -1.755523527494396 0.5958346456852447 2.1403274250179334
P 7.628995042260144 2.8437038336231484 7.741525854398279 0.6098908666679947 -0.026988355663385782 -0.021420631767621174
P 2.8592401904321894 3.110761210124505 6.097378064756802 -0.6098494719070982 2.0680424023002772 0.5962596490378054
