# total energy = -340887.1312308892 ev
CRYSTAL
PRIMVEC
9.11389334064492 0.00000000000000 0.00000000000000
0.00000000000000 9.11389334064492 0.00000000000000
0.00000000000000 0.00000000000000 13.33910415049167
PRIMCOORD
 96 1
Ni 6.375997598424061 2.1860675165283627 11.19222803547782 -2.0344897631558125 0.10851263759112278 1.282190120369882
Ni 4.660261650003739 0.3627174523705427 5.8577871042241165 0.1952351758903476 -0.05674990319653453 0.35953663831631627
Ni 2.596065112213134 1.4928010089270312 4.628655580069199 -0.16325270944648013 0.3041558475531665 1.275903258919906
Ni 3.6138317841846312 4.588362147217158 4.804131743943201 0.9588386737248712 -0.876382109790852 0.21424025623794074
Ni 3.589953384222552 2.9185328784185884 3.042850026068492 1.4921173510547658 -0.6512174933309236 -0.7495894429436187
Ni 5.181813297419751 4.547814436747199 2.364623264886024 0.44816025029299594 0.053872324538423354 -0.4521218060439053
Ni 5.237526526033565 4.894971739401995 10.992008563185097 -0.02562464254663974 -0.7170937843087586 0.6681775182240299
Ni 5.369103800939113 8.149925754385558 12.624821755095885 1.8690665284205747 0.4916913408064112 -1.40010245400835
Ni 1.857283822394007 6.852134716446546 0.026899655529800438 1.5314871111016397 -1.2503153831484723 -0.3523367781337674
Ni 2.4895692711608834 1.624059297573545 0.2945819874405789 1.424753934008443 -0.16685765318891907 1.0592587641158466
Ni 8.1930253549278 9.220161109021822 6.579406021917827 0.34993948154618437 -1.3297987233867807 1.3915733334914164
Ni 8.848542117245568 2.802385424557238 1.528394407099514 0.08891363241327267 -0.43167510815377913 -0.9481336286025411
Ni 7.062118813822999 0.9702103776958751 4.7623399870630045 -1.2072766588904433 0.008033926048070034 -1.2887150659725934
Ni 1.242524390087848 7.412775851434069 2.126092631493836 -0.40494823368189614 1.3229282215191926 0.7829271378638
Ni 7.982184551598508 3.796492430001423 3.7538904480232764 0.3182228671691939 -0.04179456743828286 -0.9848952616026071
Ni 7.729483637190656 3.8123597179151556 12.545000456413488 1.3965281063935302 -0.5266688853228608 0.46052957049162624
Ni 8.356164041691624 7.373303580351716 9.247027043147098 -0.7574084247674052 -0.06540140822394543 -0.1524201376073504
Ni 7.218103094491316 0.9900148674354166 0.49716286943947613 -0.04169300886341206 -0.3612217393282231 -0.06420250281983782
Ni 1.9183377923733846 6.97511759014437 9.123759815984075 -0.742273883118812 -0.6385982619050162 -1.1949826720144388
Ni 0.3757494081361065 5.132926374749295 1.4940195364365465 0.23723723135374625 -0.6216189537382005 -1.0492031796520576
Ni 6.912067677572742 2.174128316547323 6.895716441934587 -2.1933379157766937 -0.005057874138881612 0.5107229035165656
Ni 3.5426340511679277 4.318335721997125 0.5057053214564444 -0.12330419407800054 0.14130680130300827 -1.1999608419553205
Ni 6.147840398175704 5.683414632806377 4.532841221748077 1.173024936796425 -0.7400771325778093 -0.09599625029166693
Ni 5.140992170156334 3.080723720298422 9.023569877578298 -0.42145831552177737 -0.21814190528519206 -0.4044525249924002
P 0.3975835618724246 5.5225817610007235 12.477784583298856 -0.9249602758098714 0.9580280048981179 -0.8196936559598722
P 4.146201622728501 6.13007742049399 12.727332090688817 -0.7708954035102465 -0.250943010975613 -2.394881550383572
P 2.814133232782856 8.831508251013078 1.6134443462621582 -0.2552766053539604 0.0031192623552720473 -1.7865855390065233
P 6.421439469496934 8.077989796026515 5.661502099589267 0.04047507729591094 0.018153273870259057 0.04225633756604981
P 4.5677738626697 1.3724976198051049 12.471715641873379 0.5894400550128106 -1.2285617935214648 -0.2834754363856795
P 3.916476832864314 6.045855934215527 8.103946163618883 1.5491513611506222 2.2777287206189483 -1.0604694965944963
P 4.871002200508762 1.0428936752903724 3.7499559803654026 0.5883612201263351 1.845827869607608 -0.5957523703840837
P 0.5277545630702836 5.957205095883028 3.5062103773326414 -0.40506187644162495 -0.9117142094332427 1.0850153042546604
Ni 0.44879452728728103 0.15046035005113415 4.65930924817319 0.526857347184583 -0.3984839661137911 0.011502858433276962
Ni 2.46509846814631 6.642624541512088 4.474415698543151 -2.485617066496932 0.3319345603283315 0.5375325675102419
Ni 6.159442384111479 5.960960019846531 9.004322246708103 -0.1391445035443668 -0.5323654214870057 -0.19525214517121212
Ni 8.631950447360525 2.4668118800519854 10.516482987390647 1.0360283328329964 1.3282861433969964 -0.8008433560225886
Ni 2.340630029870692 5.497281593712658 6.706928525776381 -0.04548615735725715 -0.3608191045731657 1.1769430409039086
Ni 0.29707008026105514 0.3653203802442716 9.634327399417531 0.906310264808852 -0.030373212975218656 -0.6927004430660586
Ni 1.7838258438847097 1.5130429655361068 11.42914459839929 -1.4538490516021865 -1.6764520779825256 0.11706181271271453
Ni 4.373884900534862 7.125724673874661 1.1794425788903167 -0.30308215487301354 0.555935495497462 2.3955009291351264
Ni 5.907561720084003 8.330335268602871 7.797479659555956 1.4324325335996233 -0.17522402287574337 0.5412670948520097
Ni 5.317181951861264 2.8318779826783405 5.146640049719884 -0.4071550115252278 -0.47455133869201493 -1.0134743587918806
Ni 0.7705896881808266 7.371781560201461 6.45492573558116 0.16746597619687933 0.4481270830622153 0.20252091091848348
Ni 5.216664824692648 4.553136950326533 6.875414333630951 -0.4656841181093722 -0.23903623223569798 0.5970417786194685
Ni 0.7762412133016225 7.766075918048576 11.414951532650838 -0.5758659158728018 -1.2166210762198209 -1.2396180513356265
Ni 4.762382822360648 0.1691857548458243 10.2380289452069 0.49568349268493994 0.7618785447236168 0.4675594807552141
Ni 8.124516220380109 7.117039133735783 4.700886828565178 0.5575241801408205 0.5363184925974828 -0.3975223735314702
Ni 6.891379140201018 6.247838033436749 6.7202539489002575 1.6273764035017975 -0.2574450737601888 0.679386499565972
Ni 2.650994546019032 5.509494210487157 2.356633114791843 0.7869205752939092 -0.7352668556733595 0.28211815102683674
Ni 2.5759234084283267 5.341643640982723 11.29355265357645 0.11964037207316816 0.7119996576153028 1.937635535739224
Ni 1.4347455097825865 3.6566579679334144 3.732828241033824 -1.0914034671691915 0.1174472210765913 -0.11428399285726122
Ni 1.2692918941674765 0.9902062591908377 2.530921738392922 0.9427332835225765 0.5259985987287135 -0.7585301970766742
Ni 1.3514171850294219 3.055441780796587 8.076213498258344 -0.19035419364896247 1.4863069150205757 0.207722509724081
Ni 3.4986504029935017 2.491273569173444 7.113264159207426 0.9773698997598393 0.4481293970550605 -0.20975470966276133
Ni 4.381495001286136 6.814776868566942 5.788624503540059 0.7029383187439828 1.1288495278307913 1.4834568471662903
Ni 0.8646550904131232 9.032451366419156 -0.07786545721985533 -0.8047923133680075 1.2454323440245585 1.6019821317984089
P 0.11317632470576379 5.843700671025114 7.914156630607304 0.25231752272563646 0.34129928937268317 -0.5035790933829328
P 8.77888463216535 1.7411090268533103 7.919052613988843 -0.06263747232556309 -1.1701972375396428 1.1212138656624044
P 1.6346314135872901 3.369871093274349 10.43259324682158 1.4156434870667427 -0.4145150514347248 -1.4437258471252556
P 4.439249741957776 6.150793299545061 3.564688761117636 -1.7861561647785884 2.151120658978695 -1.6460665237121328
P 6.929703060750843 3.7352744099459696 9.844738938381091 0.415071181048511 2.1096423372292508 0.9748023961429793
P 6.311744651961214 7.679302541697828 10.370739988415993 0.8094092433147285 -0.08369712120933973 0.028921311020040516
P 2.5624621882970327 8.678194341027544 5.763052742237158 -0.827017186204479 -1.0315301878523266 0.350552432539835
P 7.070357773199228 4.149437054784432 1.2854918391799177 0.4419034707500067 0.67498811338796 0.7249726728362029
Ni 5.513358501168042 3.2293348614364623 13.332474542979714 0.16110275298301285 -0.5684922491165499 0.3188838977919605
Ni 1.6004360866186942 0.7380266594691803 7.379419002632081 -0.3356652310153574 -0.7983838387385025 -0.8218472119677653
Ni 7.14227550377204 1.0330142151533899 9.225350559761674 -1.4951571663223542 -0.24534109140780327 -1.8739027734669533
Ni 2.865006984152447 1.5991874832618984 9.318858191735313 0.7406353190741245 0.31964700121023015 -0.2584583455160517
Ni 6.3354134323816425 2.3085400122117297 2.5218780222546124 0.17753133085268133 0.028908712614550212 0.33287969785042026
Ni 4.067767458578252 6.898925443700483 10.228864925679469 0.46785618606002655 0.3822577340629159 0.3604730340876566
Ni 8.321695297929569 7.2444878150601015 13.451419050638147 0.33631597722547885 -0.05892042848529208 0.1358565768217144
Ni 8.107609948651232 3.8973923406808813 8.01456074550129 -0.20788706032640328 1.4012126563533933 -0.1413451107401114
Ni 3.171807968092705 8.615454300821836 12.232718377153688 -0.9938113331453141 0.13190299149060508 -0.1119895403961297
Ni 0.6445135591596707 5.221194429570952 10.008569369632369 -1.423474038854755 -0.412703966367915 -0.5789219290903062
Ni -0.06413628863097125 2.4782133603392227 5.888147304969797 1.046076718207934 0.33692198624059394 -1.4264205230775886
Ni 3.6824320576634753 2.972596492378533 11.49011745472994 0.3298311408320836 1.0691801369946168 -0.595319139501407
Ni 1.3819304991794379 3.6000060083287253 12.573119550842115 -1.1297465857237639 -0.01785811122734344 1.5940222535213837
Ni 3.6481547056568413 8.432073657448937 8.196252584479927 -1.4790558898851172 -0.17608431399350966 -0.846486093562368
Ni 5.860315298174301 8.061338713304867 3.2742563292124522 0.30929291166941575 -0.39143914345186775 0.32434029292084143
Ni 3.4688388586133643 8.559449427628333 3.6762300533985153 0.22318306725352527 -0.3349895451045715 -0.636740125650355
Ni 3.1554485299507458 4.522815027931938 9.182985539004525 -0.3347182937210558 -1.7828754371447877 0.12320803481976844
Ni 7.640960393361771 5.727853975636568 11.191254671693107 0.13890333406783822 0.9922097929861491 -0.9180118695164964
Ni 8.298509553844251 8.559713730528678 2.420140544797859 -0.6128049549909962 0.24333897337610993 -0.002775505862608123
Ni 4.816264158458285 0.7931082952901035 1.2331161182249262 -0.3298943899698512 -0.7529647871737549 0.4779554792775575
Ni 6.280766529262318 5.817762531218977 13.118181396938349 -0.4273214591707737 -0.3219833626528906 1.500653927770867
Ni 7.636959394284156 0.25640297779128635 11.321710937745474 0.3300540554761671 -2.0192878586043936 0.9537082944768412
Ni 0.28508075386788134 4.971364391494418 5.621391855988843 -0.8421381010063174 0.11703173080572747 -0.018757226002845115
Ni 7.48802926688708 6.060301454803272 2.473496920652056 -0.5769756039972127 0.18749409849234808 -0.5719118163210603
P 8.442645773462681 1.4960911243416535 3.1914073952371522 -0.5334841084724813 0.3270468932187271 0.7696874992450745
P 2.0588102269594644 3.26620055908784 1.6033470640797203 -1.606115437240492 0.494166027599149 0.40916844241083083
P 4.8795966017164885 1.1974106191671254 8.016241347391752 1.2430597300273236 -1.0001676143806453 0.8794468647591047
P 8.795016222979427 1.7113339380456336 12.532554523975236 0.6479084835623486 -0.011816533018953844 0.7448138759318463
P 6.52350595849515 8.033568680982555 1.1331367107501131 0.3884319811944278 -0.28523304250673454 0.17177463087456224
P 2.1501587776540907 3.37955916165591 5.8571473089274235 -2.1545129724896963 0.6373314793774508 -0.7605657394494644
P 7.117868498009274 4.07767426039458 5.625793866363532 0.015104202631290118 -0.32901790090216887 2.0237996304318178
P 2.3029167401595916 8.766507965314776 10.160181715773275 1.1724029869417099 0.2883242798375486 0.16407597667872387
