# total energy = -381175.669084971 ev
CRYSTAL
PRIMVEC
9.20546954390397 0.00000000000000 0.00000000000000
0.00000000000000 9.20546954390397 0.00000000000000
0.00000000000000 0.00000000000000 13.47313518062214
PRIMCOORD
 96 1
Ni 4.333778476017993 1.8468104660474267 9.218642374548729 -0.2889048349313669 0.8499457699761942 -0.12674355877685267
Ni 2.4527881022817692 5.573377772938457 8.245167673194787 -0.13746300207688583 -0.21474676356071404 -0.6780865498076257
Ni 8.358243976476798 6.755893954432519 10.76900911118535 -2.4150030037237955 0.30406071673619894 -0.19412008844929793
Ni 7.513807862254147 3.171311806763682 5.942110212044545 -0.1731180322763341 0.3629582624033556 1.1446695255821835
Ni 2.350736269090818 7.167866324159619 6.269534948545748 0.4704560855767188 -0.3927064402000656 -0.664856681380913
Ni 3.3571886438367184 9.25223313219926 4.768371445573716 -1.0289660266695764 -0.2761866160337501 -0.16015838679187255
Ni 8.237201260021106 4.615097619290179 9.684273425104807 -0.27964089313093776 -1.2219471164184246 -0.371131028022135
Ni 0.8837370245096915 0.6491153861455922 8.700963600299557 -1.099089265849223 -1.1563567321121246 0.6744324979948063
Ni 4.103770618891066 1.6449345232477193 3.0790960175709747 -1.1579418172110572 0.617965159035697 -0.26355067243729446
Ni 0.9950560036931854 7.835686303473234 11.008818031526998 1.9705011761189932 1.9411360926933148 -0.0818335856380397
Ni 8.030529267691136 5.191949150507729 7.335259499328983 0.7847505642257839 0.020310686532894057 -0.6120932736359522
Ni 8.950192477424924 2.0827926727811477 10.393351397488827 -1.6259910931184964 0.9032262265668897 0.19798728471418806
Ni 3.1731621061026125 4.1740175554849825 13.08688737798573 -0.6121184704469329 1.1185890264450475 -1.4945259604962584
Ni 0.3337719076165885 7.122336072764847 8.461317616765369 -1.5138398303335219 0.12517441451751993 -0.22065695839756191
Ni 3.319685561713326 7.344933527066704 2.3759739838550535 0.015314775980199431 0.7940885537972582 2.17498306741859
Ni 6.513762494174394 7.2451646502740354 12.225428509844921 -0.6408541478187285 0.38342707178066865 0.19304819554135785
Ni 6.63906734293817 6.343203558096283 8.999919502295409 0.10092994014785843 0.35433786772419623 0.0819711396571685
Ni 5.7310214355214475 0.2781497001757006 12.415022515440644 0.02144325747544049 1.1001940688776277 0.37938169806670147
Ni 8.169421389212431 2.0544030053121873 8.174029647167995 -0.5640303566904544 0.5747770536839971 -0.6600669733017536
Ni 8.207237457293653 1.0690863881890926 13.119478421665079 0.46704140346821504 0.08442062963892558 -0.3845606711644796
Ni 5.09213424636832 2.8031850875406863 6.82918145755205 2.618718963391645 0.3974935771760638 -0.16909168472576042
Ni 1.1631202575780122 2.393771838292306 0.45543875489407004 0.25105691084565795 -0.23889585000309183 -0.4376009867199108
Ni 4.21150222666968 7.643264377693832 12.070743485110349 -1.4031371270696158 0.8729864538457417 0.023283138897656673
Ni 6.252529685019351 1.9496171477249065 2.071939424419959 -0.5349817760639302 -0.7966910244171118 -0.06077882185026952
P 6.4776678488612305 4.585069378277291 2.415517918532878 0.24168601115371927 -0.7689578201679015 -1.0767317240896295
Ni 5.4614300601985 3.7603605848672146 4.08341088233429 -0.3125679828762617 0.2610775283064536 0.9705423353150445
P 9.155262718088355 6.682213377771832 5.582701072294022 -0.2616976783889558 -0.43821265216198085 0.959566295919515
Ni 2.035936833800276 2.2577426177382125 9.696156765486027 1.2403297326906704 -0.29740361643099744 -1.2148449581560046
P 2.224584517147034 5.484940828913067 1.3885410293288738 0.19500069128203837 -0.11692862956895993 -0.19802533704097508
P 4.887772826844676 5.595277584517139 12.091464996612498 -0.2647063833082925 -0.4613304691263668 0.017341319491924974
P 8.011464740671611 9.089756598208615 8.869620686410391 -0.21676765064548473 -0.7430794097392428 -0.22611618173992026
Ni 7.849604973127276 -0.16149246931735267 11.10480069877687 1.294612919514267 0.323847669555139 -0.27031164531021185
Ni 2.2253669820416064 0.4221968845318255 1.902985922196124 0.40839891123465794 -0.34507444014439925 -0.03360071877358085
Ni 3.728758208595833 4.954853081982911 6.017803104304685 1.7132242525055525 0.9320477787842723 0.2980906151956931
Ni 8.838520928765405 0.760646091124088 1.9559624777464222 -0.24856088389668163 -0.13189013597479865 0.41081446265468596
Ni 3.128672072744154 9.234098357583873 10.443457687696448 1.623724922792139 -0.7852138770154478 -1.021255802509512
Ni 0.006605844804061556 7.4841294290764795 2.375273447637677 -0.18738405527704502 -0.12119640370637835 -0.26258728008276067
Ni 4.327527962330761 6.527717985705828 9.981343126431272 -0.2112726889691845 -0.48002161777796687 -0.14280472600477342
Ni 0.13943524421282105 5.398363389695956 13.292797157453695 2.6635947408584126 -0.17758660957064898 0.3141168154206203
Ni 6.431272283347756 1.8148398710021287 10.541098259975879 0.28712717420565387 -1.0127585636717784 -1.4297033075939183
Ni 6.084925704601919 0.8393602184242128 8.140845771262642 2.6610750597603525 0.5959560017544575 -0.7571109481316445
Ni 2.7148862255555155 4.317457178864145 10.173995188944371 1.7327648936416418 1.7662473416698032 -0.7232520906006705
Ni 3.0396735950885425 3.248260325042877 7.590454441138731 -1.166819065096029 0.28865003860808347 0.41155725435798146
Ni 5.459911157756095 3.938606087850832 10.724952655433178 -1.3097315203232605 0.8039968140499056 -0.7004546330901807
Ni 0.5970750268279769 8.685618082896589 6.642161301186004 -0.3125291592185263 0.22669236595836445 -0.8116718140966602
Ni 7.184178415844119 5.051943167195337 11.740301195756901 -0.3678595563597148 -0.37872298143678 1.1956519301673214
Ni 2.515238006338003 7.801745737987483 8.593744737163624 0.8415426335141635 1.3572581051493142 0.30700308719397446
Ni 2.014902336340297 5.967289011804953 11.863674737051486 0.7548910576621902 -0.255066032005051 0.30606077788536323
Ni 7.897482619205766 2.9779141012334014 3.7152574672501855 -1.8954396190974647 -0.45005926708792166 -2.7277712755363215
Ni 2.0410090474109754 7.614451258634867 0.5521247200021232 0.13932910875134716 -1.7439044551982292 -1.5196176133575634
Ni 6.9848892099311755 7.501536971613381 4.703740765828962 0.6186477869250184 0.9428955201320535 -1.2828105275627004
Ni 5.306271874339446 9.016407418444453 6.084911896397897 -0.5238494135961945 -1.7765484664854954 0.9459918996691903
Ni 1.5024338577420437 4.777933166585393 6.055406526043971 -2.7222727143155954 -0.13662687932883566 1.4510313796477332
Ni 6.129719518448858 5.5176110396288065 5.807985603098534 0.61987831689801 -1.0257436630775367 0.9094542097544726
Ni 3.128699689152198 3.4225750926149368 1.7451747200710015 -0.5740597159019984 -1.0323233731775834 0.6363935409442136
Ni 0.3977324291928149 0.7980635623825453 4.478267522902817 -0.05278423368056715 -1.624724310590931 -0.008914271770494324
P 1.7011523245554172 8.213128957676316 3.6357654777901622 -0.07188187374196653 1.3694284219632606 0.11771513002599727
Ni 7.514829669351765 7.60253938129867 6.828723945725459 0.023567245796978768 0.051701027918717404 2.336070650892951
P 4.347982515221821 9.01571700824336 8.266199409013963 -0.9612079452879962 -1.9111935394976118 0.6383486077880555
Ni 4.1778378252643655 5.316904191436285 2.757249795494606 0.3407323611256196 -0.9925581774645036 0.33794631374005024
P 8.610565891303063 3.628050373929677 12.466260157831123 -0.7813227694911576 -1.932884908428116 0.19974437661461084
P 3.456488041692644 2.152211117133751 5.639598237239595 -0.1131136266982439 0.272183408411628 -1.2841744977897627
P 0.4180176014478735 3.1913244971260424 4.657447381025248 2.32681210840916 1.1185592016483767 2.1910830583042453
Ni 8.641072816722042 7.813841724710638 13.098474302253948 1.1298694844548733 -0.2862920798988683 -0.12293704054656891
Ni 3.1989374202767653 0.6754577572315769 12.744736652168674 -0.8799559431850393 -2.0068421766418725 0.9481583111928895
Ni 4.691475398469803 6.464098987042409 0.6884153758856976 -0.06549936725439043 -0.5153516605378285 -1.34130209604069
Ni 7.8601912628773745 5.536344169751808 3.77552291343016 1.059970959691523 -0.26846585035072473 0.43600741698054585
Ni 7.071779635106115 8.60846704429174 1.1654621289801212 -0.654307445110157 -0.2531438752816737 0.04209332962562429
Ni 7.523685330864456 0.6943225255662526 5.94034552357055 1.2298512017568495 -0.22085596178224545 0.9225151567034887
Ni 0.5986905866985353 4.350780977903586 2.3424522672246324 0.023250742997824474 1.4939672597793108 -0.1348168227032904
Ni 4.757625901203899 6.968669172940154 7.427496461101191 -0.33655380426789777 0.7517108601619957 -0.6331290112603289
Ni 5.439511837681122 8.769231360983671 3.3905004757660073 0.3594782742745551 0.759991097892917 -0.16985710213687522
Ni 1.4974352878861277 6.1519139050466745 4.071325021627416 -0.2927429777305345 -0.14011972297344255 -0.5189584040524804
Ni 2.6326169459932274 4.041504824221791 4.244710957342272 0.3987022527721843 -2.2107897927045537 -1.5191159911307965
Ni 5.900650619195419 8.544811223750928 10.097292456696763 -1.2824734559382558 -0.40862645386443175 -0.625603135196929
Ni 5.72651075554097 1.560087712268016 4.810353909081803 0.07237398288703664 1.1681735222413945 -0.9779185731744579
Ni 6.526981548157996 2.678110375510608 12.570798388292944 -0.008092547200147352 0.34050918937122004 0.8882305244890057
Ni 5.260815266699457 4.026232950573605 0.559787352687325 1.1119977463807753 -0.13026699854907886 0.924429343007066
Ni 8.09677182511871 2.998967009632076 1.1226705047163528 0.16514658403508334 1.5694085687377617 -0.25015702473920787
Ni 4.649268321509628 8.85436354151316 1.134868672149271 -0.1273642230799871 0.9160812281526868 -0.26642747976445724
Ni 3.67957338586994 2.4684374001732197 11.385135777375764 0.3940956072381084 -0.3642551268379081 0.8576860760432454
Ni 1.396598576649101 0.9886582024963866 11.388329154692556 -1.742847217578308 -0.6916905137443055 2.1904102006069373
Ni 6.223136621391468 6.754669627009247 2.3926938778316655 -0.20931530813249757 0.5104609081044305 1.1771924379105532
Ni 0.7269862924534483 1.9727596976655568 6.491019461603443 0.008388738284327488 0.8169634015129027 0.13689375983697713
Ni 7.441683009913257 5.96086359420011 0.5759898992865847 -2.0120298914903993 0.016179952193972134 1.3914997999410035
Ni 0.864368717001685 3.5909891543349843 8.309084008518145 -1.1234882635188779 1.000929432247334 0.09351744973387119
Ni 1.3373797923339839 3.4074044791295774 11.6381342941991 -0.5840944744301811 0.15955751998308004 1.2391020309311562
Ni 4.92532193631481 4.8582324757072275 8.270227722400609 -0.06173372956437109 -1.6515725411320268 0.19432423404030405
P 0.813159611566186 5.771516295182912 10.046175405954745 2.8668720703269464 -1.2425064286270149 -0.5928287689793855
Ni 1.146044111937636 2.2401969931610926 2.910170131755183 1.3728644442280034 0.6834987219621325 -0.47653185945715354
P 7.503442503768398 0.5598858512093476 3.7483474473681895 -0.8221398035075196 -0.4562911069302464 -0.7485604874584721
Ni 4.73429924187629 6.836441811226749 4.63171349146316 -1.561257657495853 0.41513854395133665 -0.03872904113908169
P 0.9863384242207129 0.08981224114596734 0.042767690043463744 -0.5498224406211886 1.7869082124532645 -0.7961888879697125
P 6.509739704069356 3.3706194236153215 8.882379466926595 -0.25159967072300543 -0.32790589878491266 -0.9294435083922057
P 4.4521055790160515 1.7932530453812756 0.3863342170462305 1.7383886675863223 1.7785420998767565 1.6056413258175508
Ni 2.723097504213853 0.8529539350102743 7.284209648513204 0.23782190021262267 -0.6711353153007732 -0.45786153674115987
