# total energy = -381161.9094576955 ev
CRYSTAL
PRIMVEC
9.31160872514077 0.00000000000000 0.00000000000000
0.00000000000000 9.31160872514077 0.00000000000000
0.00000000000000 0.00000000000000 13.62848060108539
PRIMCOORD
 96 1
Ni 3.0111879687921292 4.707297463861355 8.849504133902135 0.678281182316935 -1.858201817791929 0.5269689330617827
Ni 9.078036148750533 6.743504149146932 4.3318534076374124 -0.2947659216978343 1.182380409869396 -0.7102952733296863
Ni 2.4457964100157996 6.508963353309415 2.6511751102362 1.0459725885299018 -0.43332189972858276 -1.5503494952237815
Ni 8.772848178940519 2.6241788947648597 0.2933063573164181 -1.342100423572269 0.8672490371413323 -1.4939027250899626
Ni 7.776869218182356 8.447239851608208 5.362670820577031 0.14547970173377525 0.549045453245848 -1.064889480039063
Ni 1.1358113861628 7.667457817869079 11.528358931676314 0.3726713759260614 -0.9232674614884808 0.18745810304809005
Ni 0.43882538205478394 0.6235248620355477 3.762019280427937 -0.7152492749008521 0.6045799959780427 -2.323428022428276
Ni 5.667892312177778 5.019105987341389 7.98930146186976 -0.6868622391177267 0.6667225309450583 -0.7335136204276786
Ni 2.4784335979390373 9.179095036205851 2.003332051344639 2.5396714251391748 -2.1559517618187516 0.8621798501485409
Ni 4.471536847305452 2.7483398830012202 7.6569980879991295 1.5627496686603475 1.1349088466509938 0.6934383496733477
Ni 8.981605130738252 6.961358542485607 7.064840310482332 0.08602782622504539 1.5886496763555606 -0.15010691609314147
Ni 6.553966357370187 3.9293963750467618 1.9964628777266729 -0.8616046943713613 0.22197079211297902 0.07197417634545669
Ni 4.9286623336185915 7.782176835048618 8.26320615163786 -2.4219742928353063 -0.9420352290142873 1.367309318737729
Ni 5.419142001712341 4.522871745171588 11.93272949982138 0.053884408723281395 -0.2297751186487462 0.010442278379246531
Ni 8.504850773628483 2.720814768164961 2.52256317311901 1.4023123171754752 -0.22187617551664365 1.1315283602145352
Ni 1.7629668443670412 8.233184594552752 6.657758201931204 -0.1253343371341519 -1.2176081227234385 3.0696017548221266
Ni 8.567061630266187 2.5032304114738673 4.950354656867087 3.543550941153768 2.3907826977238504 -1.0695740299989256
Ni 4.794752091243678 0.19781488060555108 3.1323152349670376 -0.5682780762232148 3.4315814553622963 1.5155269882279576
Ni 1.5886907789829312 5.730950525192375 7.325240374388785 0.009956339881763499 0.10622461288789448 0.23095191256566677
Ni 8.753098257232907 0.5619062237008176 12.35503515717014 0.8413870817729057 1.9614259532906027 -1.131485937012374
Ni 2.088528613656667 2.5267608462476248 9.610681573783738 0.9832003903986873 -0.32587652705970976 -1.4128553827986443
Ni 6.01226353071275 5.844896678863317 0.9323117685452272 -0.009439805256661162 0.882416746020706 -0.790884959258296
Ni 5.1592270726106815 7.186699469088272 12.628381150426002 -0.15959634364081546 0.13757175974060823 2.11878672273268
Ni 4.403264133509967 9.060483766657722 10.883159438448493 0.9161002543160804 0.19370356973716962 -0.3694598109672992
P 2.877706060409931 5.998826879593426 10.863725180270293 -0.3604426950703534 -0.39324842874646465 0.09429855087426985
Ni 7.756355744574684 -0.18303456437429452 7.5853806444170475 1.471803064977446 1.3901903371009605 -0.15984162688240214
P 1.065704285485467 2.2636892818518204 11.372626003533385 -1.1947684991211036 0.259528695762095 1.3713575206651738
Ni 8.77598619101759 4.853126565164013 8.483088613315958 0.056142865740154924 0.7440983379220605 -0.19679197885450625
P 6.623738240140178 8.12882008606669 11.090217021688169 0.22876081845161894 0.6116811257991982 0.491550958573805
P 3.443619069264349 9.493929832460507 8.729300579294128 0.04725481922190571 -1.0144120401148013 1.4628990776195967
P 2.8377965062190627 1.7571377774226915 2.612988203624732 -0.17428119934649985 2.2459789390111773 0.6476667998651878
Ni 0.8501535840989205 1.1337907671102059 1.2286853697138322 -0.6549106259117946 -0.7517188305817957 -0.0513133055619955
Ni 2.2041322336472486 0.31149751575488765 10.813218084403125 -1.1961003305586495 0.556257397613255 -0.3534009577322236
Ni 4.563889380778395 1.641543469040647 5.485422031280844 -1.0425656197308817 0.3513872697363045 0.3685313856157589
Ni 7.486998844416203 5.7233243178003255 6.207540997991887 -0.5821273234014812 -1.684988397588311 -0.5209520374437415
Ni 8.103222474197652 2.751934163896618 11.453074576652243 -0.025105793928692246 0.8371151938704293 0.5953535922837682
Ni 8.742436465457697 9.01792971564226 10.366340023285284 -0.5905469149237441 -0.15205324118623492 -1.33584364402928
Ni 8.4405727398955 6.778115398080078 10.456438216331346 -0.41281092425942456 -1.688641935180498 0.7094480948380427
Ni 5.385443290415852 5.775152730918939 3.4534977547615706 1.8167540921701035 0.15030154860245082 -0.3764668384127516
Ni 2.151847551710308 3.7146055009168584 6.292133236909844 0.897252525481958 -0.05044273003158409 0.08861949821162157
Ni 6.790844366950567 4.804594461467604 9.981130883188275 0.28972064596444297 -0.5290255584804954 -0.04122558230869029
Ni 7.912083085752492 5.228263338306225 11.95029678048785 0.1030546998003451 -1.0057559071017002 1.7648815716705282
Ni 0.6239876489798515 7.955316884191177 2.134506543131294 -0.8166175881377097 -0.1450017336560922 -0.1917914403161213
Ni 0.6948713378091954 7.403883426612261 9.014286083221615 0.5722614863509952 -0.31147397848113456 -0.2288037558744124
Ni 0.22884302257354272 6.319928388393684 0.03480493039072058 0.6189591475178502 0.07689475357552564 0.6905502294922752
Ni 6.162990538106028 2.7450435735790157 13.446431101770871 1.5523575267927459 0.5666965906687079 0.4333805208806601
Ni 6.017906365486354 7.523025457847017 6.418305532590262 -0.2458172597132734 -1.3028237374598337 -1.6035672168973416
Ni 7.661759113444252 3.3330437178839096 7.109541618426495 -0.420443758214334 -0.17403463055333254 0.3277557463602936
Ni 4.042755897379854 7.607221022241285 3.676582478615647 -1.0628595940932275 -0.700764965241748 1.7878417800111275
Ni 2.9994367188180564 6.939802168721757 8.936644028915898 -0.979201039431307 1.6274905604821583 0.35522335565294305
Ni 3.968458572860736 4.1935760208585044 2.3883093323890696 -0.2432857515406713 -1.1114135917425312 0.959421799921851
Ni 7.588271898867879 7.439425836399136 13.038053748472207 -0.6170357052428922 0.5791623272358865 -0.35239025707952215
Ni 1.9693027779450758 6.300709228372697 5.045522089600855 0.8353557879771613 -0.4008131284676 -0.1186713232916795
Ni 6.894221844931673 1.5393765001693895 5.538205815435383 -2.082636498064368 -1.6758998050234815 1.111125371078151
Ni 2.7176953793049647 8.719576466498626 13.320967419500144 0.019925535279333426 0.6629293824512131 -0.4916581735756307
Ni 7.902305896788327 6.866100787149026 2.0126399352385245 -0.7049697473517149 -1.1499665123150646 0.1663172073044168
P 5.385471225241464 2.829369500492806 4.061259925865176 1.0163694209514882 0.8140662824707657 -2.521315805450122
Ni 1.7213439542053095 3.5615133449551064 4.053519185688119 -0.39978263032055666 0.2309655394124216 -1.0646943333091212
P 1.5697416556095254 8.436065921363447 4.659795224069172 0.3797671064305782 -0.8336750578406287 -1.900781343025352
Ni 1.648182645927742 3.3364797014341736 1.4649935088517283 0.656570787223037 0.18498238781408788 0.5594753903299203
P 6.290969285842682 7.887593555299393 3.6210871540550458 -0.548103915268185 -1.6662481408663303 2.011462963243336
P 4.572623669586383 1.9391704127183722 12.460247022033094 -1.2540149434872467 -0.0910928994527786 -2.1590897932271007
P 0.37009919292353255 8.420413107412246 -0.10782563337937479 1.3291222661450464 0.31329791906375076 1.095923723637048
Ni 2.4832476995528214 2.182268576801668 13.196035430076893 -0.030441090098676606 -0.7382503637817157 -0.4075766724436786
Ni 2.7395683477590835 6.372008214942805 13.00877991355264 -1.7486160017412855 0.36554402085266074 -1.0671931884715748
Ni 5.7884217730845915 4.098644171820729 5.709120390137528 0.7758995415930573 -0.4283861529898622 0.4355896127168369
Ni 4.793811618781411 2.8536355523410104 10.118492938847965 -0.07668649421946148 -0.0212149435147183 0.5319257628464258
Ni 0.778368531563166 4.283554094154437 12.926177565379104 0.6284249209164403 -0.9235425695267385 -0.6426390076332932
Ni 3.990489838659988 4.817807633982034 0.20590759958531868 0.5196204631165116 -1.6366092349539751 0.06915161929499704
Ni 6.498199133840298 1.0222563200504247 10.173496610477798 0.0592983806500011 -1.039492380122197 2.0265427403945937
Ni 5.501167961317418 0.303280952381574 7.287407308901734 1.3016713690229453 3.4946398172753623 0.7893569526495438
Ni 2.849966778577314 3.862371416795275 11.540079453342214 0.6376814065177018 0.7526806802744328 -0.10018354890013714
Ni 0.6180747775586659 4.517852788169983 10.43790345953785 0.3745565087639162 -0.06910713921030678 0.24929981894523515
Ni 3.8415134136717226 8.895137533860883 6.138172307871562 -0.8429873363804902 -1.6633199114759416 -1.6510390372260597
Ni 5.099632777971961 6.554357444928755 10.60486525641591 -0.4067186953187576 -1.0354099825227072 -3.293501902747334
Ni 0.7144136106464272 2.699090785447439 7.702122142970886 -0.7306908062669029 0.5041282810181833 -0.7457060487288125
Ni 2.1871571712837508 1.369365151495363 4.979342625404556 2.870483698937605 1.0458463473646828 -1.3085441848833788
Ni 5.86444174518311 0.13500249405633907 12.912848928918814 0.6447082314574961 0.5932226619836944 -0.9548856026143943
Ni 3.832471841782004 4.768130202435538 4.79249588849509 -1.0872094836925017 0.18211509356862185 0.10926648503801181
Ni 8.804107248800236 1.8825278979859754 9.43379732684833 -1.2057692211069815 1.3028417351819628 0.5200282400778915
Ni 6.9346062911579445 7.684544619535025 8.995246637245398 0.8470867032608443 -1.3230446924923986 0.5845112502526256
Ni 2.726262059159281 1.4669321857491944 7.281165737699181 -1.2829313694112807 -0.5022272073407286 -0.1920611490377402
Ni 6.028400548307891 8.55232135395164 1.6012102366613312 -0.8927965465931333 -1.529486021511211 -2.8779111017499273
Ni 7.873439910322697 0.33885409047662185 0.6877684428169427 -0.07736192301993129 0.08579257028578773 1.4061203780676559
Ni 7.816778772373225 -0.2618117037607077 2.937632779473434 1.1654754065839412 1.6069240491847163 0.4501729098476505
Ni 0.7773433234632092 0.3498362015855137 8.550508383769428 1.7964963703623318 -0.2501050884553499 -1.2587457733040128
Ni 0.654995305409061 5.191715274797321 2.5018755724316906 -0.8942823871100405 0.01573206602327613 1.1910853938425616
Ni 4.542928949960932 1.243136986163722 0.9227459530948589 -2.236240885787807 -0.049719221601998244 0.25502026636878017
P 4.158890279057061 7.046066245349427 0.9122852920640558 -0.7431202902795072 0.26790097898619025 1.445300390701227
Ni 9.744598334284628 0.6396339448050771 5.989117665371584 -2.714153170532255 0.2775603564528252 2.7924358055942426
P 8.442425749994424 4.793373973180158 1.1532874130656052 -1.1715380678382534 -0.8620518092111088 -0.7404689686995893
Ni 6.4007159040633015 1.7072089324456878 2.059441010907849 0.6030846423794388 -0.5469006389887032 1.1487899755084603
P 6.78855371125039 1.818491966074962 8.370544787890735 -0.3378208439057795 1.060750518170025 -2.009425878208649
P 0.022226809578535504 4.828152831066974 5.231224429821086 1.2590057118336189 -1.1174747103349463 0.6702418569522263
P 3.9907598753075697 6.1265728371166475 6.767139805097161 -0.15094535283403682 -0.5129232536019941 0.06707082550656837
Ni 7.643908759878247 4.785747765788109 3.8746860190858547 -0.13222823604050776 -0.2872426167375956 0.09806418856428917
