# total energy = -340860.24675424903 ev
CRYSTAL
PRIMVEC
9.37107763724965 0.00000000000000 0.00000000000000
0.00000000000000 9.37107763724965 0.00000000000000
0.00000000000000 0.00000000000000 13.71551936516164
PRIMCOORD
 96 1
Ni 0.8912241405714633 0.059062152874869274 7.800207503778771 -0.5703046197349404 0.41522313324534293 -0.8744370702493393
Ni 2.146332842026197 1.210190315808316 10.551183817774978 -0.8078809795956603 0.004129963007973533 -1.104703012491575
Ni 5.2302888405108465 4.530878473389997 2.0867337264121835 -1.711885221979155 0.21915569126168707 1.4835172680905806
Ni 1.6698135525762712 5.422424041918749 5.176099647921404 -1.3964517446296403 1.0146586089079688 -1.118687242585809
Ni 8.423989527269795 8.781055692184456 3.4550216160346943 -1.4565746780634656 -1.752154611022163 -1.799969673622913
Ni 3.377355063054713 9.337650838632408 12.186348748506369 0.1264368261697113 -0.7919180285085006 -0.2997024397675032
Ni 2.394657023956061 2.941956061551813 12.15008455290532 0.8074480058232997 1.158000952583767 -0.7859970350383754
Ni 8.446049043638824 7.889294588873849 8.672432721883553 -0.5763176586982397 -0.049707908748088586 -0.2486858395103201
Ni 8.731323384040685 2.397112246253718 2.1686425661637276 0.015633335661882755 -0.24054058469536638 0.17581717637505204
Ni 6.927334744220677 0.42457915545375746 9.578534385049524 0.6286408935819884 -1.2079109500403327 0.24578460670312513
Ni 8.737695716721628 4.2275366956221685 0.46657282782117165 1.8822742853601002 1.7924983049465322 0.27779921193650864
Ni 4.93806116062478 2.548558229278305 12.918880251844165 -1.6287324033090596 -1.6062488774945627 1.9826275270688825
Ni 6.163751238571743 1.5773585022377663 6.224473009266899 0.5374508064297131 -1.2400029454788708 -0.7172560209182356
Ni 4.558785542101538 5.694578873859845 9.242778987413882 -0.9924206234453745 -0.9759141411499193 0.8376831505587573
Ni 8.259911331812987 2.1183133203849915 6.228573792768635 0.7424065520419344 -2.4061368115824178 1.7149695173314337
Ni 4.08016713129789 2.4104379184188662 1.8105587022356098 -0.4123077593707609 -0.6153210365446307 -1.4023591112530107
Ni 1.695996343032969 8.825858813577968 4.932786181115805 -0.25496550187144473 -0.6350794501184804 0.2984156026352796
Ni 8.082629288198165 8.931077271433303 0.8421243801570507 -0.6851989924826909 0.74471334579824 0.6897213058330767
Ni 5.595667151143149 4.513832483468475 6.939339094462277 1.2981849531362415 -0.9280296587638146 0.7713985683989102
Ni 3.498879195711284 8.985701282017445 3.3875133110343336 1.2750766492535524 -0.9018586567954017 0.45977238061062753
Ni 3.5208543723830656 1.0125449208468924 5.472286608039381 0.900219835640398 1.202537087322929 0.058238057706286796
Ni 1.400254509094912 4.026377146608754 6.965056142368618 1.3219110931085878 -1.019311791409264 1.5753478170403319
Ni 1.3070029171712894 7.832252840301938 9.577094050442081 1.4007328885034973 1.069252899214081 -2.0609834385709664
Ni 5.806432054565338 7.565908076393465 9.084487432296015 1.147441689010682 1.3136285413848217 -0.6632343152861416
P 6.80986828810947 4.692051634830494 4.5988412756477475 -0.11106445747869904 -0.23423701107484174 0.8522175967295065
P 2.034170415764129 3.2152822781769066 9.33528932710947 -0.4904276436026393 0.22582204753826915 0.9706366948010638
P 3.8043575791427235 7.355977198866283 11.094373637899269 0.18657775732566578 -0.4441501006923383 -0.10860314042240006
P 8.08735231124404 2.2822040942923616 0.11748332405065547 0.3021668421475957 -1.4129181177157795 -1.0605795398097992
P 5.5873175211156205 9.193214421556858 -0.20673159167825042 1.9326990176695553 1.8664116072962307 -0.293451830872101
P 2.0739412685551906 8.367388219339066 13.85281120377866 -0.4686426865170638 -0.5713358892129322 -0.019727303225598285
P 5.879816962248373 6.2337531872873955 0.989719787448403 -0.26868336567816953 -0.6981527244298815 3.300403257852858
P 1.940975050305338 5.580120533617143 8.787601389798631 0.22997155093026844 -1.3484675034408777 0.4855276351978607
Ni 2.77937723849052 2.091315246188232 7.737267599045999 -0.40713315714835685 -1.4064080845114035 -0.5311588027734142
Ni 7.479253723010113 2.142481329185215 4.07368703122602 -2.6641164176898373 0.7449704561143686 -0.1287526187870815
Ni 5.8794327480720225 6.918732095101404 3.5156168771839784 0.8765772565207937 -0.776686813381043 -0.24027164730469588
Ni 4.052297546896236 8.13793738743776 6.09233800558881 -0.7047743435114572 -0.15515450581937795 -0.5741203939366047
Ni 5.329303645079734 8.938724070650435 10.920584194858252 -0.2369919481121596 -0.4579450975939016 2.1699323923685596
Ni 8.97950699980847 5.569981027792466 7.284861029039212 0.527846964791362 0.7661198364984741 0.4191085843426782
Ni 2.6476386313894964 5.514804123637478 10.889697123510624 -0.9911862368176413 -0.7163836456156114 -1.1675736838738666
Ni 5.6038762150086 8.776885562709428 2.1131086239570567 1.5090364954076076 -0.8191588665023247 0.6425351350655774
Ni 6.5714774482999 2.5257958820988784 8.76711059179841 1.320656137655564 0.4917011109984242 -0.45433552586577236
Ni 7.489543166074341 5.005636000275191 2.6519090313934752 0.8210403997957537 0.6834228744188746 -1.3256415066852976
Ni 9.644994066480772 8.922390282616782 12.799336227857424 0.25198276509403694 2.145698973742492 -0.07394158448447266
Ni 7.44716715374607 0.6861812170536629 12.245489618432002 -0.4687779265433475 0.3388361725441713 0.20964003846176799
Ni 3.787648948010192 5.230991671321244 5.7545518954649895 0.3477082782228205 0.4668706822183056 -0.24228327841808597
Ni 4.538497159374712 3.143303032114667 9.65514950313715 -3.6670862774059683 1.4497201170354774 -1.4911377607503158
Ni 4.374484561460207 4.418940952987256 11.766955547325601 0.9788750235504561 0.6790311731090821 0.5889052655552632
Ni -0.03744869979350626 2.3237835650355145 8.356426870020098 0.6084909009966746 0.15147551430589395 1.0226467693197678
Ni 7.047743718658083 5.491292090260293 8.62854234343581 -0.16927089061610204 0.6292211915654906 1.2420279463286996
Ni 5.112157037899131 7.223601358497164 13.126766360266965 -1.0797116326535598 -0.0864991094345091 -2.061062114327702
Ni 0.5046859370074409 1.7968197655539473 12.321474063005763 -2.6167723811882353 0.359948014822122 -0.4557234073522345
Ni 8.855246512530082 6.982764667467409 13.508154219652388 0.36927314887778984 -2.0918348767341843 0.00266134888224703
Ni 8.550855174085392 3.9768510021693664 11.687885206940319 0.5164639197654008 0.24353669120921287 0.3905708819143015
Ni 2.8200289725639474 3.9868030864446036 2.8785579111306614 0.02353690677967559 1.5731071006352715 1.6252444447604593
Ni 1.457764811540422 8.916777007211069 2.1775722658867727 -0.40066503292551 0.3445579055192969 -0.8444955454949004
Ni 2.8296155848177778 6.432982294341582 13.063072083797696 1.213994180119935 0.6309181196519392 0.7055387324813075
P 2.877426822079794 8.962311072647395 8.210150910436798 0.5007933031076794 0.3978633018106567 0.0009014287683468346
P 5.676042882620278 2.258176651654218 11.07183900790241 1.1957717435746373 -2.730695134051336 -0.06884231558469435
P 8.844488515592253 7.111973083651 1.958137241587513 -0.527145567848963 -0.2786065383291524 -0.29598153927249027
P 4.905543521797027 6.599515712096049 7.309658774245552 -0.008739950976159141 -0.8231361059825179 -0.12463139752985632
P 7.779709208916573 3.782485484323134 7.515226478101783 0.8203757696285613 0.2210554793875612 -0.5418224531348476
P 2.906917602884099 3.1492630373868433 5.153345734711702 -1.0240657611544817 0.7498694360778827 -0.5017476966011488
P 7.186548118172976 5.981324473424807 11.029334611812775 1.459268937066177 1.7843247679968044 -1.1933646767950414
P 8.642691733310746 7.885817919131745 11.025686451352934 -0.3638236957274444 -0.06626144223139557 -0.46916153513501135
Ni 1.2027590513730397 1.7793145928362981 5.623322137870694 0.11581097102474894 0.35483717595811787 0.8095437120100638
Ni 3.5372537579590215 6.52165142938141 1.7466029727048753 1.3095476864472286 0.5798110165634789 1.0365772633579309
Ni 6.4437777755892975 3.710506238260894 0.44958493857997545 0.3188913539911282 -0.3437156121236597 -0.23102261790260212
Ni 1.2728640819408845 7.284400909135338 11.651347375877087 0.003734270231451633 -0.42702835341038714 1.230945720372609
Ni 8.80398671875838 9.10530434379226 5.697467977044456 -1.4276510530505802 -0.22737139430326 1.788710812879642
Ni 0.35454909350568875 4.43011127733385 3.3329670803932094 0.47449734552562794 0.08649962365514136 -1.446248613547109
Ni 5.7612166057630585 9.259121209417257 4.869434886082013 -0.4635804415028081 1.0879928988257455 -3.1689653789241294
Ni 5.1159898085851685 3.250920485802827 4.883355621666632 0.11603979920610337 -0.21013626137189614 -1.0985223376021598
Ni 6.46362571767494 1.441646558288625 1.4177325056878924 0.15820614816150816 0.0508034558051125 -1.1576181153230514
Ni 2.3061753104656737 1.2323810272619526 13.79054320530063 -1.9344856772563332 1.8288807002303082 0.18083108464987566
Ni 1.418068927369136 5.782310901152474 1.1495500734871662 -1.6820126027894386 -0.03872955535971394 1.2793133130427194
Ni 9.084791055206107 3.8716325443140316 5.422114796362174 -0.5475434147790248 2.0012518270382893 -1.1194110081257107
Ni 2.3390771634697773 6.981546427396052 7.342987011274631 0.24135382462528113 0.37458401956774195 -1.1332900801006482
Ni 7.002771917870075 5.637321590506079 13.06536237513185 0.1830903129976976 -0.630289742039321 -0.385869105563258
Ni 6.457890618262092 4.139064353209252 10.548674243227982 0.17785066186531306 -0.07372741159113755 -0.38408964506533205
Ni 0.2635943526704472 5.8079782823482144 10.022985847390352 -2.195300953040335 -0.6601088822832825 0.1535604218593807
Ni 3.047155777252204 4.218793480340815 0.3023521919867883 2.071064991176685 -0.2817684809969018 0.3558062247396066
Ni 3.8272698635617024 9.359972745170651 0.9121394483811641 0.20713578398267554 -0.5969990983069912 0.9935421386443276
Ni 4.292843734524361 0.8313495152797739 9.281030788546735 0.3238988345080486 -0.36974186098409223 -0.5067865445766369
Ni 0.9652959482331949 7.01233041689149 3.401078882782765 0.9911985781128155 -0.9858915640776053 0.680796235429305
Ni 6.404709753608635 7.558345616873582 5.949915433061988 1.623348256179011 -1.604445762847553 1.6651004004151324
Ni 2.1231581674380027 1.593476755489563 3.2371093918246308 -0.6195008789539331 0.48662369647551673 0.6780014462929872
Ni 8.475277434273913 6.243011811829707 4.866238411556322 -0.8045629709660207 0.0458031743770437 -0.44173506349294245
Ni 1.3995704204394577 3.0032991346833615 1.365687415624038 0.08672433807143774 -0.004973284844875306 -0.4462326942529799
P 5.333183271153132 1.5372034352703534 3.2138203900912785 0.21044942173694078 -1.1032559956324033 1.92709015612321
P 3.867677949620858 6.68521421557726 4.0756483977409035 -1.3733902348244864 0.6724530056709321 -0.22314295804420925
P 6.987187816034181 9.234540873208267 7.49610760584346 0.3760786018353975 -0.6703660412349165 -1.010348411568389
P 4.8607404004035155 2.2925591348988936 7.481047347238249 -2.273552734864388 1.5146926652521204 1.3504102289895452
P 9.301806467302104 1.1367491816604485 4.013475984253086 2.393561803130884 1.1372508645206092 -0.3016173974020289
P 1.2916249790397785 4.865763297928494 12.89197120288339 -1.1398366229699142 -0.8818073945714813 -1.2305860230403451
P 0.43968064679984514 7.23933539757261 6.2228133914466115 0.7022119821009197 1.021496971986041 -0.5642771825939379
P 8.592012946342306 1.5146941071826698 10.331708497842587 1.461875778561405 1.477259717216643 0.8643694016006921
