# total energy = -340869.5500789052 ev
CRYSTAL
PRIMVEC
9.28178915383612 0.00000000000000 0.00000000000000

0.00000000000000 9.28178915383612 0.00000000000000

0.00000000000000 0.00000000000000 13.58483664426331

PRIMCOORD
 96 1
Ni 5.070037944733025 7.238718632987946 2.283380394246002 -0.3110649159681739 1.0635509637332974 -0.297114624435669
Ni 6.120504400370544 8.26657465093222 4.764990097082765 0.8034607390407775 0.5442801706467207 -1.3308523614622756
Ni 0.4861271949414279 0.1357368804704491 5.836860357860113 -3.7056880489385664 1.2798398749701507 -2.7719135172711744
Ni 8.841869207034442 5.4923871837953095 0.42008819529295977 1.1627194411053587 -0.4784164780743761 -0.8062408728890761
Ni 8.014054302868828 3.67964453522042 2.272661784456117 -0.9134545891631172 -0.31254355739622947 0.1473758903152236
Ni 4.860501560937867 4.9178815797472435 2.6711596106529125 -2.0710148546650395 -0.45265505283955587 -0.19174953133459235
Ni 8.53057657183081 4.597130801682602 5.192966884738405 -0.49343094920533725 1.248333062611121 1.4425151146466062
Ni 0.589121636985485 5.754365674719709 8.065833690272578 0.6289710232278974 2.1358575621720375 0.10683936365375793
Ni 2.974423498481891 7.901280568068776 11.318437042155699 -0.6606840380604622 0.6607961381582942 1.002518374001009
Ni 6.868486638444368 2.8675808267713236 6.683548851518931 0.822298440572571 -0.5962061700920507 -0.6153711730562758
Ni 6.738495185285956 3.7222665097226293 9.075417578642583 0.6960819579437819 -0.5974642108688678 0.3559602338189676
Ni 5.967234220720071 6.122732029699927 8.763578246074363 2.621980664862052 -1.3960077151136863 0.4742091248612478
Ni 7.203856233983091 1.722161670968823 1.2893908393605715 1.2525226752124363 -1.7565488834351168 0.024804717748505668
Ni 6.381266976952656 9.315945855482791 0.05087255663091387 -0.016990363910409447 -1.1750399103439246 -0.9141145913446193
Ni 4.919598710688644 4.2009005165073425 7.479375926693482 -0.27259221381427245 -0.3183349672670259 -0.35144743355027863
Ni 5.166076614196082 1.2222259587218773 5.440726603289126 1.3863395958963027 0.6111093124561281 0.7038353766369556
Ni 2.2852785200704147 4.166502206946109 7.222052252888607 -1.583173740842654 2.5149739223924943 0.9585280844629879
Ni 4.0126565563855445 3.4663026179875653 10.95521929546302 0.18965639625098948 0.41231932933498666 0.7515787054595056
Ni 8.451152304449407 5.3277189674094885 9.911741098667555 -0.9416742461304427 0.16876952549965127 0.8131057183297093
Ni 8.26653752377673 8.225558425904941 12.623872381761156 -0.3576188524683131 0.8299932381136673 0.2225896566439005
Ni 2.7307115680584375 2.8667547475616773 9.24676311394323 0.2808979054664904 -0.16053171097089128 -0.9758328942900225
Ni 4.118051269032012 2.4146202480077577 3.222431968974393 -0.4850555806574484 1.7777751398037445 -0.27153214798087427
Ni 0.7326682146131985 3.0079678834668613 0.5520566694812014 0.8904010497777634 1.415108440498879 1.5109619945650945
Ni 8.572112577034943 8.187475246161352 8.83281946288382 0.23424832392875142 -0.3794873704066303 1.2793657635472095
P 1.1271154681460642 8.153550307832612 12.95358936787657 1.172443096151026 -0.31820538366769713 -0.9811483929656651
P 4.588758628119669 0.4345362278517878 10.741366879842182 -1.1802021712711546 -1.357211825292411 0.12572051682897703
P 4.393943161476188 6.244323463928789 0.39431916484642615 0.19500506215741256 -0.4064461583836613 -0.15820331994803075
P 7.3178273195476855 7.291661956716299 10.723516143482719 1.6893302194967745 0.8211699833950824 -1.7051437894902632
P 2.8885855149896376 8.280218880574695 2.0922822840459308 -0.07037829261324653 -0.11013911745095227 0.560158532439874
P 4.735531555559439 5.603378815131854 4.730837754926651 -1.2908100008284094 0.8093966449092382 0.1072743943086475
P 6.2145567670149 4.531211537110589 10.920415371728062 -0.834031412738783 -0.13405680460881428 1.9190906828575016
P 5.34531723911162 7.678564044074765 7.563914459743595 -0.485424276850777 1.6572176552329458 -1.8884343914242252
Ni 4.60158606034137 1.218160535195752 0.84576866838156 -0.42408186918755353 1.1697007575191984 0.41175008709507793
Ni 3.352879157966443 2.6546101810933656 6.310061733617791 1.508635660424763 -0.40967726372644925 -2.8935776046425907
Ni 7.804499355495926 3.378079214755097 13.423475288649014 -0.583688240130698 1.0429304592694684 -0.9379515458632168
Ni 2.3618625600568532 1.2651356686791317 1.8706999946521305 -0.29782219202565485 0.20694526523842421 -0.5471191827574127
Ni 8.7437050079196 8.813207042996371 2.777677419752945 -0.6881475335880536 1.3459038564787595 0.262277976372458
Ni 7.0868314398794645 6.194396721583978 12.541670074970236 -0.8035335012602419 -1.5070104661165142 -0.3692286687930996
Ni 0.7061826300657132 4.1094841779027576 3.3110461355183913 -0.31544221910026315 0.7949074501541278 0.1127737268603219
Ni 3.828023212135122 1.0550609411293728 7.70723456172282 1.6129355454861187 -0.7657699093582232 1.9895612780742378
Ni 6.212524055251837 6.254579840632828 6.115172940842219 0.2978260486803967 -1.1151486333049312 0.7448095050564721
Ni 0.5036038752093306 7.043513331211823 11.136780367596666 0.4649724367543283 -0.3060520361346149 -0.7289830795471768
Ni -0.020729947267690167 7.099463954534845 4.271058774057396 -0.2016408223063753 -0.4206941836622432 0.15926081467826766
Ni 4.258289817105591 9.42110852340745 3.4774871735788464 0.29945561386401975 -1.1989231447194255 -0.6972698076042959
Ni 3.4785824246657935 6.168983183651258 7.234903817761376 1.0813725652957504 0.8562475438245061 0.7350056315921728
Ni 8.086526510384779 1.6522512371816631 8.620379735529367 -0.11488434544542149 -1.1228454877285565 0.44042508643226724
Ni 3.917054130999492 5.376216314267947 9.423230340343686 -0.5826096623545385 -1.046395277889617 0.605840350747705
Ni 1.3813436653619835 1.8526357771486028 7.400176278602792 -0.30255636427653054 0.27935601490066725 -0.10173212433417964
Ni 2.215414495227617 0.7341913561671647 12.295554161228823 0.6026696663292072 -0.44381457172979055 -0.47889830280680107
Ni 1.7734435544890108 8.983537150594376 3.774845987327183 -0.7119004130332771 -1.0201707969754494 0.2687851813633564
Ni 5.522135317131455 7.954595163352026 11.65308637087792 -0.05557259505898172 0.26602355945781925 1.437674498724853
Ni 1.9484702472564657 5.771852564955372 13.05449819196099 -0.3802381325297258 0.7421414713060057 0.2339865856269325
Ni 4.543667697777392 7.704441671451106 9.58658796814072 -1.8912998858974783 0.8374952029176673 -0.7184526123294982
Ni 6.275798009995207 -0.09265452924016761 8.866455737578628 -0.03936281806833866 0.9845869863335689 0.18892594584286818
Ni 1.4057454883076077 2.876194326844941 11.89269575061976 1.0168738713917327 -0.01589301708117263 -0.9848260989275684
Ni 0.7518156168781391 7.415972955084785 1.3564693993627521 0.20333260818650142 0.4807021887847592 0.3264110594069411
P 6.510877876767299 8.95295365625971 2.376069266104998 -0.6417141818261787 0.9492263474460877 0.3449607973846704
P 8.002015822701283 1.3307579160072276 12.602951229642695 -0.5143090782059272 -0.4717740330571939 -0.1298859610605763
P 0.3462404266661144 7.657336592923512 6.958343636518386 1.5568942383208348 -1.2057249981326073 0.16419270476224626
P 3.2592444718213467 2.490833016439299 13.09671919318391 -1.1404919971657261 -0.7016496818395465 -0.12936916932515785
P 0.39888673315055 4.795018540442857 11.937362503210565 -1.5545720179455613 -0.0398937508711442 0.10108266367563881
P 2.288211565354103 6.935241264014901 9.491928572504106 -0.11249707616016756 -0.915249733390327 -0.5563934089704871
P 0.9567946423369327 1.7973534426243964 9.579089210910682 -0.791458829483895 1.3436754813688732 -0.5480617491763399
P 7.495304404577463 0.789331679321623 5.467815504113319 -1.0382453950889732 -0.39682843278823915 0.9086828788060868
Ni 1.608079203937758 1.9507350037413391 4.182920763282554 1.1517850535810423 0.12725315142341953 -0.23064569417915762
Ni 7.497309270973908 7.363057476723048 1.3195158133249378 0.5951337629634783 1.1507825804584566 -0.3024722892031565
Ni 3.9017298975711068 7.939642201478539 5.727393724435308 1.5608012866847247 0.7911040172476375 1.4427791669412702
Ni 2.7516141565991554 4.427097711328516 4.286328244931434 1.592272874930445 0.06429274854079896 0.705863462810578
Ni 5.9636607320041835 2.0030286022486226 10.676227285535452 0.7353103073167853 0.5000260859243517 -0.23728119721780427
Ni 1.7482527794892297 6.3634645058953305 5.799624605440576 -1.6087940125139197 -0.3315131565201968 0.730355277304355
Ni 3.006937604902021 6.9016319065078235 4.049095931319826 0.5872049950347048 -0.76252054918299 -2.268649641135816
Ni 2.618346231968773 6.0856048742101985 1.8230714232321317 0.8130620095759674 -1.669320352033751 -0.23672121094927617
Ni 9.21229611914434 0.5355415825404827 10.788574058047372 -0.9496099560377516 -0.898348072538982 1.3416707922340183
Ni 8.352310534746875 2.4229367308374568 4.472847648680735 1.3213899304977952 -0.14604997241494846 0.04072807384698147
Ni 0.46633842106540235 0.7651953155377501 0.35644668171024085 -1.3159556468561013 -1.1146164149505446 0.40629317774556484
Ni 1.8011496942732212 4.798016558248654 10.225170401669622 -0.8137001573805986 0.943422596280117 0.03570182427698367
Ni 0.12921920832422717 3.5788350262769333 8.157721543751883 -1.3851350340652402 -0.023359500661546868 0.5316822793770521
Ni 6.599658187332114 5.3880784404469155 1.1805767156934994 -1.9031426441686774 -2.010269200045551 -0.5985839262956079
Ni 5.956996407593778 3.8803075288535327 4.62435985751877 0.18299029708472356 -1.0616401198638297 0.6859584963565348
Ni 6.885927119735668 5.888246197415672 3.6465094771247246 -0.18231126873982795 0.8790840821030473 0.6649914071865644
Ni 6.409994113512833 1.7871341930758484 3.4722030511737705 -0.6136495623794787 -1.3183855964538327 -0.05944416219924602
Ni 7.668818165758711 8.136880215017724 6.579842496268357 -1.4737835857425843 0.8957687418475798 -0.31024062029466565
Ni 2.190762063982437 9.107439750252473 7.001108550569229 0.623859670143261 -4.243961865490207 2.0870518535232443
Ni 2.069541901308472 -0.10941187087045676 9.5077688733938 0.3812969128115433 0.36385017809000564 -0.46272015038504183
Ni 5.127455090697891 3.3110461355183913 13.015305838447144 2.2087858749006477 0.8268343807697114 0.9100126533611037
Ni 8.40575507507434 2.990740883319627 11.116443968177169 -0.5144162932077527 0.1659834781140819 -1.0737387028995766
Ni 3.917416120765517 5.888858795481253 11.863528657267029 1.7650183543587086 -1.0849718526112346 0.0314258226094491
Ni 3.555556299784874 8.452776617502083 0.08612107805286255 0.44764500121947426 -0.8510824546837988 -0.19017755886178214
P 1.1210358964346212 3.432442652180933 5.4901753335070085 -0.9137723775138522 1.7320380427779463 1.9098851050988332
P 0.11111415094966083 1.6148734733923786 2.624345980295913 -0.23853538133987953 0.2493000760555513 -1.4254126506383646
P 8.664020850449768 5.784085962689237 2.5585139645393005 1.1611886062831294 0.5477658152024759 0.19583167182376598
P 7.515083896664616 4.928611327683774 7.550737104081403 1.438650489484877 0.437079309888486 -1.4166786131994762
P 5.5378772310591 2.145021408419091 8.275868506130186 0.5620488074840514 -0.8210874509836052 0.03667575815447877
P 3.106466226981112 0.683872922331935 5.381836437430206 -0.0203713645675004 0.24367630211087066 -1.4364311132360552
P 5.779686394763704 3.202115061311526 1.7637737868417112 -0.5616659702233359 0.0052345089260619525 -0.3133868792331312
P 2.350139660710971 3.652727347490367 2.0651943114006244 1.5544321499335874 0.21610764846398264 -0.056312815659115924
