# total energy = -340863.3071166858 ev
CRYSTAL
PRIMVEC
9.30038573081258 0.00000000000000 0.00000000000000
0.00000000000000 9.30038573081258 0.00000000000000
0.00000000000000 0.00000000000000 13.61205461444220
PRIMCOORD
 96 1
Ni 0.17291184177086538 7.967045244823123 12.259084913429213 0.26824627814075097 0.20512363864865318 1.396877262202833
Ni 5.395116570329655 7.919259862854702 8.076386159897073 -0.8317498157934577 -1.751032581602578 -0.27026356568109583
Ni 4.10164682178504 1.8788267270791656 13.301753949648441 -0.42076077523412053 -0.08652044959074777 -1.949782198404087
Ni 3.86832804454841 6.0380057350955525 9.198154976895092 1.9594179217216385 -0.6753650371114046 -0.8666882795418557
Ni 8.531364750797811 6.214136440373476 10.970322090111187 0.43217518771864927 0.981681896871632 -2.0624643939918674
Ni 5.877787989830855 7.100249293196628 10.111945777701509 0.16368491188789228 -0.009725711928196153 0.8053379014588324
Ni 3.2466530596715697 8.490815068940606 6.752831523537849 -2.1951680270068965 -1.405295311063199 0.5298704229792939
Ni 6.268441392750591 4.012883940215048 11.542845466353361 1.1681393265693494 -0.26218901620307744 0.6293309776704774
Ni 3.842491572943062 4.670049197102689 2.4708325513842926 0.6327433457861361 -0.5714384762290674 -1.2713184677627007
Ni 5.60709096227677 6.344072129645728 0.7126662388718293 1.2423413638040604 -1.533381242800559 0.2634899944026881
Ni 1.0269020922622272 0.6591713500932838 11.411230127415191 -2.0515613739261185 0.0022402021844284 -0.12224772778902818
Ni 6.114054989349306 5.345815225484461 7.818424150546444 1.1162765762617874 0.936230192296736 0.47501439437136256
Ni 7.5081549116771695 2.9121274847353735 4.427647663145475 0.4733084674238494 -0.6238365302148094 -1.6692378196222735
Ni 0.8913080483014618 2.514043073603733 10.019520404224323 2.7055947394392823 2.189047515931456 0.37531549841712786
Ni 5.099913026332053 6.046701595769058 4.382237599696854 -3.0207037435698427 0.29798442863513197 1.3380859030962375
Ni 3.24433726362055 0.359263670984815 11.295024597621332 1.0923920563347056 -0.7559876331604787 -0.4772962484270038
Ni 6.401725220891786 8.987874185192517 1.059523195270059 0.17441901047594477 -0.28349677654191824 -0.021938966164936412
Ni 0.8928361016797045 1.8088878262612338 7.342600605070808 -0.1827498989391433 0.31885767253971536 -0.2213444713828898
Ni 0.8470233315282351 3.2692250958796976 5.124693904155108 0.9702042352493355 -3.15573859582121 0.5360382423529026
Ni 8.841421010833479 0.6754507453049471 5.327839439912534 -0.18587250372852504 0.9394772384791239 -0.039481345924073936
Ni 6.241479574469849 4.486059665868495 2.802503837934714 2.275851558200894 0.9915027396167957 -3.32407720443103
Ni 0.8396165043192721 7.5306990467280555 1.029837294004001 0.03114222993075927 0.19197321730962422 -1.724403923271456
Ni 6.913655653953254 1.7938863040512172 12.88940460685795 -0.6380889263687656 -0.43564951942049485 1.291195666302602
Ni 4.3605788613690875 6.453723677603628 11.817767659152338 -0.004096538666876816 1.91259761893399 0.4235635347902383
P 0.9707649638929403 3.9859965250202816 7.380333200085226 -0.3290107018133172 0.906894419447096 0.08087456415888007
P 3.7931065246261446 2.3055191247687796 5.815995296888779 0.3597762651309481 0.28701378855624116 1.0994355934450486
P 2.6293771572530913 7.640824914359057 12.612521892743493 -1.4639213482365239 -0.11492908264042787 -1.2213447069477354
P 4.858521514266969 7.9506300639795535 2.492476409094863 -0.22320774984387365 -0.15500795293918465 -0.01721944920208002
P 7.788068621506597 1.671725737263513 7.341239958636011 -0.07121415825098057 -1.0497767927673405 0.09263838956302756
P 6.811388612278522 7.413263075899861 12.64610279556042 -0.6629226975829937 -0.030644207248418195 0.0352811917997973
P 0.5159891214014877 7.738199953130833 9.33295569795163 -0.06939818808816435 -0.32993655606169625 0.5186267317446747
P -0.28768046196680197 2.1640788583274086 3.379736929519202 2.015059679455659 -1.7087872997801214 -1.444306916439706
Ni 6.591099675473531 0.5595400377392709 8.98749565949261 -0.790704982037006 0.8024135287231859 0.38923622226327803
Ni 2.8237180178237704 6.05195631371615 0.9504073495311889 -0.25436412084202 0.1339354485396016 -0.4797827622942834
Ni 3.429693951559564 8.729686176468235 4.12360875268816 1.432064094516611 -0.6572009646078681 0.7056690874115846
Ni 0.6457285725344755 2.0171327635237755 0.31384337711187166 -0.04683727206851289 -1.3137025891558667 -1.3378871568218702
Ni 1.3980432858846195 3.248624741449947 2.4394437494879466 0.06416110805894111 -0.047748471028872606 0.2681920278640478
Ni 7.957391444417669 3.5626336654281165 9.396796335835214 0.46951223360621075 -1.2059530549830133 0.33474066231855903
Ni 1.9967742191234492 6.784119881268127 4.814528829606201 -0.39388554810983134 1.2679747481014485 -0.5517929340839981
Ni 4.021570500502806 4.327236978465858 11.924323108695043 -1.4639149204786208 -2.1707631157999714 0.6073184779551283
Ni 2.5308488706486805 3.4099027306898084 0.45526318270459887 1.541784636372906 1.1595572413272932 -1.5863333695175583
Ni 4.129213165139341 7.9894405737020575 0.3671996901427859 0.1831684745338007 1.7248592656413197 1.0529739595483993
Ni 1.638421055903272 5.7144360145694 12.317588989971128 0.28783294202342685 0.10381703188766636 -0.6128386364424091
Ni 9.007163185231931 -0.017573078869080088 2.559638214728721 -1.8093182047173482 1.3537313229429782 0.3572334441044364
Ni 2.9567321347782993 2.220997219099449 3.7308190511623236 1.356236091642703 -0.43721197881160834 0.9539150111710087
Ni 5.906414577160323 2.8995812643625825 8.219475384731398 -0.021928424641975138 -0.529382684709598 0.14600934898500015
Ni 5.20412384862792 9.323729715290543 12.377835958802043 2.1152131464488084 -1.1694570169395084 -0.12337644207683268
Ni 2.7625121792223326 4.6246168127282745 4.4352153870278626 -0.1432947782673145 -0.23505745009360807 1.1815615135125264
Ni 8.1249471940368 5.426551874154737 12.995782419032885 -0.28925116252719224 -0.6389250491168158 -2.014115570374835
Ni 7.45139465746283 8.628944398056023 11.006856795441383 0.6716477361608175 0.9907758887531002 -0.19838452015260674
Ni 6.182915045420578 2.190873269664704 5.731219490688553 -2.7557795878237896 -2.8995772738694514 4.001981205914205
Ni 0.22452340243563015 5.305395749027715 5.595003250921309 -0.18143400834119722 0.7485851700488204 1.7333125386149955
Ni 8.860347295828756 5.726098698296219 8.460409317817724 0.7547010531385712 -0.42056562850417895 -0.38378471223040356
Ni 4.1203777986796295 4.272643714130584 7.489583901417429 -1.7714792794927041 -1.2717853800967904 -1.0217918775186403
Ni 4.930422796477533 0.6087939506171547 7.25201298781724 -0.1879422417733602 3.728031706741089 -1.1188175975160861
Ni 6.512771826711747 9.012250496235575 3.839702387257517 -0.18017802444690903 0.9562801689690756 0.569234269488897
P 2.9817315716664115 1.6444756070246116 1.7088844984773384 -0.368739644971823 -0.3636565740219608 -1.3593409558202718
P 1.4401182310043434 5.542509083649148 2.785502732789078 1.1473570997166755 0.3022797135763761 0.16785189878138834
P 7.689586836830921 6.431774767240554 6.6331541597446115 -0.10570370738741794 0.3232946252651464 0.31662364100287405
P 5.030969266789056 8.269428686617461 5.720656112557036 0.8915768152534193 -0.7775031386347513 -1.053526746728076
P 0.5299350498292122 4.448895324423221 10.904616724885319 0.3912972185573648 1.451824822083306 -0.548821767270816
P 3.7245068793557903 5.965695235912118 6.269752747140928 0.08100466197884114 0.8312584779793362 -0.9826931117449657
P 4.32672545724977 3.8840828980039386 9.71425663296412 -0.16379958308888565 0.8674030462206932 -0.06225643483706052
P 5.724889648149102 1.7149632306016203 3.4910430161015062 1.1221093808934803 -0.647547243568188 1.3722206399964174
Ni 8.974602534731455 1.0528129669535513 9.20856861881608 -2.7159472863182 -2.8263046904275453 -0.3077145114387023
Ni 8.928937640713364 4.326167434104946 3.50367480002317 -0.6267920132987076 3.403901730058841 -1.7121945256894575
Ni 5.0149261013753685 2.083770027401499 10.777915709775897 -0.05507482948695676 -0.8975798269143895 -0.36511593217630667
Ni 8.461528154223096 3.1298681158456696 1.3425274232832365 -2.478912657893563 1.023172817026567 0.7206565619593525
Ni 2.0781618947960188 9.543218818921288 -0.027400796488004107 0.4231940672659615 -0.30587437290617 -0.5665418102583984
Ni 2.0619606228246306 0.8430055648855028 5.449627061231781 -0.4703352437281384 0.34802709501482 0.8112038733213062
Ni 7.058537063121039 8.711057503816862 6.330612611392574 -0.12438097208194708 0.35871928462134345 -0.32178281660631036
Ni 7.886922421612155 3.726785473863821 6.739178557261157 1.2451340960578492 -0.1382037368976523 1.6606228242597532
Ni 7.760260468122871 7.909103841618906 8.410984277842095 0.5279258976584134 -1.0048603918706243 1.132659902715817
Ni 6.672673358861043 6.8580951495002855 3.1751619244724525 0.5024940878488702 -0.4184892055911244 -1.5893675283581918
Ni 2.334861841800771 8.940153905924324 2.173709407768495 -0.16237416349626874 -0.19614354663722994 0.5063029200719991
Ni 0.7550759978784476 4.8465054158817615 0.704962729357535 -1.1653483940877736 0.5926734743484438 0.5322345523360963
Ni 5.240265147641017 2.005832794841091 1.5575867531826528 0.7705727300635051 0.03918695461210671 0.09370668292654183
Ni 7.050715438707757 4.952753022656236 5.040312434310558 -0.3741950116594394 2.9426959594357966 -0.027890298652364868
Ni 8.633966606359436 7.24669316716992 4.857584035383665 -0.6241365779537316 2.145713886140827 1.4313860946129802
Ni 0.5370145034598784 8.26287191466578 7.211162903500406 -0.5631934626114558 1.3358225609833576 -1.209389591468388
Ni 5.086446067770302 3.5310402550453355 4.261852476548264 -2.4825854787594603 -0.033363663062110284 2.043621807364067
Ni 3.04724348886874 2.3384889922421266 8.836959615790612 0.525371763777992 -0.7760432662597732 -0.4497584480180512
Ni 1.7908264771404327 6.4022088409506335 7.196108369091631 0.8640858089220022 -1.623562686182662 1.2194752578391643
Ni 1.8989899633788034 0.11415200462090613 8.89383054459534 0.18901413468130027 0.7629103284222409 -0.46921012898475967
Ni 2.7171262967766534 7.654115165591613 10.081986445094488 -0.9205485198954211 -0.17421897864999672 1.4466502198609021
Ni 8.700678273323136 3.0628774373095573 11.93423266970854 -0.5932314037344429 -0.6529164782999013 0.854791785214586
Ni 8.894107696090604 6.879904554077154 2.771155957735655 1.384658351539138 -1.3149125503035677 -1.13332581843459
Ni 2.092010169173399 4.635414560580617 9.350024695913222 -0.9603260569036752 -0.3798964329195909 -0.4064646703264226
P 2.4451737171467136 2.2930938094107 11.65112892756787 0.21831211231446918 1.0326668725599313 1.1074918880906217
P 6.869581125897912 5.260381882011919 9.953774117301167 -0.24030507164579257 0.7460822011213086 -0.9404933384484642
P 4.194148458425352 9.578653288617605 9.26582086343644 -0.2943113506589189 -0.3877010165656742 0.36469555680943644
P 7.875761958715677 5.685186301394878 1.2858080907661833 -0.935262429066828 -0.6116271326328111 4.022408363420305
P 0.9088736868619441 8.804089262444757 4.087767856134694 2.857460032984427 -1.8432608802113803 2.0606908470312124
P 7.294943568425695 1.6057488007738312 10.814777788684392 0.4044548389852454 0.24418203810269556 -0.47723017107575877
P 8.564660131772305 0.07568281905531947 0.5872523971498017 0.26675066743183096 0.280539236575491 -3.202658914521833
P 5.195651197212343 3.8770890079221454 0.5157240604076964 -0.7036253175086785 1.1467942852346702 -0.7395500564297457
