# total energy = -340854.56133573374 ev
CRYSTAL
PRIMVEC
9.37718540431774 0.00000000000000 0.00000000000000
0.00000000000000 9.37718540431774 0.00000000000000
0.00000000000000 0.00000000000000 13.72445869964190
PRIMCOORD
 96 1
Ni 7.03246695314973 4.025166139443666 2.8743960919289147 -0.598142210772499 -1.0463461698192367 1.0563516177713808
Ni 8.91739371167062 8.185982640501381 11.700032170634943 -1.8599308846678935 2.294607755762474 2.853321842446338
Ni 8.50976746949153 3.268127221026316 7.493060226130488 -0.4341091715165684 -0.3525200977891671 -0.16772411495427245
Ni 9.095503968030169 1.781505782560614 10.777940726298215 0.23517932038345304 0.24752987152900596 0.810333812011527
Ni 1.604586428725949 0.21253952966952755 11.248662297051638 0.5002572280985513 0.23329187355275305 0.4033328095656602
Ni 5.766218744899136 1.438413329170954 5.001837490442536 0.5646646478403436 0.025342592529846674 -1.4536477342246579
Ni 5.562565035958592 4.57147157406781 12.407665513202994 -0.09758287805249646 -3.7798952283795995 1.8123022270463367
Ni 0.18298920583748327 6.006359081590286 13.785120574314744 -4.682580751951671 -0.4400497053707195 -1.8349711293987625
Ni 1.363039514249502 7.071522929654812 7.337562114247374 0.4836885251065928 -1.116312828816361 0.776459013640953
Ni 0.3408034824737197 2.76480680352085 3.8937795839561145 -1.1637393977294408 0.8261651226168288 0.4373683018838145
Ni 7.618165942947427 6.405067620610592 2.302222754114634 -0.5112870035501518 -1.3024766385330602 0.3414854372415603
Ni 0.9719264952698005 2.186150079834873 6.328375373445055 2.0543114258674295 -0.4850131574552873 -1.0060641823707384
Ni 7.484090948452911 0.9099151693086706 3.4034325022237053 -0.7101734030398413 0.6115574557371403 -0.7801050950339726
Ni 5.792212302371427 2.579401097048226 8.737978151126315 0.9179599332326385 -0.04463975019656183 2.6868598820339407
Ni 7.013450021492513 5.494027189073684 4.542877723129768 -0.41940657519907126 -0.2004221194079258 0.720287865766024
Ni 8.587898176872164 8.489400223160429 6.730611609550886 -0.9312255399932929 -1.4585775674261074 0.7810872564415838
Ni 2.23297974290003 5.702753955226533 9.441425518205323 0.5475804386645473 0.5115772810970608 -0.6862765418175858
Ni 5.002381367186183 1.715312231984534 12.208262482329618 0.5561810358493646 0.4519757673843442 1.0810951432646478
Ni 7.608066714448994 0.9965134749567932 12.947846708149955 -0.4520703839806795 -2.7353056362401538 -1.8235947692410208
Ni 8.782934252581455 2.997689198839867 12.989829304166978 -1.904793549508539 0.1922328987289141 0.014756332373568134
Ni 5.175999951818017 2.917026651445698 6.749153117916672 -0.5297729781694812 0.9633239631897346 -1.3939089236031286
Ni 1.4158049355686126 3.1685227594568133 12.734499802831666 3.1353240367206006 -0.34629777102853904 -1.0208207718546225
Ni 4.646535941876497 8.499349416695097 4.8670910894851716 -0.37694094983569276 0.16402532594644653 -0.08186855264103321
Ni 4.056851648353791 9.3178745387004 7.919108886422875 -0.48318638865919367 -1.0648275164528758 0.5895966351953329
P 8.722817118037858 8.73852390330701 4.318524815500792 -0.8888655869698433 0.19122425495874162 0.22788741470773013
P 3.089716894739236 7.342851784438615 10.928113534686194 2.1330753714412105 0.05869082897298924 0.4883221672238622
P 5.67204367358088 2.368470692365079 2.868508157319661 0.7070189165712598 -1.3229745013760956 1.6953710263742157
P 1.9921361173162313 1.4704739254904917 3.4275599998341675 -0.2264285707740165 0.14472842539004752 0.4338284070513561
P 7.145377640568143 0.591306546568415 10.711899086122948 -0.1856868700802802 -0.7863914422633166 0.07239223771948178
P 1.7025311285088014 8.106595390299216 9.435071537489874 -1.0273526594358693 0.08499064320978267 -1.4188637937762534
P 2.8861757120215157 7.979290723544595 6.0333409943863785 -0.11022447807590693 0.29662534350407627 -0.051261883498769784
P 0.35600108658459273 4.971624199614354 2.6438111069925494 -0.0009142842841532641 0.3725435920989455 -0.2571481113450604
Ni 5.114401222007242 6.208174862224709 11.347725695033063 -1.9242868823464603 3.0939521586420327 -1.8278651144816003
Ni 1.3328637321622623 9.358037023063249 7.516817324924156 0.6721452446225262 1.1528667166809952 0.3668449990522714
Ni 0.14958017028110743 0.30248173957256297 2.4127188163349533 2.0272384809100377 2.376223826073069 1.4137799514954426
Ni 1.575714075386418 7.502948467961127 12.349556034018278 -0.38517773592318827 -0.12215079719984769 1.5766971319793748
Ni 6.561779140263156 2.840377539332243 0.2552254145791993 -0.3789764922084828 0.06450743565476633 0.35912706158272345
Ni 7.891801585299118 1.1822004969864761 8.57310660488198 -3.5742208594337987 0.3165526785556226 -1.4071454768980605
Ni 6.829516533101834 7.597686170393502 5.1816009445590705 0.4567425926453682 0.9634594603263343 0.2693616226921167
Ni 6.27440592154173 8.50696369110617 9.035963530378543 0.26415308190798376 0.3034984164748257 0.06753439540654821
Ni 8.842620036604227 5.827311106707205 6.282837886505324 -1.0240169101944172 0.022324117418497037 -0.04029227186114351
Ni 7.871856312303605 4.058577050437089 9.897681843014748 1.7227918415893297 -0.34685775729706714 -0.8939116340341831
Ni 6.773862938730248 4.753117029261073 7.229948598768391 -0.5561596956931261 0.8701384428739852 -0.42714173905979985
Ni 0.62687421016596 0.6358350483768258 13.508682091296217 0.7934228951888013 1.2419616118671386 -0.7588441287726673
Ni 6.146632395525344 7.545258327742863 1.0507923739728833 -0.8605803668719051 0.238086466727919 -1.1889092121268492
Ni 6.1583163683285465 5.38392028004063 9.405467763701989 -0.21808045591963732 0.7076084705261426 -0.22045229858592358
Ni 6.699136149590032 7.551756717110935 12.226172906129067 -0.4714084221876591 2.6736194720842663 1.2617027990498078
Ni 4.766432632295219 5.0345919984694865 5.672305297048945 0.910839005917141 -0.7462243831261277 -1.110887544035732
Ni 5.169745369266064 -0.025758190122883363 2.481944948616134 0.5984450867248984 1.0666928517963887 0.3854057927735943
Ni 7.571580086698389 5.685987548025792 11.647289254560397 0.6211571836104335 -1.7443173743659315 0.416392985183728
Ni 3.6645946127753817 1.2545454810769217 6.01773548271777 -1.2890092001742448 -0.22075466031769078 -0.19491970153245786
Ni 2.388209667285414 7.948299126341883 3.340711323340262 0.7485998253368398 0.5635251349192617 -0.35473638871419555
Ni 5.428274366203664 4.690693107149589 1.1810349128617266 -0.22132107434412204 1.3235941372379656 0.5944542203979504
Ni 7.0871640746273155 2.722440680627702 11.546963687446297 -1.9407167457677097 0.47073453604908605 -1.3695574913419573
Ni 4.334622629394255 6.951551221754208 9.181004205287236 0.01067984831134935 0.643878279357033 0.5079520256396478
Ni 2.3474376658822695 3.553099880327501 2.7678112536702444 0.22826973774781334 0.2803047519671818 1.2283561052685619
P 7.025218388962832 5.501275753260582 13.902601701816849 0.671746723632527 1.7346045179535416 -1.5627422124611796
P 7.066909354519037 6.947734707363435 7.717056800720522 -0.12557602083131278 -0.2522360187554237 -0.761170977133631
P 7.838145331382653 1.3616423136494402 1.1991703891068233 1.38199571710531 -0.4228389979193879 2.145272427728034
P 5.7926436528922505 0.7442315588229588 7.008188482856979 0.9445466825822314 0.3371058201166259 1.1162608925325033
P 4.172425456379034 4.475946188075669 3.641482664325904 1.1114842970794665 -2.690552243283863 3.1764220923124906
P 3.5315323542862798 3.4130328644676196 12.009272047606595 0.6277695467206286 0.03973254270293157 0.42791204156692103
P 4.732656011077618 -0.08665269332248739 0.20412819451345107 0.5453353513841125 0.920022472188622 -0.9186736714702114
P 1.7273619150119122 8.379040130126022 0.6283980027666985 -0.6760556354205259 0.286185636227991 0.9015573235048989
Ni 1.510205059332516 3.614220373691276 7.843747261842229 4.140163602655618 -0.5512756281279473 -0.2500163853962855
Ni 3.0210102585200924 3.56965061226783 5.6677207911874 -0.4876092003172376 -0.2981340668391188 -0.8080154482909955
Ni 2.945261356189228 0.7192938724081654 1.7565249610937381 -0.5220972067917783 -0.5405610699239207 -0.06554873243508712
Ni 4.768064262526163 9.028635260117145 11.161250989443612 0.03425892118287003 -0.8193002771761954 -0.5036284585636294
Ni 2.067622458460507 6.122795590657177 0.7627627522849858 3.0022175118401973 -0.3130320669968738 0.9737531289428585
Ni 2.928682492693193 1.3816813584973058 13.248480204512639 0.2698447329761223 -0.1562397684637567 -0.7132070476598428
Ni 9.113386260273911 9.113142453457794 9.676662524736926 0.9921072059700141 -2.063190216414298 -1.0052568559780946
Ni 4.6114934006521295 6.809261812993556 6.890090336566391 0.6285370210142723 1.7435840957443325 0.1453298064194723
Ni 3.705310351067114 7.814214754662132 1.3324792675676145 0.03357140819754218 0.4185449985297243 -0.5437944892595538
Ni 8.328600250745268 4.135132390698191 1.1378032757713596 2.0934343600108205 0.09892242279952641 0.039230663365848566
Ni 8.63227101740567 8.569350104476714 0.7840630285470012 -3.137046932948978 -1.4951882766706057 -2.546048532310112
Ni 2.3631819598923616 5.834062680076632 4.459968402153218 1.0457787273515409 -0.3804705602555061 -0.4397550569484362
Ni 4.454969424704273 2.707709122623024 1.2686037571817042 -2.653578751383307 -1.2102519394686835 -1.1778092455589457
Ni 0.21951803092164804 7.382704821688699 2.3521525146185853 2.5224967131321008 -1.9791213136878365 1.5518271082105728
Ni 0.7990702757975973 7.450773809311841 5.068428633672593 -0.4411560510610209 -1.5020302392931035 0.11414618172781632
Ni 1.6500939086729267 0.18373375434516717 5.065725191169252 -0.23592108364548398 0.9976749298657784 0.050935867617918726
Ni 1.3593355260815532 3.383532239717322 10.165267325452616 0.6860777955432183 0.31536354334352784 0.32613286604488995
Ni 2.3178151377239136 5.363262340967234 11.761119843850393 0.8254822376171912 -0.6681309812568107 0.7469682032706877
Ni 3.7916742270843535 5.837663519206991 2.3362731891411053 -0.6469304359197956 1.6516800132441685 -0.5523498350287327
Ni 0.3236207282485308 5.1502408239766115 8.36910594008773 -3.4048229563215298 2.717631358888842 1.2981723547307513
Ni 0.0012509165103908554 6.565614409024399 10.460892467181116 1.3757813607644822 -1.3504896760772291 -1.9776699259532904
Ni 2.453887472673552 1.3192105504596454 9.318563761815195 -0.4569505948911163 -0.5022277215613609 -0.9139708666779034
Ni 8.619968150376938 1.133926747395081 5.699822647121974 -2.351334519030557 0.2743210235799211 -1.1382155424267237
Ni 4.054919948195317 4.102134075855122 9.927257485246928 0.2173896005001998 -0.5085837456863758 0.46811458192773575
P 7.615615348563422 3.6375695649272073 5.46940270064575 -0.007688369783193211 -0.7364606188711446 -0.21440557817121142
P 5.391196975783233 7.175131449319793 3.2290628050545225 0.6662970133718653 0.22693199277299628 -0.5526370272518482
P 3.831574150260614 5.007173108841428 7.990008846268559 0.2619514462709746 -0.15472436026049483 -0.8568432684269759
P 1.1710416465564528 4.662252104330883 5.724828786988986 -0.8866708933113696 -1.0246162343413128 0.8530128389372922
P 0.4556121121837602 1.7659584094404635 8.602518146372542 1.2287589971339352 0.9640767821953591 -0.21653985090539482
P 4.227525796821737 1.8210681270684026 10.179005839540872 1.2303561664177263 -0.09374062148827081 -0.3006666034529854
P 9.637495897446069 4.6590826157213465 11.49748684498921 -1.6615561347072996 -0.0578621624241068 0.23245986456976098
P 2.260323615046205 3.923132986898217 0.750590228131025 0.7062555560426739 0.6632692822891352 -0.5076738322775968
