# total energy = -340893.06976588763 ev
CRYSTAL
PRIMVEC
9.06887439369025 0.00000000000000 0.00000000000000
0.00000000000000 9.06887439369025 0.00000000000000
0.00000000000000 0.00000000000000 13.27321437104060
PRIMCOORD
 96 1
Ni 6.4360532135136355 1.9065404009995377 11.535126708380476 0.12268173000265324 -0.3225145525660123 0.1909234358888712
Ni 4.677852391445403 0.24396813905583561 5.859792446737437 -1.2411673981006173 2.00304954236866 0.075523841369928
Ni 2.7527933488748113 1.6935397474347291 5.0577185206121085 0.5646628480681308 -0.4774420299762486 -1.261769647732001
Ni 3.3112818424449397 4.301013452560977 4.8882593469253335 0.10445749368514269 -0.4822823887876856 -0.33150210077660325
Ni 4.8327578354587075 4.67220248268009 2.498416862644099 1.9569632895335587 1.0313396691080754 0.5240939255068329
Ni 7.305903372636647 6.0961608690270905 2.630950300344166 0.13913601890393457 -0.6478287793643489 -0.02534156408858216
Ni 5.318813229015121 4.497998473895384 11.465428780892632 -1.2588910406326255 0.738111009990374 0.7083780017023155
Ni 5.543331353096697 7.891770798088759 12.448576388177823 -0.04978041385723685 0.23245857901818026 0.26894896063473034
Ni 2.0211528359530035 6.169745716092482 0.4614488165854339 -0.5461416493354917 0.2086509350756213 -1.1822310287757254
Ni 2.7763724223737043 1.6138243412596252 0.3638668209102648 0.014508735139136303 -0.42221010608613735 0.16284210427162277
Ni 0.6041466487384082 0.35084028968956854 4.931304759372447 -0.27029030515397323 -0.19916433574142473 -0.962405308030207
Ni 8.589058414697565 2.320579862765678 1.25309625778704 -0.06488795892263663 -0.0006540886442311316 0.7777707904738412
Ni 6.928928400635882 0.9014488382738554 4.920314190459636 -0.6252082137513556 -0.8125863554911297 -0.21788145253495378
Ni 0.8825175629165711 7.210018163365955 2.2677282764053515 -1.9469791817376534 0.611758773114669 1.0691577683971136
Ni 7.603435004694987 3.9022822508202726 3.9504932941385285 -0.0700731026680019 0.0884937712670347 -0.9213067382176842
Ni 7.4495634123658645 3.9483702706361856 12.730406171060785 0.7016100868508627 -0.38991267950501235 -0.27120536076907487
Ni 7.920700507497016 8.717772949378253 6.970428476881375 0.06268683750625978 0.5488312803525128 0.1691492774365732
Ni 7.11685361642206 0.4009077316021413 0.4198226829854649 -1.3779434014128074 -0.6871900547707908 0.8033139290502682
Ni 2.0806446521655952 6.495291101242392 9.24334687011881 -1.4348809951401158 -0.8541173848553806 -0.44136276775518823
Ni 0.02021814863785857 4.740246247473243 1.202460197448167 0.0875828294169911 0.26107135765886647 1.3845603925086931
Ni 6.437377269179342 2.1295621608013757 7.01843819118745 -0.5207399214329355 -0.7400899880936157 1.5648451177367955
Ni 3.500132083422228 4.1617246103034775 0.6408719626003764 -0.6373055112355217 0.4658013604135269 -1.0248939134827315
Ni 6.081043055364531 5.817392738149216 4.6219455012920845 -0.5470667322529223 0.06000234869556118 0.5224355639678034
Ni 5.356893432715834 2.671164410196528 9.415407903877444 0.07416527045950454 1.023361021777973 -0.2598711667031782
P 0.1635616846497256 5.550686210253467 12.395563375852774 1.1616028110024124 -0.21323726889472308 0.34126946457601226
P 4.109043518782297 6.117246002059755 12.680565451008782 -0.9718422850733909 -0.531370147453272 0.06966583992725423
P 2.3535180146687473 8.418500093430763 1.4891082733118837 0.9103247852848838 1.5338417273767455 -0.887101295980569
P 6.237354174913348 7.9702891128400735 5.6859267069686945 1.7095740573474751 -1.7784827073937306 0.17090611222667984
P 4.776213403433478 0.8815136385179836 12.71425269193916 -0.4291672541302609 0.3141546106370912 -1.2117910018210292
P 3.995319833522251 6.039625505876283 8.23342794553795 0.9056515481789305 2.125059443115269 -0.8482583549714423
P 4.601964050276657 1.1197248560903201 3.6860648674977496 -0.3857922295787356 1.0913821270129527 0.9649080198474027
P 0.13816339494164864 5.765700153940104 3.705496744723164 -0.601937416148873 -1.0575065573114304 0.31307114776492534
Ni 1.4172746258975057 1.0994196462580041 2.61715926300964 -0.7492156045439676 0.8794468647591047 -0.27869292739537166
Ni 1.84579708011662 6.619861160311929 4.720857900845057 0.516004206520163 -0.13331735533962846 0.37546796483459205
Ni 5.9817116738132325 5.51491856953053 9.154177162358094 -0.1256516112642546 0.5992796668110517 0.22830033387543264
Ni 8.527380999749113 2.1133651510825207 10.294943620883847 0.6566594902821014 0.7230744273722257 -0.4722802832696512
Ni 2.420237723796192 5.30317848951047 6.866685087923458 -0.13802478811762683 -0.2855621437113791 1.049924116978482
Ni 0.7218080392727693 0.10010042210233934 9.045934704799098 -0.3801908242315581 -0.5091750994134715 0.5243147832683874
Ni 1.659749121335931 1.0728841196973269 11.411911539149683 -0.5608041364436729 -0.3590674119893816 0.311174959183477
Ni 3.944806202988084 6.970563603110273 1.675902600457557 1.2209994077931747 -0.3871837106096235 0.010828200963755545
Ni 5.756504315275536 7.941459161050465 7.9453859836754726 -0.8120176274718531 -0.8356262680297286 0.0821644866148972
Ni 5.305472914739401 2.8746699522408203 5.126672800397295 -0.8640963504449634 -0.24570824493923493 -1.6493817041282948
Ni 0.8025981070669574 7.3853376437046485 6.798208737820345 -0.04897257324396082 0.6101202090699815 0.6700829627768589
Ni 5.071033442039445 4.808090497029096 6.747358652045098 -0.8883223128718637 -0.13051022490813652 0.5248364600998122
Ni 8.089581086995628 7.384612133750837 9.148231608286604 -0.03717892304314242 -0.6449756261862698 -0.5649356421135432
Ni 4.676120236430677 0.30320965433436226 10.413951739269972 -0.9661429206957685 -0.3361226302677502 0.38345149726070094
Ni 8.226711537140535 7.522177889868033 4.868734060293365 0.2177071317406186 -1.2643852309779773 -0.23218295675929046
Ni 7.2973967684282 6.190631333887848 6.727807065677305 -0.5078586945948931 0.10007299146420184 1.5049160454813308
Ni 2.2804047490733335 5.289012907662289 2.7153280148599546 1.1441877008497583 0.016604441325900436 -0.7408111825303565
Ni 2.431256406219713 5.12591827004533 11.524017337212728 0.33709656414524525 -0.3834101024998042 -0.4954276679203919
Ni 1.0689391593234736 3.6462316503711385 3.6639912271530166 -1.0612827365244109 -1.4589159246021328 1.0258524207412592
Ni 3.565836078614336 2.869555107066445 2.814916952444856 -1.0162316098220432 -1.384816731493873 -0.11006095591484916
Ni 1.1189630706388174 3.1697529882050453 8.544286288560377 -0.09273120638714998 0.4180004388801639 -0.8933015112540099
Ni 3.594430239668955 2.8257433747306173 7.179574858816558 -0.13082981303108437 1.1643356365525432 -1.0412610419868453
Ni 4.167773549543386 7.025058469515985 5.982185069058095 0.2877241843597044 -1.4287540563067715 -0.27958561441297014
Ni 0.9218057406903806 7.448357252067652 11.489480342748946 -1.7152459109212719 -0.8040526069885057 0.08798443573078396
P 0.18971813225953615 5.793097223570934 8.071893154321687 -0.11549112579148496 -1.0696789310079062 1.5702513763540311
P 8.405749255992516 1.5029845580659822 7.942425903063919 0.2257551988560757 1.2734666244539552 0.843307181613754
P 2.010678285994841 2.9719426992981774 10.566023160026198 -0.4220039036126022 1.7722742645901737 -0.4281334135491079
P 3.98638699221594 6.137161250291896 3.979521854277993 -0.35388818178128734 0.11812522098022236 -1.447827527998455
P 7.050614557639016 3.8735792632725814 10.523575386403538 0.7121055870655477 0.12467382073201753 -1.762157487871146
P 6.247320867903841 7.82794405990214 10.310260949783705 -0.022924470006657295 -0.7699320111557127 -0.67729130759984
P 2.4600047381395176 8.435649334963996 5.913203582649641 -0.7714505046827681 1.583159342664951 -1.1883993623699662
P 6.803886760096367 3.9584911344918647 1.5958389495046235 0.0904336686022249 0.338861626465468 0.6516283556160971
Ni 5.343707289305298 2.7175244962451206 0.43128936780546506 0.31029692745389786 0.2583506162935938 0.2767347752277363
Ni 1.3711049862117886 1.1119346929612628 7.026747093933482 0.2717100683196353 0.5076424648190289 -0.05900270378645322
Ni 6.6718892928746785 0.692389517533131 9.11563263228694 1.0002653163007742 0.09702032068080711 -0.02035182418347463
Ni 2.941870311712666 1.5717356950641008 9.02342303781975 -1.0128048435286814 -1.065817648280287 1.809231301430497
Ni 6.381295349749667 1.780954627994664 2.6177832015699183 -0.3663369490676014 1.1654759208045735 -0.7616507449835269
Ni 4.147314168845885 6.821026932755178 10.524451439672767 0.40237353097618445 0.16804370307722027 -0.3047029783058881
Ni 8.25467994585999 6.9113347842559385 0.5315602847469503 -0.07578660811301141 1.227474473994557 -0.7078439835757164
Ni 7.6871951288625935 4.010473922682501 8.259762143086444 0.873012936208303 -0.2649910044282468 0.03677551695713666
Ni 2.8856432902922284 8.209807155216714 12.448974511764979 1.5823702711047523 0.4181292511485443 0.788335710473881
Ni 9.28525776637565 4.683402542592066 10.356412451720578 -0.4092082945098307 -0.08445996751729325 -0.6046861825386037
Ni 8.434606414405392 2.5146356376615677 5.871087729830848 2.215770019527965 0.31342390311865376 -0.25649016604608726
Ni 3.9823422742234373 2.5597532879142575 11.429498807317529 -1.0480767793570982 -0.21466988757619157 0.43493758095513485
Ni 0.9898495054835323 3.379987635070945 12.652320441619432 -0.09772146051288975 -0.5821301516149587 -0.7369216176679632
Ni 3.2874397715877897 8.220562840281978 7.836094257345777 -0.24542465226054508 0.828600728641515 2.0853806364684084
Ni 5.170464581209393 8.083867696109357 3.6111106203945376 2.172805343040981 -0.8967192786863072 0.007778615504154346
Ni 2.915597782510245 8.613970612736587 3.6858916519962768 -0.3461453046110748 0.000538646112289395 0.10734381409400222
Ni 3.5864314924281766 4.3321106229562485 9.222773221603584 -0.7358659227099392 -1.639072608892803 1.377866268317969
Ni 7.414185733243102 6.175785586457968 11.352566638702738 -0.3801417161611776 0.125046630690404 -0.14882522116724048
Ni 0.6176964540132912 -0.11560729047763062 0.30305639035661947 -0.11971467695452932 0.16929248788265683 -0.2506594182969231
Ni 4.664711592406981 0.36066641512651115 1.5251851626526323 -0.3492324281768308 -0.7516800069240603 0.36363831918951567
Ni 6.068083633814562 5.7868850445914175 0.32820982045528485 -0.5926004550186633 -0.4667891782480929 0.7479701621726409
Ni 7.974025489102205 8.925413898159274 11.081581415854382 0.5055020214372583 -0.5792787982090927 0.6484443014611606
Ni 0.17720761999348886 5.039047521950754 6.047011197206091 -0.20265563672413486 -1.3843631888962222 -1.2847067161441486
Ni 7.896740541272371 8.716793510940606 2.9333936347898137 -0.11429607704211929 0.0780239820839624 -1.5606387929649317
P 8.304277620077471 1.7649843401363752 3.4887579011213385 2.3573742974667335 -0.21873865832892653 0.701962585094275
P 1.6709401123734824 3.2007231943583987 1.5189602872489245 0.49589098071005566 -0.20915487129523333 0.3164822303290033
P 4.6855337280813885 1.1406920937554899 7.936121221565293 1.0547919865937447 -1.3612844526998877 0.35023387285815166
P 8.439431055598241 1.452498134155083 12.507907685313135 1.645287222343947 1.1262306021507054 -1.0543744394403518
P 6.294261361915483 7.6828602068885665 1.5311579233473904 0.00046279856903146105 0.49328336788387944 -0.14271319473223162
P 1.6684643096560985 3.2361371489788517 6.0402149827137555 -0.3990616929941321 0.5392490359807165 0.45188269344990567
P 6.903689723117644 4.054684685492926 6.076769801736578 0.7977400345069164 1.0404974243479435 -0.4078512662613041
P 2.3443040382553337 8.374606741225131 10.210632109151344 1.6457888445707138 1.1517459728129906 -0.021176634077615143
