# total energy = -381161.8679191099 ev
CRYSTAL
PRIMVEC
9.31418056133449 0.00000000000000 0.00000000000000

0.00000000000000 9.31418056133449 0.00000000000000

0.00000000000000 0.00000000000000 13.63224474332203

PRIMCOORD
 96 1
Ni 1.1682776398621653 8.613530436746979 8.59206311390273 -0.3975249446346315 0.4428684057664373 0.20675628915606972
Ni 3.167920388381088 6.370331186555763 2.842418659508417 -0.37213478669630107 0.29931960250678774 0.8364119971558176
Ni 5.301407908364727 1.2580942808666367 12.926393648988107 -0.3014531039100228 0.406505550866687 -2.225384402689277
Ni 4.986989122676876 2.9773429444743695 1.0334874790930881 0.9144866299720574 0.6778083564455746 0.6520459027694899
Ni 8.794551531626364 5.980206743076319 1.1355895239640843 0.18437715012992117 0.8016776789984259 -0.5515270820171211
Ni 1.5621370696573618 8.491822042263372 2.013032814173598 -0.6815387700222844 0.49249429632368075 0.602049516246705
Ni 5.357013564985768 -0.15635621392491572 0.9479143786508523 -1.8374686990096356 -0.44627254635197977 1.4407163708749704
Ni 7.4064778641355025 2.921653460230282 7.39952762276689 -2.484091630991341 -0.04216532051414028 -0.6010444720209585
Ni 5.57163090834624 -0.2028442194125666 9.624773790355585 1.4572863594185095 1.4039665649494464 -0.6835892247934098
Ni 5.314252163051564 2.3816545409235057 4.869001743238512 0.461832862684082 -0.948908559095353 0.5557856001831589
Ni 7.386759744358829 2.6580807850104815 12.870488075760164 1.0166044197804298 -1.5032211742774109 0.976573629110789
Ni 6.935618105481655 7.867101338597301 11.74873197243487 -0.7509629262523776 0.9632982521581216 -0.5811544179652507
Ni 9.1666902928721 0.7712774684568152 0.7731896696803161 -0.18337981921365837 0.6063003211032592 -0.9836403061495835
Ni 2.1771337690500037 6.3812660342732 8.993164318911134 2.10458574864195 0.0782209285861169 0.5718138572906152
Ni 5.541592676754472 5.915817814396041 7.006101302357434 0.7752143426005746 0.5184333847869459 -0.9415091813074882
Ni 1.936827916315858 2.3757866073102303 11.85704005566543 -0.29364440649888135 0.36968478249391173 0.1474064864428429
Ni 3.8802223297703815 1.6918929159534617 10.706179001618287 2.933074120075316 1.9962325194468267 -0.028241254233880395
Ni 4.8764577445995085 3.8572628752358984 7.323923489540984 0.8902478120293505 -0.6852789537910069 -2.261574736566905
Ni 1.4298570804895194 4.715294482201875 4.676622936854321 2.397058760540549 0.47346659026826843 -1.551092544037393
Ni 7.058677056114351 1.5408914243051686 1.7755044500164028 -0.7983817818559734 1.17212736468282 -0.06121770915990102
Ni 3.808745309852481 3.939404631641419 10.988202136670688 0.6805581512765699 0.539991827684012 0.21981775032571818
Ni 5.44003085434311 5.934790799745633 12.006503776139832 1.1310213386711294 0.4398779556795457 -1.547260828996129
Ni 2.783300625481716 1.039099272747054 8.130706613448286 0.30763840678512827 0.8842414579342707 -0.2065886532299539
Ni 7.2720462993094594 6.1412302927688724 2.913401096450342 0.8300019798644158 0.37772307941735594 -0.30045165922870193
P 5.649031746959447 3.296819330086043 11.996497552202147 -1.2416674776654872 0.1389472999318962 -0.13737481323845374
Ni 9.362427792686368 1.7642827255445386 7.34460376414663 0.1628207641153841 -0.3828850832342696 -0.27389961977178634
P 3.9922812334232693 4.8274558418384865 5.011744351180629 -0.28998572670037154 -0.05559984875249134 0.38301158150980485
Ni 3.446516836486942 3.4506057616555577 3.3503553758358615 -1.0291192644179887 -0.3415355737532053 -0.22632624086819733
P 1.5857950877172349 6.606371144694861 1.0743227085332836 0.8244388839543415 1.0410784936623942 -0.3827629558341086
P 5.419381316532583 7.065634748827234 1.9162165666447188 -0.7238313601429083 -0.12586012773063485 0.6827600440238952
P 0.9856824485055687 7.803541371967155 4.570878116052925 0.8949202778043556 0.10545251060856034 0.3964000870015689
Ni 4.561927188747595 9.302826352700098 6.072810186838079 1.1823061049880348 0.5318357742357809 0.38517130816528505
Ni 7.277234297758022 8.610447443054925 1.8872345631033403 2.5213605426451284 -1.439831911387488 1.686725949104708
Ni 6.537269240763286 0.3153213297626545 4.089864037994009 -1.4021688496190754 1.3509460468883572 -0.5050446221848657
Ni 2.8338952530806263 9.368295726299644 10.267384240197872 -2.5651867958014596 -2.0938881597187873 0.1279684323228893
Ni 9.172846966075872 1.3718390511607987 11.552100311308106 -0.3064952943196205 -1.7542492887676626 0.4554058761118157
Ni 7.383928233535914 3.967980536920037 1.8957132614655068 0.2341557642149451 -0.32898241967854314 -0.41240674684247036
Ni 9.390742900915507 4.372169392710667 6.251065901574952 -2.5117268762101066 -1.5692460750179684 0.7411497968166977
Ni 8.292312299412 0.5962332831006674 9.409575242141987 -0.22710528512606695 0.14436564273399008 -0.4298308558561888
Ni 6.831196829706365 0.5875394271726809 6.582997209135312 0.345743698297282 -0.43064075335199375 0.3470480189310023
Ni 3.31106071182366 7.9624785452638775 7.511475687673748 0.14527607036340143 1.3076550974102061 1.0867479706750511
Ni 6.950409023859246 6.921162497596253 0.343865566828122 -0.932155250896414 1.8338946085051322 -0.44744574072447457
Ni 5.681435780357202 4.134015115634722 3.4666522315427817 0.4559188111924922 -0.613718210833885 -0.9791694148624234
Ni 6.146669774086575 2.353264919251658 9.823190979853246 0.3081446569975854 -0.4852052188614353 -0.07363639453922802
Ni 3.3503851812129453 6.274609355216661 12.005645008712618 -1.5977958616312031 -1.20456260239339 0.3086424225696104
Ni 1.2393448358451702 5.675092823546661 12.660878967167722 -0.39809598664675305 0.09324439857814264 -0.6796736917890875
Ni 0.8635111392591359 2.2996990681247564 4.564811790398438 -1.00411220085069 1.1755361332540528 2.184858417550773
Ni 6.61748296183873 4.884942962887911 13.483611693486727 -0.4371921813172664 -3.6912528473498427 1.3355829341687255
Ni 9.096778055251075 0.7192968908235317 3.1026307784620752 -0.5808242883193416 -0.46950811984115265 0.10828380940976835
Ni 4.065909828999371 7.57427282293417 9.812529969037762 -0.3490100277533796 -1.9704572102549356 0.7041613925178066
Ni 3.013724132876678 1.5176618585408679 0.8485851652666372 0.8429616253488772 -0.8808648281525541 0.7177337318856026
Ni 3.2298690018126694 5.7588273047900715 7.042840155284743 0.6357908743632082 -3.297477342455315 -0.4960570739742747
Ni 1.6604761856715906 4.530948224941635 1.109589920967104 1.9882363886152277 0.7645288378622704 1.941475735420921
Ni 3.2991478751706764 3.889517881748237 13.262605753832055 0.0011927347565205265 -1.303492481392084 -0.7968566034606985
Ni 2.093874311003859 1.0214675293662117 3.3941012866318485 1.5972086216691654 -0.6052533678959834 -1.0978096278058513
Ni 4.546316622500214 5.301603506151836 9.240262071948138 1.5453242740950481 1.7995161310252623 0.09711776549061983
P 8.44967537623151 4.3965073459352535 4.070915269513298 0.7168060778650107 1.2111394842799594 -0.22255674652343607
Ni 2.12560772341724 3.160441101569246 6.6939775307049985 0.03995597156764732 -0.1264530241196274 -0.08854493621994429
P 8.645664358914917 0.6836105402744772 5.363320196492989 0.3101128364675498 1.241489043106094 0.47098958948268566
Ni 0.32579512555333456 3.2608479656186296 2.3693113891388826 -0.464070236655033 -1.15430422045847 0.6988260963478223
P 7.2571901816694995 0.0369931300505506 13.34703041583855 0.381584105034659 0.8766770153234514 0.7231171076847029
P 1.903557664146619 4.79073934294399 10.630573936974349 -1.0502074525468559 0.20205297014312945 -0.2462756874069307
P 4.767854401852216 1.468520243074769 2.633845287769619 0.36476831902890083 1.0527163350116386 -0.01759354471204712
Ni 8.044266362816535 6.044763327002689 5.508898972348187 0.0030359586128463844 1.3137946346490406 -0.8058338672586445
Ni 6.596116232142136 6.662861648448062 9.542816454720766 -0.81728633206996 2.182482718229745 0.4311886554356638
Ni 3.8015268200901184 7.3077661809077314 5.374144205464397 -1.2259490384889662 -0.774987314191433 -1.0243272423459844
Ni 0.4596529368705244 6.307236928942542 3.1009402547306313 0.5454479657025767 0.026947218012805207 1.116422614921348
Ni 8.030937770752093 5.755688426015985 11.913886361107563 1.240594813426599 1.205020258756099 -0.2408051512106627
Ni 1.5745249295076105 7.3267484804376615 10.949104933281662 -1.1415147820032856 1.481906471960035 0.6231140502264881
Ni 9.362707218096524 7.882832989189084 13.10503124511886 -1.4984376368458387 -0.7025567670348482 -0.06281693532622085
Ni 6.689500204216266 4.540113378394751 10.451310427924847 0.11745827682018482 -0.6774820834544074 -0.48943185534827327
Ni 9.304474962620016 6.6554475608985895 9.237017942936228 -1.8047699232250338 0.27213070079682167 1.0971077166428203
Ni 1.6614541746071367 0.07045618575279727 13.001371869295262 1.3724738936578043 1.0314204017473396 -0.7359592537546937
Ni 1.2887379341804095 6.731237046313231 6.6138196947115855 -0.7183675088148596 0.6496159531717586 -1.2961013311343357
Ni 1.475077426033096 0.3289367985815217 6.34266061960605 0.16359440905661501 -1.7551324627035645 -1.630829137937088
Ni 6.671430694359511 4.313527313299264 5.733776816769587 -0.4065430889728418 -0.8306951492766984 -0.8691033167412515
Ni 3.3090488488705363 3.616072175369592 8.705632777606526 -2.2854271177044705 -1.7707475435330018 1.0287971051918798
Ni 8.12274764634901 8.16083332975327 4.3996024480617475 1.0587802818175314 -1.6973417769473413 0.13149418608796065
Ni 9.058329118813612 4.2245582627055995 -0.05348574917599057 -1.3215483104525305 -3.0094333128623463 -1.136650769042765
Ni 4.102402787565742 5.4739251565950315 0.9269490901268489 1.1996317407506758 0.833663744986719 -0.042250938249411105
Ni 1.221908690251437 2.612879067827582 9.30411543525895 1.0001928111916258 -0.7721169346221735 1.3984181243273914
Ni 5.410253419800821 6.23698006664899 4.111879966060199 -0.6393227987758667 1.8233289171741436 0.697379850819599
Ni 7.703926213246547 2.4759140459494575 3.9628931316191305 -0.6383630059657587 -0.4638036132572077 0.6906908688351976
Ni 3.25240000405158 1.7484486189690327 5.413705255034281 -0.6243988304761827 -0.33631880543895626 -0.459251475110151
Ni 8.8557643248112 3.610772406756967 11.208404262562144 0.8483843390263454 0.7574511050798826 -1.0634306361053492
Ni 3.337047274968166 7.982885914385603 0.4557447068004761 0.10221986260387557 -0.5749472607132743 -0.8252914617626238
Ni 5.015453257791433 1.704867569165038 7.817451168884719 0.0706055781327042 -1.0230437476478704 0.20129886558592427
Ni 7.667070001646972 5.375837523449942 8.133623814730315 1.1069943796289128 -1.8505124195674714 -1.4349761259570835
P 8.875473130407537 8.349370968165852 10.881748506745529 0.7788329131897684 -0.00846330027600478 -0.7194226895522513
Ni 1.1387610023693548 4.695753331851634 8.089019136507115 -1.0075405098059487 -0.4005835289552972 1.534614343876712
P 8.547837522819307 3.09281083813116 9.029521290444563 -0.6973052888279218 0.6717917179378494 1.4308857579377938
Ni 8.59562858213632 7.570416752274017 7.216147246007754 -1.8121872987350276 1.3429743415367903 0.13740360959386014
P 1.259742890786557 2.5599093242423456 0.33540270257253113 -0.7230224910883677 -0.7913796395065275 -0.7330420801078988
P 5.931623978430531 7.82629591453419 7.438447856729482 0.4756283738062777 3.1203998113106 1.260855106337532
P 4.424729312361007 8.030481375915505 11.974931499046306 0.8092143536951031 1.7860692614917366 0.17939178110018783
Ni 4.077804037291677 9.08913111319314 3.663583809276448 0.09721058231474225 -0.923651327190461 -0.1445520477131833
