# total energy = -381164.8806632575 ev
CRYSTAL
PRIMVEC
9.31412844820725 0.00000000000000 0.00000000000000

0.00000000000000 9.31412844820725 0.00000000000000

0.00000000000000 0.00000000000000 13.63216847048713

PRIMCOORD
 96 1
Ni 1.456338500745492 7.072599633498656 5.821645117021564 0.4984008916161029 -0.03026316975991562 0.020419701306932575
Ni 7.547107908869784 7.181612193218818 0.5569690490357331 -0.5873919142345303 1.3710250770264194 0.017540837097240757
Ni 7.517535550948431 9.08497297619342 8.316045099595842 -0.2679626854620611 -0.15070212647497916 0.09305619382673651
Ni 2.6333276601438267 4.8631207039277715 13.30108401966451 0.9241766035663115 -0.263161664528992 -1.1533629395911233
Ni 0.10279537896031941 5.931674779571653 0.4261893710597584 1.6781790879759615 -1.0379705441610316 0.5874546491516657
Ni 6.026930371528087 0.7131129616861737 9.887098269516443 -1.5719598744047056 -0.2996690154264065 0.8636132401609579
Ni 8.851858968616845 8.419208386631087 4.9614415755667 0.17071713614432535 -0.2897155037581204 -0.04207018969717271
Ni 5.347865206497505 4.7880488283856915 4.151131957549033 1.1555766594129904 1.5600952617566355 0.13143505071525108
Ni 0.08215713307618262 7.447744786254039 2.296583727695199 0.9669695303621217 -0.9309265206956354 0.6220758387699609
Ni 2.643498688443077 2.9308488661538377 1.305810076155141 -0.3613289543300487 -2.1263164554508216 0.2994108766690134
Ni 8.758866709880849 5.955211582238506 5.560356802208359 0.1457293558507361 0.0798065279056819 -2.317585190494254
Ni 5.35496257239863 7.759954372875694 1.8794122958289694 -1.008897023833843 -1.3484510483806453 1.2002943140353393
Ni 7.9939625367862694 1.5577041609842595 10.276432565596988 0.6361197184575367 1.9309648085872682 0.46133895376679906
Ni 1.115571796206712 2.911577934330442 5.5161752337674335 -0.6543496112020021 0.7376965481607747 -1.3285427394924927
Ni 4.959009656620789 6.679245359566502 13.061198640683582 -0.3134845811532601 -0.2145001947675467 0.24390513029222513
Ni 1.2261584436398543 0.32090991403404534 2.4797050820726967 -0.44787460073177704 0.8266831999038278 -0.23890613441573694
Ni 6.502528399931278 -0.012318866326545413 0.7894254791416794 -0.0036324545462647117 1.745900402582335 -2.63270113660335
Ni 1.0358614846820062 7.1566875854085685 9.238261177052149 0.19080182270934234 0.6503739143837057 -0.16716155758258308
Ni 3.547984390926442 2.4906910966138733 12.704881067235984 -1.1227017630618408 1.077226661448177 1.4158872276464325
Ni 3.616368722220481 3.605499134285294 8.48808357249598 1.4624928433201136 0.32936962781463275 0.5079556251840736
Ni 3.9436299404644695 7.698462496656238 5.90075187302082 2.7525621093277564 -1.5838496838637561 -4.365063138379618
Ni 4.886135915399792 1.8760610724021651 1.2725530490074295 1.2335574469638433 0.3006064396390113 0.8998542247708631
Ni 4.045815244009404 5.2034869009419475 11.026911016503032 1.4452674805807626 -1.084120560354533 0.06306273278843978
Ni 1.5864941321133628 0.6705427374721439 5.381407245976678 0.3064636697507367 -0.4629890877757123 -0.8164913469724906
P 2.3956683578694182 8.963553997339007 9.82456786797156 0.08257226357627714 -0.3253818468114783 -0.19984259275537195
Ni 0.33960057565318846 8.576374990588542 7.522652733134885 0.36748828906322517 -0.3662158501087048 -0.5987536191042527
P 0.2670798399015513 3.4253359471127793 9.600672984763664 0.743091751034417 0.6670647447758254 1.3608252536752823
Ni 7.190367473989235 8.059170750268914 10.620577504535161 -0.2863666418905455 0.7100232506152223 0.0018540224896032584
P 8.849800546222948 5.220876378812551 2.5623977775364315 1.1632334046272998 0.8410464106040354 -1.4499198917511094
P 6.939221313676994 1.396821219763619 2.500044344432652 -0.3219303979277682 1.205272226865905 -0.49485122659163167
P 3.985953340273802 5.980136190048754 1.3834200517077946 0.10680645353329347 0.7117867702735483 -0.47559700634770985
Ni 8.753539028390765 1.1662872257757728 6.522924478474957 0.1707978687835897 -0.04043111143185295 -1.7167692895443336
Ni 5.762073814094513 1.7599977174232733 12.620702768279823 0.8806791945043091 -0.7682322548557866 -0.8311828875463944
Ni 8.9390578394388 1.3929837988302025 1.0601126810032118 -0.7924880420793577 -0.6038883692276569 0.6641092616919272
Ni 4.838903969881939 3.6096439214585225 6.394004831956273 0.7019132199135782 -0.8000136610324415 -0.46792200630095543
Ni 2.434657299683209 7.195425045753422 0.35342926220620674 0.021164807003073226 0.048728832664270916 0.2898458586883976
Ni 6.406360023383885 1.6388488482947567 7.062213448831536 -0.10856817341940657 -1.3819445521524005 0.7290345016104025
Ni 8.697635629258807 4.9954651554882465 7.463830286137558 0.19934894094840508 -1.4628137169946418 1.9896556375602572
Ni 8.693947234381058 1.3480896995606209 3.890470483582476 0.547435942666883 0.29384726653830684 0.15023675680278642
Ni 7.45622064317008 5.152594502931783 13.141750949422804 -0.4810688280955587 -0.9598766280710824 -0.6868599251248816
Ni 3.4774391818252357 9.34887017839364 2.333486304729656 -1.0129843065293394 -0.4917782440932627 -2.3191887875359476
Ni 6.10889470214475 8.57002275496575 6.201900932073467 -0.3897291027392965 -3.127520995736414 2.053862254145153
Ni 5.256931370155405 4.0335671650593 13.376469781336338 0.12968335813146697 0.3692093855193899 0.1795571030334585
Ni 5.6130663866848085 2.4120425957357927 3.9156223561276167 0.22043892884948485 0.3511299023098598 -0.038180881945095536
Ni 6.278868232761058 5.445551785987003 1.700531664148036 -0.14654336711159924 1.1030289672232616 -0.08562621991125254
Ni 1.287175299306873 4.750773686212067 3.964316619816698 -1.2033541839075856 0.5701835207760438 2.0214172462425704
Ni 1.3807729763940153 1.1692770610175853 8.561819802014147 -0.1375807586016727 -2.5113188421384107 1.1037033675824668
Ni 1.8749154345992278 5.031343178389995 9.047547876551281 -0.41790196562908666 0.19220281682192705 -0.24523207663376473
Ni 3.9667569214782397 0.18584853119619785 13.66393172858885 1.0721304778721923 -1.7472558881689648 -1.0060585259437835
Ni 7.990805047231832 2.721346174271949 13.085081928929858 -1.5352743460582141 2.6369992497580714 -0.8506024297235867
Ni 0.7512422094413369 3.279215899531618 13.664067714864647 0.7732384498211263 0.28124371884168337 1.6280163510786414
Ni 3.74810775542981 0.8611601024496748 11.231012445279854 0.2772042586649871 -0.32797223324647384 -1.7553425218318415
Ni 0.5267316623409675 4.730329174200298 12.002660978806196 -0.5396313590207997 0.10807580716402032 -1.3003811894566122
Ni 7.19912275475965 3.394357155791072 1.6001300162068621 0.3169267740655897 -0.8475446167338694 -0.30974054072979557
Ni 0.9500317907464886 1.8469730491617289 11.889240973489692 0.6381035816567849 -0.6788239421942825 -0.32785344828042245
Ni 6.33190288032143 5.770018765687241 6.177444824925718 1.0790488022585805 0.06287478514734977 -1.547813359065489
P 2.0226095698933686 0.8547510506431605 0.09290191168974891 -1.9343566078776364 0.41150634651538803 -0.07348984165903473
Ni 3.4928168079443394 3.4924908134475685 4.44099229288493 -0.5833506542856212 0.027601049546720206 -0.6448167320109024
P 2.8550318603334235 1.8084404996434176 3.562357953995491 -1.0607836854008053 -1.7108971470342726 -1.7619793104220687
Ni 7.365482403526041 6.553858561979965 3.675818941477304 0.7377194309789101 -0.5686478008578076 -0.2639049704529197
P 5.732548026815555 8.590551094133833 12.346532082367082 0.7197438203370959 0.6583034536434276 -0.478706498510969
P 7.917828850597563 7.30090755077998 7.027137372391844 0.39502840346502294 0.5249573019483926 -0.8592143397623139
P 7.073130538821967 2.985690454639169 5.738420584821669 0.2807747496250649 1.2165151467695758 -1.2565690773676683
Ni 2.1660005778301348 6.25536868660812 11.069565999286223 -1.0221559457262783 0.7784706447543431 1.1512338090632626
Ni 2.7364350624081983 8.888705660880426 7.059500243205555 -1.1532109873942913 2.4102048110042036 3.40986900338587
Ni 6.867074074477371 0.5973178536074818 4.942833809691021 0.6257401749954256 2.517400015335484 -2.444833713931983
Ni 4.3541315249267685 7.943712813641167 10.661269069034944 -0.01686232297297741 -0.8353794421262452 0.05755697247886216
Ni 8.30411370101403 2.515923070663935 8.198195294774646 0.3011641119146943 0.7922990659970033 0.27124624130933933
Ni 6.345408366616221 3.8647485863744104 8.174107095701826 0.11888626751596298 0.2694431266623295 0.7919938760517586
Ni 0.6431545426791552 2.8188744135772996 2.735444970550863 0.9388547744037767 1.0872863596770241 -0.37744668582751767
Ni 2.3825726932277105 3.500463707425735 10.933667276298097 -0.1539504582089478 0.04205090642346306 -1.054412491767139
Ni 0.36206997919632933 8.47771974173721 13.680699022677043 -0.10867050332522574 0.3824755065006768 0.43756370572407216
Ni 2.032268321126264 5.098460788210868 1.9426114517986568 -0.3732002518463379 0.6062514701431946 -0.9776509213353678
Ni 6.892725184308995 6.235604105975329 8.495335552929859 0.22044869904149775 1.000183298109929 1.7424291562042828
Ni 4.555912804299428 0.2795821945591363 4.071915294833724 1.5399282998904575 -0.41385633480480344 2.7107343746586925
Ni 7.989687351814332 3.9419347690812616 3.9045664856228464 -0.8770788787475605 -0.8160041229234268 1.835092742578291
Ni 8.766243499636348 6.8540156663495795 11.848276505025469 0.6101654604856201 0.6994966400522856 0.309565448604512
Ni 8.314033247844343 0.7725333757318633 12.41605646298697 -0.9378936960420879 -3.4736027940994045 -0.37573073157767545
Ni 2.1040150528012824 8.507878889752751 11.992068951899686 -0.4418178530147359 0.49820805887900643 -0.20789811606999678
Ni 3.204395505458474 6.12164574403273 3.8243001206279343 0.7791656139388388 1.4952857214804183 -0.9580601436876339
Ni 0.13918661034127025 9.222542653830708 10.142442307534244 0.4516584932542415 -1.2391585952007045 0.7831078864160385
Ni 4.57601269355747 1.3902640733142861 8.261953298453083 -2.0924905080403122 -0.4519647116407507 -0.6189828016669341
Ni 4.946780205927644 8.1775160667252 8.17732419567853 -0.19354210445864087 0.3776654867065431 0.8394299580465349
Ni 6.659108213794544 3.792852828643725 11.237296687764747 -0.5477483317009793 -1.4180883490628093 -0.6550422663936525
Ni 4.4465276794400985 4.041707713350092 2.0746522627707105 0.14423734468624191 0.028198831031719176 1.011024611699807
Ni 6.242952953345391 5.9879507438427755 11.001882090453815 0.21981620766382143 0.6778533507508971 0.11547261384872372
Ni 7.552165480633972 8.74922658690491 2.6837925396567983 0.4173802887976618 -0.7254187592346862 1.2382337693935903
Ni 3.07953029906677 5.137971321219492 5.859637447088084 -0.5809137627093544 0.48571583994926676 1.9742079355466189
P 5.550391616148498 7.374246998424936 4.2145621039050045 -1.5824548603987585 0.4082225335577937 0.6066435633752907
Ni 1.5358532155721354 3.0515692853723126 7.73606456473948 -1.8751106777321256 3.2147448991520897 -0.25659583838601613
P 4.720120889387132 2.6061583473700987 10.129137075001754 0.41532572026147824 0.7310299347738765 0.8107858119472812
Ni 8.534647695001876 5.390011637865733 9.958735094475406 0.2744482931864048 -0.6143954394065676 0.21569344374469948
P 3.025433840859772 6.70071442571098 7.406670411073762 -2.252669206547159 -0.6107958949807674 2.4992961066459216
P 1.6659343339121724 8.219066393870762 4.0124110536317215 -0.012265190520598233 -1.2239641468484534 -0.43698237929930545
P 3.0014872165398354 2.293175688084672 6.498454400134491 1.2628749649810378 -0.5577077569065363 -0.031173083168694698
Ni 4.839378990434376 5.787669039155261 7.784744857235843 -1.9981503052948297 -1.1803073293904511 1.092488472703254
