# total energy = -340894.85197669844 ev
CRYSTAL
PRIMVEC
9.00753518225490 0.00000000000000 0.00000000000000
0.00000000000000 9.00753518225490 0.00000000000000
0.00000000000000 0.00000000000000 13.18343823484553
PRIMCOORD
 96 1
Ni 5.970698869009649 2.032334176682675 11.219093384529057 0.31117907294853503 0.3823148125530964 0.37913872881795996
Ni 4.570657645561163 0.4304557035491581 6.1362051255102426 -0.0005057359918249354 -0.022340572478729264 -0.27032372949506994
Ni 2.564733562600105 1.6569451398994564 4.702730633007688 0.9947011919494354 -0.08931189629295586 2.365694901517287
Ni 3.654483207425717 4.259312185299328 4.7874203813637655 -0.9478245820025548 0.41998327363814764 0.6213692996212394
Ni 5.041058165487498 4.360178566436665 2.7699198139378294 0.5056537165237743 0.19777131204864004 -0.858730715257676
Ni 7.182473595570168 5.956827264531038 2.4878470421400167 -0.3060309530886923 0.1423270150374065 -0.8371028525752552
Ni 4.982112853988772 4.42977979228487 11.403160568424862 1.0079184619706576 0.2667175002010503 -0.686692803419398
Ni 5.598021100374523 7.921262639551518 12.244395014494913 -0.8466583574741741 -0.4779853040742284 0.17502939036643406
Ni 2.0131841564738897 6.285953599624547 0.341995400884804 -0.6828837140859529 0.2142579968497536 1.1140775117279396
Ni 2.550861958121493 1.4873872939868633 0.3426862788481219 0.04816113308625899 -0.8696643314510442 0.6738892238968265
Ni 0.67444011201073 0.11623413724185556 4.704048435433156 -0.9117792583432233 -0.6159100762788812 0.3793151064948242
Ni 8.64122593459761 2.076272934245447 1.37086671712006 0.2037830654603587 1.4235550286043352 0.14870206532581487
Ni 7.03617320599769 0.5408394465644821 4.691208193755065 -0.8667150190147331 0.9158302884841454 0.2765475989175947
Ni 0.6724044090158167 7.307146892705537 2.264334960080386 0.3157762054009142 0.5528931091267124 -0.24996213511958243
Ni 7.548125486612231 3.9050728415783054 3.8079040537127034 0.6456767660183524 -0.7899403359568395 -0.3832920888647012
Ni 7.686634358084709 3.6207770100497645 12.601191597509104 -0.686766594080127 0.3048734424454814 -0.04954335814576629
Ni 7.735410162144245 8.918757107058985 7.0127851403946275 1.3263758137481607 -1.3653529663423067 0.1786207072621182
Ni 6.755255200235044 0.8152423019898675 0.15745261912115988 -0.17652988617136048 -0.32326582890974004 0.9734137433255687
Ni 1.821062434445113 6.392755946574484 9.287600367884666 -0.023684488101133404 -0.2853929651233666 -1.0278684227300232
Ni 0.17646122102454626 4.677126713702198 1.3950321330260471 -0.25838095531089694 -0.006122310847653973 0.019431883472366532
Ni 6.515375525644189 1.8993559319308895 7.024030147557678 -0.44485329740695 0.7015074998347274 -0.26426286801297066
Ni 3.538195925725144 4.280497908503027 0.7512788925333272 -0.06313420945632353 0.3399196354163372 -0.6181219963285355
Ni 5.987777156082019 5.613135744734985 4.58562186408085 -0.019799294114114286 0.3287088543021823 1.9629274775367938
Ni 5.532995702497185 3.15593413945025 8.940955277238913 -0.7190051423988585 -1.4295863224000798 0.2822670178998752
P 0.165131543028963 5.687312798554056 12.490345767929007 1.1176593155419268 -1.3480851804007945 -0.42222527559478895
P 3.987969189641076 5.9939743404205155 12.53512943231002 0.04141147306725126 1.221487917393819 0.41987451597442527
P 2.286472779773298 8.431881804930454 1.3342429790359116 1.12677156225584 -0.09788652533584431 0.37075101897489693
P 6.171720035989639 7.786383804835456 6.065621177552546 0.874520888212397 -0.6015535504468931 -2.3873654445121857
P 4.460783729048105 0.9026541275364874 12.459061696815585 0.12662168848700775 0.1851911613907843 0.3045019180386756
P 4.071225839118875 6.185474542508366 8.284077156950229 -0.951120222034691 -1.434067240989569 -1.0360249903988867
P 4.798782486486701 0.98301935815868 3.9962561221867405 0.8409461375807453 0.45183847047553155 -0.988794082436381
P 0.14048242247329945 5.701463636629316 3.4474558158571953 0.029321888892568853 -1.724150412499753 1.3058884924280865
Ni 1.6365250572026944 1.0595744013169421 2.707811956768688 -1.0658587859308677 0.20524396627660138 -1.612425695729236
Ni 1.7469214107675444 6.757029684704061 4.559980113126782 0.44342067872548147 -0.6770020584941954 -0.013179731915067626
Ni 6.121268830350219 5.520105919374527 9.182633756644302 -1.1992792425072636 0.60220326821575 0.568586351492253
Ni 8.57753365195588 2.1954786574077536 10.22786996315017 -0.4508802203273202 1.262170996935478 0.059189108765646446
Ni 2.393031923268091 5.350376930289795 7.086110982120693 0.319468823761153 -0.1941707391815753 -0.4596589949612148
Ni 0.2893472573672459 8.904399095670083 9.198822999975086 0.2713442003397843 0.46274226187222883 -0.6760538356483132
Ni 1.4245867573473288 1.1106110967557836 11.237061616096547 0.5379323740518219 -0.8482804664586294 0.47351749811086186
Ni 4.032295271225005 6.921327129957232 1.6885084446095242 0.4740929109983577 -0.25758417044121446 -0.9472157447739622
Ni 5.4923266802757995 7.760135846750601 8.101196265463406 -0.12549066020635807 0.937316226272063 -0.016024657563030467
Ni 5.444568727713722 2.7943266317918862 5.091576026888698 -0.2555604551429663 -0.4058064679171334 -0.9885194886187557
Ni 0.7505727017598707 7.357471992849697 6.705808334790018 -0.9871208084990161 0.05331722336590172 0.9533144014725323
Ni 5.198275687935352 4.568594919960122 6.934805105139925 -0.5325669959748505 0.538066328526525 0.16388031572815
Ni 8.156998847869541 6.749553430342211 9.284687330944157 0.31265385772184867 0.9543436140679952 -0.7370586574664596
Ni 4.490769814313883 0.2539242237486812 10.33096390778592 -0.450439790355792 0.10414947552642063 -0.5992472709112195
Ni 7.953806864864003 7.328359638515363 4.453616433149643 0.5123087599464468 -0.4320489465534302 0.7776448064189382
Ni 7.163945095302307 6.046785520328374 7.065294567867398 0.7429045747242754 0.3395959335283313 -1.1167481165815671
Ni 2.424855545750517 5.1286204168748935 2.735457884343854 -0.6719277292950815 0.19130910136306406 -0.2783347727250045
Ni 2.3554164555390753 5.247790109895696 11.391848905500032 -0.48693737106119367 0.3294817279124648 0.021038565837854087
Ni 1.0298765571831865 3.449660860517172 3.9148487197215767 0.15493879026414606 0.2644122491066414 -1.5946202921166988
Ni 3.659662540266757 2.449788403670516 2.7858586477851697 0.23413442405870646 0.6057583325568601 -0.974975945606366
Ni 1.3602729547646732 3.3495961500282747 8.162842036067772 -1.631204518998636 1.137058546004145 0.12206132280983495
Ni 3.6645176018342713 2.7731048784466847 7.036080428383319 -0.3972107558283224 -0.06509030474142985 -0.08548995144370437
Ni 4.001975907150324 6.919039215971799 5.922014041057408 0.9047030682227322 -0.2479808430234955 0.051303278259666484
Ni 0.5010198349290275 7.437720125512005 11.119742971595455 1.014963027522265 -0.3048621295915717 1.2136095430870066
P 0.21779049558897198 5.493362546844009 7.8964576886338556 0.723932661607463 -0.14122529733279549 0.5323103998793542
P 8.543728371690795 1.6707266690243112 8.078626984825997 0.28193046049606285 0.3553953624544331 -0.5588015041913473
P 1.930062620026726 3.375321671061337 10.414152099994865 -1.0376208741310968 -0.5726942030130395 -0.9375095732297919
P 4.025611679976218 6.229602458314029 3.7614458885053415 -0.3825063597386122 -0.5463535082359817 0.1493857216564008
P 6.9410986701069435 3.89358823397426 10.451751354160205 0.3765665972154095 0.49515718786782464 0.12015767802921887
P 6.309931658794719 7.751722808709677 10.04686083751442 0.38586627734978063 -0.45078200418655917 1.3452901341541608
P 2.400355049528553 8.431899820001204 5.872918469492036 -0.15913508773368076 1.3972297604462451 -0.8367832644523073
P 6.848303040666254 3.875681253647324 1.5331149480752544 -0.0784618409523294 0.42417494312199205 -0.43327407720978284
Ni 5.177909650450844 2.6540612909211414 0.439280385956753 0.22158846907289578 0.36107621488929426 0.18243930967726
Ni 1.556628218420039 1.163332201309885 7.153426095490539 -0.6950491458038933 -0.34273627892952585 -0.9722896570234546
Ni 6.737258144554351 0.8365505276746757 9.22516373567431 -0.45877916345942277 -0.5742137249813595 -0.4495051943566646
Ni 2.654835938963454 1.7110714199721702 9.245980149927606 0.9867549405191651 -1.014999280076839 -0.059893591031838785
Ni 6.310940502756799 1.9400069390815233 2.5074771639843276 0.4892619054293122 0.07659779116039712 0.8237223175032912
Ni 4.068424495617026 6.908905738674112 10.372649880751224 0.34326309796727333 -0.8101237528832499 0.13255090948724915
Ni 7.988954267900071 7.110539418059651 0.3959370264823158 0.2940485839158355 -0.008887275187300824 -0.178722265836989
Ni 7.62714859446344 3.8078905424096394 8.169433750455726 1.9288958418733815 -0.02519269721554371 -0.19649604488064223
Ni 2.8055410133346603 8.188822470351969 12.306159684566241 0.9989530252472537 0.38471750845731806 -0.5181389934749786
Ni 0.1619590890696337 4.720651124637688 10.372504859431675 -0.5082042508597698 -0.46034110862990396 -0.3651084759771389
Ni 8.76764669359587 2.4026970087262405 5.791392167559912 -0.32143366079700775 0.12007771672090287 0.43827692974101295
Ni 3.4437068796338193 2.822916549074428 11.774893446599075 0.4062463836680294 -0.8987666481336393 -0.2645999396374153
Ni 1.0848405380458428 3.2603404819902444 12.453708518541793 -0.11638458414003183 0.7712630712623104 0.8825095628448285
Ni 3.108311299918807 8.439313021615424 7.8934257522263875 0.22670445014322246 -0.47826658276007306 1.292805176881567
Ni 5.696500484637292 7.755460935890602 3.5565361685036523 -0.12354613488547755 0.9110084416154697 -0.5400059687513991
Ni 3.314646912770473 8.447059502038545 3.691309615055819 -0.6212751972455364 -0.3390750280278548 0.09949115081880285
Ni 3.629991718739128 4.3250671935421 9.39988380011073 -0.7406237491098986 0.4574193069974186 -0.7054803684395463
Ni 7.33849311581305 6.0702501499821295 11.432281930294572 -0.9769824345134337 -0.2540280776588399 -0.5139601795069406
Ni 0.44443449769874116 8.870242521525345 0.2279735143312258 0.6980835617548429 0.45002558563650885 -0.29505851323758864
Ni 4.606183365083011 0.3541096352116127 1.6151429697278052 -0.20687944499749533 -0.09983747841462806 -0.39605478784700826
Ni 5.940280422045836 5.566008319649207 0.10676811831550921 0.1522815551469571 -0.15481563442272048 2.105818078387154
Ni 7.649487282195231 8.93965458913066 11.296018637391262 0.7355180524522171 -0.21190338057464794 -0.01698342193187398
Ni 0.3081459836963779 5.002307748301142 5.724855305246528 -1.0229843551648445 0.1105479228535967 -0.2617565566513492
Ni 7.9812528251538275 8.960516041060831 2.351912524277919 -0.6370126625854513 -0.41807140132741544 0.25669045498235143
P 8.596746724912295 1.744507391286851 3.595980165913939 -0.5385247562201823 -0.4962139112671131 0.32568395143292944
P 1.8265570310243033 3.1604649297442378 1.583251790730061 -0.10821181852125233 0.027631388564023383 0.36548488547995117
P 4.619649630469715 1.202298799345259 8.263089599524797 0.8519121496739457 0.0612004827687204 0.09868382442615908
P 8.597359237317843 1.5862179721292864 12.413407003763737 -0.051980506832349185 -0.17464706732635082 -0.522758494524861
P 6.242735444891832 7.792869230305976 1.2550676438368518 -1.0441807867368016 0.07344459024339609 1.2309290082020605
P 1.8761074831261506 3.4385815920050335 5.9054419774731555 0.5180086385447014 -0.561590122680078 0.6085060705053262
P 7.044559221432487 4.010424975332751 5.944227524047477 0.24624380572773072 0.2315826041711302 0.3484359004174644
P 2.293516672437113 8.350012315900516 9.97582921504855 -0.3154782145445212 1.2033097038228953 1.508287790167041
