# total energy = -340893.9840294732 ev
CRYSTAL
PRIMVEC
9.07742454713929 0.00000000000000 0.00000000000000
0.00000000000000 9.07742454713929 0.00000000000000
0.00000000000000 0.00000000000000 13.28572838487618
PRIMCOORD
 96 1
Ni 6.507296876062905 2.042583869869575 11.595810482819022 0.49386597986022684 0.34996750657064246 0.04620735179399784
Ni 4.597252478964245 0.4673838708110756 5.8812332736124535 0.3217020839670459 0.12429921100141819 0.183051232229646
Ni 2.6512887137569265 1.637603660418059 4.693462284046387 0.22687594272408024 -0.5606200454573248 0.21137090510994566
Ni 3.4161434111204287 4.202765772048389 4.882903591285111 0.15612998235876982 -0.7514442367641704 -0.11065642340700296
Ni 5.097718115035667 4.431335316899538 2.973784183726575 0.20674240519899878 -0.6171416346931371 -1.2315586713662596
Ni 7.232546771036194 6.025848443981282 2.7353983121954406 0.1741899251842742 -1.354288738108345 -1.1375390851849894
Ni 4.985303292023886 4.3909226237431715 11.293918042871162 0.8516077310596495 0.8033717788713971 1.0176210339704024
Ni 5.760760421015115 7.9119647505228485 12.758510534103738 -0.5653153940504652 -0.4211713804089779 -0.6829688176005916
Ni 2.084812047893703 6.500606814325205 0.3358828553845204 -1.050829659511887 -0.21836044905390134 -0.02234391491283894
Ni 2.6314363867279567 1.4865280871473012 0.20015357570094916 0.7592177100620021 -0.13129261160011582 0.5343264018681185
Ni 0.31450370558176316 -0.23419664019877542 4.676828811687958 1.1052154333516193 1.0278686798403396 0.1814574053799649
Ni 8.715961301635286 2.4556157547096125 1.2885258610146495 0.05595003300305849 -0.32953006465189705 0.059118917649343336
Ni 7.040305078388949 0.7308461270781633 4.791139000901682 -1.0169636028920614 -1.292416940304213 -0.1637571598867244
Ni 0.7437878109579998 7.196518473835471 2.3801251706807953 0.05733431494509481 0.594747326158337 0.6595864341209092
Ni 7.732640232709725 3.724376431968944 3.996426839402977 -1.2516225319956702 0.7758496621917284 -0.5302614877701255
Ni 7.757457910852023 3.9789255652777578 12.885601736786501 -0.2465255986342077 -1.2690031893659628 -0.9282993674854336
Ni 7.6445165972285904 8.6837546000812 7.3310776735217695 1.6637924802369861 0.9105045053958577 -0.8171575198015797
Ni 7.008180073653912 0.5661181076018407 0.5045187060386993 -0.17263183666853496 0.6338031545092181 -0.6401686917159297
Ni 1.9098446937632065 6.611660023686164 9.233979953150659 0.4671838425833502 -0.29767023982882285 -0.2754980746071578
Ni 0.28069483863187816 5.011219338511179 1.396210438203478 -0.08796386690549365 -1.1220625868159448 0.2777562745137152
Ni 6.532268870418961 1.8715924275994757 7.019474205016255 -0.45472813331850076 0.4701676078020225 0.6162929135395967
Ni 3.53052803521373 4.516300008710767 0.5710761967756968 -0.45846008955710726 -0.573385058432477 -0.11936037893890411
Ni 5.888443471764767 5.611981436102075 4.899458090051793 0.9967213077032576 0.1750458454266663 0.31271762108024853
Ni 5.484543475809569 3.0742694556722956 9.435722985853332 0.10966989112401758 -0.862813627077798 -0.929907592512818
P 0.06578409418333116 5.565505023487385 12.569321579261633 1.5628080327021086 1.1303950179410402 -0.366910047962252
P 4.227792230950478 6.157271393558523 12.441831877650397 0.014399977475413907 0.5984008637505243 1.074829107750278
P 2.275183791127154 8.500644796318793 1.423498991250798 0.812099388552382 -0.8451172382392994 -0.8825509576057252
P 6.362194248007082 7.743887161465507 5.785735138598473 -0.8720505722950337 0.9478176400240194 1.2872657351205765
P 4.836478919989153 1.0806582901105823 12.66621491439649 -0.34372049721966613 -0.006810080943297949 0.6372713155634767
P 4.121304966031939 6.276358123459326 7.993384708129774 -0.6501314593555965 -0.11354685758092058 0.8658665549715088
P 4.872135042791984 0.9425362013713017 3.5640164690844554 -0.8140189741725982 -0.3956390404658283 1.9429978284924025
P 0.26556277225908764 5.484951959904816 3.6657317320280844 0.28324172310831863 -0.1900448899386598 0.15093763952455294
Ni 1.3480792111318238 1.00963652208376 2.5238362295854793 0.20523471030522075 0.24611833589345997 -0.11152674182709825
Ni 1.648487492200288 6.697668619296356 5.019162084807634 0.499960522793739 -0.5582168353324709 -0.9910826213602415
Ni 6.200906572355167 5.6613717019295215 9.06757624114139 -1.2213987001141222 0.51473459577912 0.9165543111343634
Ni 8.73198295559328 2.4727448544369404 10.132068546246993 0.1497328205831744 0.8961060705823406 0.21512317306352627
Ni 2.4211760067681802 5.156839379754314 6.9261955002531135 -0.10133334623386421 0.6041501075294756 0.49396753843509766
Ni 0.7258036178579563 0.08296947394155973 9.039768459421891 -0.42449221725209474 -0.05597908646878101 0.19909851550049582
Ni 1.4450442579189555 1.1960505083054913 11.305729587420817 0.08590852703836173 -0.8636338089862481 0.13058864355455574
Ni 4.1252990327410135 6.740786384905688 1.7042927738079692 0.4465584530235148 0.03461553319134038 0.30324130615869704
Ni 5.6638044516523225 7.959267208752371 8.177152625156744 -1.4714906759433495 0.24835185320966904 0.2069838317858435
Ni 5.499566613090295 2.568947397579612 4.839618801067946 -0.8132908377573218 1.6972227348709736 0.2693505669485232
Ni 0.8283993909624497 7.497643871426701 7.195669734659792 -0.2183488790896756 0.4232223494007356 -0.5498345248060467
Ni 4.888583335693903 4.627226134130983 6.730311037218705 0.5816156738723853 -0.1281808054440115 1.5349511583908404
Ni 8.381503601871957 7.32575376414706 9.46216189198254 -0.9727701962042988 -0.6792412322373592 -0.5634485160450554
Ni 4.480017543628557 0.595634260581904 10.455070536494746 0.3605905335021274 -1.2050683383852148 0.6461670753912098
Ni 7.9969112874854 7.040023678234446 4.668564724569909 1.060245296398832 -0.11511960138467915 0.49505845750643135
Ni 7.325072957321649 6.211599778226281 7.06558933614226 -0.14600497810962595 -0.6648176006128615 -0.2750342475968618
Ni 2.5106612559001356 4.990450191623989 2.8293950412237825 -0.7609758304036893 0.7878605706096754 -0.8985491328061944
Ni 2.6018893705051416 5.2982111864068875 11.434999371944894 -1.2159685302374865 0.22167074437405695 -0.49810804296603245
Ni 0.9401851484675509 3.288696373403585 3.5418421369096187 0.7729484293845333 0.11833913676324136 0.24316876634683285
Ni 3.5362921996688725 2.3965217222639814 2.531741758442146 0.24723188067261292 0.9067668927302964 -0.18863592540627513
Ni 1.1057029038613497 3.4818548859090495 8.148336341593202 -0.3267175349037663 -0.40693312532240883 -0.17151212124179496
Ni 3.527922814428493 2.7252697221182003 7.110747706742956 0.04236123857503027 -0.4808299726118751 -0.32104233889586
Ni 3.9948292127193468 7.230758518441449 5.8946388138760035 0.4350571372521346 -0.8943806032508017 0.3143232750044716
Ni 0.832071209107497 7.368898762029407 11.475786962726454 0.5865341942199254 -0.16792697499369788 0.27494117366242327
P 0.14480216531020842 5.592728219079467 8.006418073995434 0.792804544878512 0.7829196816646323 1.419864981347258
P 8.634482340770157 1.6018567633718388 8.063985283667275 -1.814677926367365 0.6548057249028142 -0.2832854318620605
P 1.7725486506387573 3.5813797663597247 10.265124524462786 0.4150228443090788 -1.0475129364338283 -0.022798485951754283
P 3.9981969371490442 6.147295304210176 3.968008147025475 -0.9651473895517184 -0.0448238411829099 -0.9768227690071178
P 7.088869298601564 4.229444322180141 10.53873080242849 -0.1953876423078119 -1.366961191369691 -0.44935658459394223
P 6.347506975426893 7.877443305762367 10.324565314518157 0.11824272039469313 -0.08625202642070953 -0.20788783165735167
P 2.316631310658145 8.709625259446797 5.768929195177606 0.25431629832322006 -0.5786599336781713 -0.24100364037471395
P 7.059013649951229 3.9737332785559603 1.742303580484288 -0.760433327636658 0.3679919681725211 -0.011589761720128428
Ni 5.3492807757370135 3.0026848873364678 0.5426103017916333 -0.08850456990031208 -1.0295285840412658 -0.7074971417592589
Ni 1.2087952120771759 1.115034496081643 6.788050717952985 1.2928218890521153 0.18031069337003142 0.8986668893309813
Ni 6.853972788986266 0.9905830083966048 9.405723913898443 -0.11104980219067971 -1.070134530488086 -0.343174394908209
Ni 2.6759248434124476 1.6902708764318148 9.22587562870097 -0.22275883523191314 0.3464132135604808 -0.5269511924499699
Ni 6.390343340881721 1.9409984140939907 2.46555190339087 1.1470603944118631 0.1748789808314988 0.3266046634749859
Ni 4.225722578201231 6.984115821731736 10.275381106223204 0.29806464705376406 0.41413349972559 -0.061880282444564394
Ni 8.224246302626472 7.209898597310871 0.39567403401937146 -0.6819321488059611 0.0055152733912743725 0.287603342511124
Ni 7.666275183368711 3.8800270271064607 8.287451500555148 0.3253543360076526 -0.2637023675238104 -0.5100513313708377
Ni 3.3083489970971005 8.273645645878258 12.621787276455066 -0.02015410635037174 0.767617246979607 -0.9163074852308799
Ni 9.275766060609484 5.111706425941768 10.237583619018848 -0.5152922680548029 -0.44647489217077296 0.49356156124593065
Ni 8.630860448458973 2.238865016347589 5.690609177982383 -0.029288207441156008 1.3061651431282406 0.14439315353781584
Ni 3.4013744417211904 2.621433065106592 11.359643133796292 0.9618021272285694 0.3597490114374385 0.7480879186974277
Ni 1.3319758603547809 3.5029962071941303 12.574316885875279 -1.2417996323679774 0.1501555099428898 -0.3107985496806647
Ni 3.1158259042953524 8.591446271979876 7.998951892476764 0.3596150569627355 -0.2349854592050921 -0.14921037242080107
Ni 5.625996979281192 7.719677670753909 3.7166025257651905 -0.7172184828120809 1.261125586390099 -0.3954310382200803
Ni 3.0135687191186964 8.355905265236522 3.5819253195624867 0.34335231524696996 -0.15212960295012512 0.2778503768894182
Ni 3.557569682319035 4.3633454086018775 9.264523670565874 -0.45842846498822337 0.7893816352398921 -0.9964870802052644
Ni 7.112888163402046 6.055213911717321 11.661136167073243 0.4089920647339666 0.6848369811575818 -0.9911679819851963
Ni 0.490244456265926 0.09388779993627627 0.23592407405045032 0.10700365714576411 0.028348726346022146 -0.05799354579564851
Ni 4.4320161237249485 0.12936691296450173 1.648227877864198 0.6479874164294002 0.12239093823511178 -1.3344207955398244
Ni 5.89070375042513 5.368479528213589 0.33386675943887145 0.041740574271895856 1.0779434850095435 1.014463462178027
Ni 7.987915559965643 8.738001287929908 11.466606055750184 -0.25984622700251375 0.7521597747739562 0.36153824212737734
Ni 9.191709111232138 4.9701439933780795 5.989923629418021 -0.4347172374142126 -1.2693343474531367 -1.283325776636222
Ni 7.916448998146219 8.78195417657841 2.610087192425518 0.3132562671925379 -0.42952900834505375 -0.050978805040712206
P 8.571603022375244 1.6048704682523227 3.4616757716038826 -0.708566720674354 -0.21513345747617146 0.6593792032061095
P 1.7982468389419188 3.171406973521865 1.3783142961195205 0.5886134453464572 0.2898114059060364 0.9831186293181583
P 4.720070030268297 1.2114004328624133 8.358038459956141 0.5522001968247457 0.07766454186201463 -1.346420648214178
P 8.676774060764657 1.7058295817485292 12.221528235402165 -1.290945497965009 0.02970138371917466 1.7358854415484941
P 6.303581319051409 7.622630927147728 1.6061649089630363 0.0380870366797086 0.3111101673838126 -1.1473483579659272
P 1.6507386934363122 3.1910051326693485 5.854329603357099 0.4397843675244749 0.39943347451125405 0.3355708715293382
P 6.936795208653537 4.002653952499398 6.108233331795423 -0.0880011479013323 -0.4783815110713826 -0.04483155449239375
P 2.3853837226002663 8.555998929936836 10.232056375338948 1.0230530036192511 -0.2897319588183527 0.78595024096084
