# total energy = -340861.2821057717 ev
CRYSTAL
PRIMVEC
9.40407840998865 0.00000000000000 0.00000000000000

0.00000000000000 9.40407840998865 0.00000000000000

0.00000000000000 0.00000000000000 13.76381933183423

PRIMCOORD
 96 1
Ni 5.544202721517553 1.8142724502225456 3.785201802566067 -1.3757533357400242 1.1357416269649343 0.849367271764905
Ni 4.133327624785223 6.9899481415140965 13.286627612306011 -2.3724844136352945 3.0862324214002723 -3.3925189421431954
Ni 4.081642809073216 6.780688585614613 9.005088888345766 -0.04497476493847738 0.9139477267494518 0.7416650458902194
Ni 4.306842278115322 1.2664284502009588 8.1968083369544 0.7382758177030124 2.3666894042200726 -0.899290124737277
Ni 7.329905581104532 6.641009806908203 10.887140294311163 0.20384965703223604 1.284159328281111 1.22097446809251
Ni 1.712191177559913 5.888222723041682 9.403977926579005 0.2658240418525035 -0.38776940790976444 -0.7047026097332574
Ni 2.515581608105164 3.3448520628206198 1.5886065388843484 0.37353732347078245 0.2503205469002657 0.3583709001429893
Ni 0.963231553663332 4.18977090424364 13.5324220133731 0.38448816605533137 0.7031879728609438 0.3484366717484128
Ni 8.15033620198278 3.1676039903060826 12.75906068645441 0.10637553664346196 2.44105702049837 -0.03046602979934108
Ni 2.312359470634921 1.6554469675878885 10.021836231814833 -0.5136403342736767 0.4183958745463698 0.6231736998198301
Ni 6.984127016891511 3.6780573740119964 3.036642792415726 1.8082676519656473 0.8300359184261448 0.18359090678319995
Ni 6.895615829576845 6.384532372608067 2.261587790950141 0.5178152915869727 -2.090102981644742 -0.6347074114910424
Ni 4.907753493395798 6.046784891476934 1.109155580934943 2.4412930477685766 -2.1203844062371027 4.13294574475094
Ni 8.4896541642318 8.108074272978094 1.9174380131420183 -0.40477108467408357 0.34255424482570684 1.4069397886451576
Ni 8.293550914224072 3.1716289359255763 7.360628705728098 -0.022432617971903303 0.16591971475568199 -0.9915199660079763
Ni 7.295402016903776 7.618864702717127 8.676188764314679 -1.7904033700907165 -1.1957213499526762 -0.35323949245369485
Ni 3.2563690877416045 4.982008097628331 6.120027616857463 -0.09665316714937548 -0.22941902086090812 0.28232332505910734
Ni 9.10959923449792 8.66788026091556 13.488776744413677 1.3552166492392532 0.936838001084064 -1.127203507586936
Ni 5.3083484314780485 1.2846159381170832 1.4618687126708954 2.084023865330198 0.05767010101795875 -0.4345568005769484
Ni 2.388692376227053 9.026617645370782 12.884986000281124 -0.15035862709263137 -0.21018434100101224 0.23417041950296444
Ni 1.5530459562545482 1.7468734192531226 3.8643850843667704 1.275877804998609 -1.3579067944769065 -0.5123041319607564
Ni 1.7520174502200925 1.5612651209074402 7.6790555074778055 -0.5922836951091929 0.6449905385846053 -0.16525019949248315
Ni 7.992742653638202 1.0270570347836718 13.421348560800746 -2.8328270649270957 0.6279379539776928 0.11976969856218082
Ni 0.1028655728137209 0.5819008704912068 11.378522206717234 -0.08774712290899726 0.7206298224864751 -0.7267971276394515
P 0.5264215090841868 0.4583848815890588 1.9568025455453821 0.03145333341327486 0.16521137583474774 0.606216246029885
P 3.8045986549837503 4.990048584788769 10.114314999869837 -0.2810565425315418 -0.47729881953016506 0.21577880436965416
P 3.790567769786823 7.943766212548659 1.4670851550427022 -0.5071457276882685 1.4205195842121214 0.4786555906683757
P 7.51449823896679 5.455785574988389 9.079385810931775 -0.5295978860441977 -1.3748249103884838 -0.11039365666391955
P 3.699997089269659 0.5842960892979476 4.424902961050488 0.1558934408679315 0.01119509738487104 1.3095525715432348
P 7.140855390009469 2.6855885401360324 1.014734870659319 -0.93307467738689 -0.7920141877667328 0.02997752019869676
P 7.076823019161024 8.74628206378874 12.037340916486393 0.45716708177729654 0.5514599762246115 -0.26659254458741183
P 1.5343694562538126 8.199886291863887 6.239469758931655 0.4641072605405556 2.9735584533426076 -1.8612897126886332
Ni 4.93098156741484 7.632274918729739 11.253257999612599 1.2751589245547137 -0.2413286278143005 -0.47204374177881286
Ni 2.109193757635979 8.526687425562564 8.519721824580417 -0.9675143471219982 -0.5353836394880392 0.48762179872272793
Ni 3.2814121489208388 0.7229752144544694 2.3433449690500394 -1.0807488156688225 -1.2228205201623135 -0.2504429314107429
Ni 4.618446420876846 7.375882121136555 6.823744218848938 -0.45707760738728376 0.03880514579265575 0.5037282173662873
Ni 8.827937677840296 2.277743057491563 3.1837094152311884 0.817202256996586 0.7614232023537532 2.0400837123038222
Ni 7.70130085528835 0.5637096209436621 7.505741161020826 -0.32787633109855796 0.4293698570593702 -0.18153376714385508
Ni 3.866411663294343 9.255437684654725 9.838144484677683 1.5222609645176814 -0.2679187195980031 0.6620431231915178
Ni 6.753661263861282 7.460847970837788 6.020308648726645 1.8191681009282348 1.6572474800296166 -0.4664701043457773
Ni 3.310433135326816 9.269722479972508 6.65976153953734 0.09193313596588684 0.7327538594435187 -1.8674603602757194
Ni 1.377067434344291 7.769527445170192 1.274797139702799 1.9232080474599844 2.3994275178830415 0.3528075471225989
Ni 7.3430148666035375 2.220763745555783 10.771895192493933 1.0446800949707236 -1.5554094262451923 0.05273769671334789
Ni 3.3767695054200644 2.5170110280447973 5.905917437241776 0.45728663807429626 -1.0013192114865852 -0.4408076665826667
Ni 0.11790833686265201 7.821936374930567 10.11264953755859 -0.3736851619025564 -0.06613031597016998 -0.9631774103095411
Ni 5.095872680714389 4.640339115741757 3.7699925863267976 -2.0051033395738953 0.8132399299147284 0.3858508507308129
Ni 5.2350906595718385 3.576192395156019 1.553027148097448 -1.4246163799893143 0.8120914181325821 -0.6431969370192923
Ni 3.0340002463431146 6.938968631693356 4.9027279538185615 -0.06286064407996271 0.8927006444452174 -0.11670160115981836
Ni 2.37617554767671 5.4091601535364005 11.93975573377862 -1.1003735318782855 0.7821936021318852 -0.6195417594941975
Ni 5.5595877940257115 0.5084108178448065 5.840181047360031 0.1260997545452667 -0.6705575884204322 0.41749418866770677
Ni 9.366838399160624 2.8851430869716896 9.410020987455376 0.8584286106362247 -0.601785206841725 0.7670413198714789
Ni 1.6716878112441176 1.9099401413139283 13.104325787978587 -2.9101151972862978 0.22109970236193535 -1.4247714175099397
Ni 5.429736277404282 7.450813819024703 3.7015591067168505 -1.2207926910990072 -0.5130260977284455 1.8806467770590065
Ni 6.735351522924004 4.319735269807674 10.929064616895896 -0.3232573442693078 1.6132373929972539 0.24853234465159135
Ni 4.694074020577711 2.7482385114375947 10.496935922619052 -0.8598684284065449 0.3166120710386483 0.208970266088253
Ni 8.117685241256419 4.664789719972327 1.0495638159779122 0.29047655029386105 0.4733552615013848 -0.13846033299314864
P 0.4988995327991144 2.957940059028939 11.633592790866256 0.9071962669582312 -0.49692225018804737 -1.31571267760736
P 0.5860546519868386 5.876072653554799 1.7704127682721769 0.6172195391189241 -1.5489978662918935 1.921769001020613
P 8.862478858355253 4.497857921627381 4.305570846695333 -1.5708573853691463 -0.6613643519569384 0.5859513251332619
P 3.233253862665165 5.06722785745042 0.2058562198721597 -1.1162567787674453 -1.8970588998684423 0.26944775464801984
P 7.70686806979008 0.8550761866651126 5.153490529583729 -0.41556868951021986 0.09267875588265974 -0.5007953599902085
P 1.3543189683313102 3.8243001995464603 7.774066793886383 -2.6999149154456856 -0.4782886942472601 -1.0257848007281172
P 3.702799504677624 1.089744622399435 11.677857788602138 0.27460590181019157 -0.09085764351352095 0.7996490786041713
P 5.6242408340584715 8.929464109868466 8.242724690883703 -0.5591840843417466 0.007912312868541212 -0.30988786494093723
Ni 2.802631701772064 6.220337161121234 2.399116797299971 0.25078797345498743 -0.9226141441751983 0.299821996064503
Ni 1.5579642893363133 4.951407226025917 4.146006203486629 -0.6859461550613606 1.8009094118283628 -0.26792669001780306
Ni 6.70902950706194 3.824140330211106 5.4768713999136915 0.4949990650234055 1.1299160214220927 -0.596067073411025
Ni 1.2381503860004488 8.460012508641508 3.9689208215310106 0.49449692857600636 0.7566363224880711 -1.017934451445763
Ni 2.568216235750743 7.740826197434922 10.891338274975983 -0.14329246427446934 -1.0979214707933673 -0.5368193434933013
Ni 9.442823353846396 5.039551654277124 11.238406138358236 -0.865635155686993 0.722719100915336 0.01583773836320498
Ni 0.7108373702697011 3.0954182833545976 5.523337892438181 -0.00719266109369729 0.45840429661850723 1.305943771146054
Ni 7.3183761808019625 0.7433181171743043 2.9235455821393663 -0.07412079037481428 -1.8325409226907152 -0.5029908249796305
Ni 5.189584323467326 4.9904059397736775 7.862457608995607 0.9283651877263625 0.4678649278107748 -0.8899991863536544
Ni 6.353263811428587 3.1570714223298366 8.919230591590116 0.3778094684835751 -0.2493417279267641 -1.8025238075033345
Ni 9.306332557768512 2.4673574932996387 1.0606371184707954 1.4391708807647214 -0.766431454201622 -0.461770899097895
Ni 5.92495505385884 8.519446285078896 1.77440385920889 -0.33924523505713183 -0.168838945285006 -1.0864399525163289
Ni 9.289602702027672 6.561366665666394 -0.03300267326414029 -1.209199586944769 -3.4635963177059965 -1.557560925370556
Ni 9.358365324386876 6.8892304602412455 5.228007507607813 -0.564449446505744 -0.8956854381051542 -0.24810194198239208
Ni 9.186834931630873 8.01061040288362 7.703899202191776 1.7597565917391371 0.27730093214385143 -1.237687667082133
Ni 3.262086767500138 3.6649104721987897 8.348637185147695 1.7017067387842564 -0.6532376090847459 1.0970496097113753
Ni 5.9071719413203745 2.7484359970871495 12.606130620662885 -1.3839757236498167 -0.8542407978071224 1.2204142247136658
Ni 3.4942452546694063 1.5314165755890434 0.1610655341453193 2.884013872213556 0.23663585032432152 0.09848096438673362
Ni 6.877719868095777 7.2364196362368 13.596864402046334 -0.6711625689942828 0.34110157153958026 0.16487867508567733
Ni 7.131592372637503 0.08908295529051921 9.979650475846404 0.1542150247242441 -0.4551402811552549 0.31614824402835234
Ni 8.175981124189228 5.843666198870742 7.041184382679258 -0.0023659291290152804 -1.2952366691411952 0.6968535460024837
Ni 0.34055177735480857 0.6309882797076424 5.781753507327517 -0.2356979118910844 -0.05026429547219085 0.20068514326132533
Ni 5.278377633138498 9.254346811542899 13.129954723251501 -0.6584705753489112 0.5624393580542507 -0.024586945310744752
Ni 4.569827334772211 4.919433358955171 12.19826727026917 2.2758451304429905 -0.8537795418999876 -0.4357366798176625
P 0.8254580412711964 7.395912808448522 12.00272544375089 0.5708522647082942 -0.26771688799984217 0.9340444974993268
P 1.3717353218063166 6.331878936805388 6.9891158805624025 -0.35011174545799056 -3.181339069998134 1.5298760578607782
P 5.537431784961395 5.837628780441501 5.618666096293901 -1.2797627418753121 -1.7776234447172288 -0.33837928751241075
P 7.606394894559535 7.337983684579171 3.9523216824820184 0.9345715736473905 1.134247816028227 0.17671449137834083
P 0.20416066450955517 0.49637641852409053 8.977492619840147 -0.29395602420202926 -0.026081527578400245 0.13853258099198076
P 2.9238032538916423 3.43828158321705 3.9091588427522206 1.5572739902577568 -0.1336433712204795 -0.2278161951501625
P 7.356340445909199 5.3703683295167455 12.797558162815442 0.3214655424762077 -0.8838015421833747 -0.6639660512458436
P 5.994827357486971 2.410340565049658 6.811810443168708 -0.0582596549728416 -0.0667044433060851 1.9223639542921345
