# total energy = -340859.7515648869 ev
CRYSTAL
PRIMVEC
9.35748478939748 0.00000000000000 0.00000000000000

0.00000000000000 9.35748478939748 0.00000000000000

0.00000000000000 0.00000000000000 13.69562485834174

PRIMCOORD
 96 1
Ni 4.038503159225603 3.222801878135527 5.5732429065514975 0.07353329330246046 0.8784883575005773 -0.26514475639729174
Ni 4.359960824151867 2.7449806472639917 12.684599869338514 0.35871671351818224 -0.6728245300777381 -2.496633472212094
Ni 8.426452219508068 9.245241470482162 5.197379891011086 0.014563499636471694 0.21549186925685468 1.8172698554642572
Ni 3.9219182598771813 0.5143434928634193 12.485232111890273 -1.647864239042504 -0.45571929358717644 -0.4480185825088091
Ni 7.494437406119984 7.291445494926043 0.2975811074836579 -1.604423908470682 0.7923219488151386 0.48721967818830286
Ni 5.1984850099301845 0.45598834804307836 8.221195797065848 -3.509379437478382 -0.7680800455486385 -0.604936607986513
Ni 0.24891938085378418 8.768019118618437 3.5091614902103534 1.4671601668887957 -2.748317218008473 -1.8194079848531826
Ni 9.347743355662564 5.4419854715117415 10.455253112050082 -1.2880859170290269 1.9549709416938783 0.9892532814609867
Ni 5.536720644559613 8.95798541139252 10.493436327540188 -1.2644795904639963 -0.02553054017093668 1.0372442075179684
Ni 7.899775562077571 6.732242221383892 4.670619016220116 -0.2879779522417234 0.897048637001268 0.258331075909568
Ni 1.7264652471854185 2.2372528959399687 4.804739841515961 -0.41223242604813515 0.26154752596433667 1.7958559085648553
Ni 5.189922911615407 3.8807921155127607 8.459061181483298 0.11809256797007404 -1.6509385070924536 0.9587491993348586
Ni 8.051441670805335 3.3694617326573835 9.486082534969665 0.6426991714472673 1.6578601739129513 -1.1374814924741765
Ni 1.3987754975841362 5.267889472444611 5.585335583767002 -3.248013174286916 0.20592170906991633 0.9350035189784864
Ni 6.856125958639992 3.779450558409991 3.6427620393681632 1.2468433654394722 -0.1693534230275793 -3.0794902175804317
Ni 0.6187234251823724 0.06261654326028555 1.0050228431823145 -1.9148599326056057 -1.0204016820393331 0.15836992743288208
Ni 3.689534489878088 6.072314984715773 10.30354676613898 1.5864968916786162 -0.8199096286254203 0.3530091216104436
Ni 6.767220498433767 1.4142808493957049 4.92727516525604 -1.875943715156382 0.9181923609584187 -0.10517817390125112
Ni 6.696496630605259 2.632896697958639 7.150814667665619 -0.466031731256778 1.1769602672950892 -0.04573632569485027
Ni 1.5786357071014339 3.271891241806914 0.6334857927248775 0.7103814052855896 -0.4546175758825654 0.15762996394306403
Ni 7.838062951819698 0.25999489950446175 11.35971200509133 -0.6061139161240658 -1.8766533396288971 0.6260052557313542
Ni 0.28895350677740184 5.23943336208916 1.2196283283855118 0.7107264473298339 -0.8082468475755112 0.15440271525501795
Ni 6.088054273639767 7.385825083563027 8.68060149844724 -1.2953099455812918 -0.18543181664668065 0.7792620303073869
Ni 2.498261211015458 6.848153381848527 3.929795390326776 0.3759071092545397 -0.01349057828726709 1.923312691358649
P 3.5879028507559108 2.481932400568151 7.565969760609034 0.5683734641504985 -1.1310766173890971 0.06665559234602068
P 3.762653873737833 7.90742062691164 8.965032532967228 1.2164102457605954 0.16977097018097215 -0.08414809270382928
P 2.46750315947374 1.0747538819056874 0.6508776134110462 0.6365663190766521 0.718256437158292 -0.8821976880313646
P 2.1689526165961905 9.14705338565489 4.689464054248672 -0.2235417361445247 0.354051446832029 0.8883007156053089
P 0.8204052885467299 5.203023389911241 8.385543168783979 0.3766614709220609 -1.2319026849692396 0.34116610622892857
P 8.884875385017272 7.079170959111055 2.0188173923321395 -0.3903945042374373 0.8105168745566105 0.35325183374886904
P 3.311651193434769 5.425469511374494 5.326078054040905 2.513422775855291 -0.5145394490491784 0.9783222363707798
P 6.241161434980073 3.970230952335316 5.470443453364091 -0.7892942177324084 0.370337328476246 3.128718615588941
Ni 3.9888429889998966 3.5294466451030018 0.9781528264491103 0.48765445173287625 -0.026275645867077323 0.5052030021396009
Ni 7.803346684335739 0.8106182955112926 2.6089069149536184 -0.02158158282551767 -0.886147673818048 0.1294866687396286
Ni 0.2965162257478966 8.962907448237955 7.5852667651387975 0.5865838165109382 -1.6501046983372487 -0.8434025695410378
Ni 9.325397682683668 6.498744910729653 13.070693422679524 1.0290629572587566 0.03852798087186913 -2.508713029084447
Ni 3.735825965684865 5.765960299767706 0.8551730221954226 0.001104031697456163 1.0426388961709785 0.10736541136055702
Ni 7.448239505158177 3.4618013896740156 13.277578983172676 0.44193175288478087 0.557711356450962 1.1148717254944605
Ni 4.67022693761969 1.2828362646660092 1.2452734503980558 -3.06546202162214 -1.5376443889522873 -0.5732924987186707
Ni 2.5422039582134826 4.432939845744157 12.321610880969109 0.09556790450499669 1.276315920977292 -0.4487690875215884
Ni 3.3801573374374816 9.052205922793055 2.9806610590513865 1.6272411634755135 1.6388126703631969 0.16605624033354627
Ni 2.465977889500725 7.495410584507675 6.547618116509159 -0.06727651375947123 -0.008463557386320908 -0.5521852844264103
Ni 8.859993833739685 2.3788971387714204 6.185423578573551 0.391877516540867 0.10651566176575204 0.7987890445967211
Ni 7.240353629572293 7.446826524999127 10.953322067876277 0.8698725908071083 -1.1048187121338329 -0.15864349280924292
Ni 1.982420520632515 7.136653986376273 11.517006640744055 -0.4813915015423 -2.235150480937105 0.9945232716106742
Ni 6.271124100339544 5.679029268790353 7.2357815626470465 0.17631519905739312 -1.0562235768339487 -0.6085968304469197
Ni 8.191841368198682 2.293912464569449 11.552286228794735 1.2592581941640573 2.9376625107769474 -0.08237711684633554
Ni 5.978899216981984 9.542669115220068 13.306038836521925 1.585502903196463 -1.077128445307416 -0.5654058968817424
Ni 4.260125822053118 8.180743391585212 0.6529278382643442 -1.0841398436282426 -0.8750387083890802 -0.8070032049763973
Ni 4.986949715390461 8.20587759494422 6.261050768278498 -1.0475018806902345 -1.7359813436964104 1.6888059715621881
Ni 2.7657636203318825 1.9949127624360419 9.608562649551212 0.13200120763136622 -1.0635530206158263 -0.6752693920738048
Ni 1.1282693357441675 3.6019765074394345 10.045507580894398 0.8823792079145512 -0.8822529667493322 0.03982715929926689
Ni 8.86856528953896 2.9735652785572935 1.7521908435646367 -1.0007656529759603 0.2496096368761701 0.14288185909961199
Ni 8.190288025772178 4.737750545750216 6.042577834732681 0.6207198389626988 -0.012587349746707355 0.02410974856401009
Ni 2.0203931927214382 7.602675429297061 1.977141027879294 -1.7108251561457568 -0.5445689055317331 -3.409632976115663
Ni 6.532684507000358 2.374789203077227 1.4833184985178485 0.26440916378284784 -0.1434287327420175 0.6393785917144665
P 0.27085893900550656 7.385076484803266 6.0352509243715105 0.148684324714002 -0.20990126254295463 -2.045212291779639
P 7.870102978737509 0.8956375924059033 0.29291359421654234 1.0497032592169278 0.48880064952217755 0.356892772935566
P 2.067451982256972 6.711973909963338 13.602042272119384 0.21490591484639762 -0.10943283541254703 0.2586853739251932
P 6.046769052038898 1.6072976821158182 11.472892651579734 -1.6389525383751706 -0.6865557636209015 1.3005922770261535
P 6.563508060933555 5.352050688010844 9.661523204559018 1.5086384886382405 1.6659768894828149 -1.1525574129706926
P 0.1140939369753138 8.260113575088969 11.150032299727366 -0.38495456416878865 -0.9785978586296694 -1.0335104515071492
P 8.813693000448412 1.8412909394483996 4.190395719078195 0.2864484029710744 0.5440192036758502 -0.6539289787248158
P 5.2300010177161615 1.292830058108831 3.3045217259964867 0.5087297843459367 -0.23642810518888957 0.41630119680087013
Ni 6.095980063008747 8.28639874904111 4.364261524026699 0.06418244821517978 0.5976336465671966 -1.1809573042696244
Ni 7.882866587591448 8.89032144099454 8.925547691383587 -0.15485882895583009 -0.3045649100661271 1.9837570126876354
Ni 3.789434994368316 0.6909089320893147 5.961130289670584 -0.699603340833479 1.3308639314265016 -0.7867524251471611
Ni 1.816446818108801 6.903914631966293 9.175342932786293 -0.9879559028058017 0.8418892182203049 -1.210306703966019
Ni 7.203999802301355 7.856899568112207 6.47227820157827 -0.35696347827250136 0.46392162689231065 2.199069933164464
Ni 2.6304450370204187 0.07848309397343939 7.958650983035947 0.10211033360920478 0.841575286524312 0.6009423992254553
Ni 1.6436702243557504 3.5421166791119725 7.284415216823429 0.0334222842141876 -0.8608109948254723 0.028694025500582837
Ni 6.470812819506036 6.2400666092939225 2.74945165335667 0.40549305044177264 -0.587049443293447 -1.0794668636326055
Ni 6.573520569345371 1.6986267308067722 9.440723064618792 0.8905928540735952 -0.3674592355975026 0.05822880173490617
Ni 6.070293768064416 8.573355368626848 2.0484544172311137 -0.040342665483104716 0.6426642044442739 -0.6218500959123999
Ni 3.740364345665922 5.375659621396836 7.834581967586805 -1.8535236955899692 1.6826340384235217 -1.3754622868621666
Ni 5.989061445145751 3.69927563123949 10.741929942849358 -1.2903705992981453 -1.1356824915922248 1.1725649664408708
Ni 4.2754533816592435 4.6370546550777405 2.9632673668683185 0.4795562481057742 0.8638626371676026 0.933023255323664
Ni 2.452184957352112 9.078603386559159 10.56159998761031 0.9808779129130979 1.1567341700562015 -2.2516374228485354
Ni 3.1255869716959443 2.5278870069330357 3.017255373673898 1.6731816347613702 -0.5216120396252436 -0.5402635932881598
Ni 0.9926981003512843 1.3971379377971571 2.7750481164498297 1.0078477566337223 0.46111758178461226 -0.5074498891922486
Ni 7.092533446972805 5.447571889756465 11.991025925664449 4.197147733350146 1.0925265250300409 -1.5331884100634627
Ni 8.815498994956338 6.663885797133132 7.751901106068001 -1.413511014104772 -0.8258241943376423 1.7314685434277215
Ni 0.00037149213453185144 5.618935503350465 3.6037572367392188 1.6678540519008695 -1.8940823337386217 -0.9859661260692825
Ni 1.429458689249878 9.176913118684894 12.53479683577411 0.15905024132935836 0.3916510023523577 1.3044293913840566
Ni 5.298507161718873 5.8953743103615475 4.824777023069438 0.5548466333086574 0.4860675668617307 0.6670133227125996
Ni 0.3979288997328435 1.1683567993294182 10.174082225128856 0.7169114930946234 -0.5400640756828441 -1.2343046095425128
Ni 5.42683570411106 4.758814243353017 12.841661503627263 -4.143509379199399 0.672392841856958 2.6815071023624593
Ni 1.8677164756679951 2.156516519699646 12.203992915332217 -0.075371889173096 -0.6554801252620195 -0.5789797789114352
P 7.045540159828751 0.6079061731038128 7.395158238600359 1.3540933342680874 -0.5379190043153833 -2.176008680469627
P 5.309184051529978 7.1807464533262495 12.335032320983192 0.49293575473647366 0.44076652893208607 0.45263756933805915
P 1.2886191900851702 3.6831058980286326 2.9127856095037736 -0.4761672770288831 1.2428003057183499 -0.13961604386414664
P 3.6524788512698727 3.7784118776308215 10.250887522131979 0.2563094174938489 1.3564011564656575 1.3129662252104743
P 6.267287531695764 4.422478178076484 1.236804926928249 -0.7971201415347304 1.414622759111712 0.4957626826623075
P 0.24219322099732335 3.877292416310874 12.445761306533374 0.3189751719541861 0.4185545116114211 0.19378250260422109
P 0.6569609140825615 1.5563461790295228 7.869519071704894 0.8695869412458894 1.8418578292162666 1.3159566752973657
P 4.393498048589201 7.075989414382066 2.7674470317928965 0.6059745623327242 -0.330997650336359 -0.7138241124185514
