# total energy = -381171.277014279 ev
CRYSTAL
PRIMVEC
9.20676709566354 0.00000000000000 0.00000000000000

0.00000000000000 9.20676709566354 0.00000000000000

0.00000000000000 0.00000000000000 13.47503427878022

PRIMCOORD
 96 1
Ni 5.721803073528636 1.093653425380013 8.194976353529656 0.24582497302275727 1.0014613934914043 -0.4554030478983383
Ni 6.1198300197355655 5.8399903401010445 2.7719623272494176 0.8217603086809138 -0.5080371291542863 1.6294520550839033
Ni 7.603629398864302 9.257312040655194 4.365938165079203 -0.2260205367023204 0.33876983808261013 -0.032710602859143664
Ni 8.015484908940653 3.154634227636493 0.08417654900248275 -2.281102522187188 -0.8022623478573022 -0.11571404043556845
Ni 1.0087946549509494 1.6716818710616757 8.290541673175596 -0.8232790593182854 -1.4644024016380006 1.1990833244463734
Ni 2.6427932291301084 6.541140879408384 10.189160220642712 -1.4193967834615877 -0.5341402539992414 0.20742580441926856
Ni 5.271757894390796 8.19706997232054 7.448136312851885 1.1664984485318168 -0.8349922339901555 0.5128335221016652
Ni 0.6602375085996612 8.377099092095944 5.147705917309186 0.07554466730553441 -1.2199431986145184 0.5003968390002091
Ni 0.07604973586830305 5.424866427778593 10.289010369599458 1.9167733475782343 -1.611318064487354 0.2619589024701424
Ni 2.085608903688372 4.984801383949975 5.957649138253942 1.3203370637532486 0.5949455582120721 1.989295683117677
Ni 4.175618641950368 0.8588827110275088 10.157588375622062 -0.8923874840801728 -2.689696580151787 0.1080729789505429
Ni 6.5846428529656515 6.090994425834749 7.949178694472488 -2.0902171386251034 -1.6232631526643722 -0.35547660931432973
Ni 2.133852362194208 1.6491713260145822 11.02352070805757 -0.5716860734634993 0.15330176888135533 -0.3376593786272507
Ni 0.6204421793924807 4.132107461626211 13.073935824630597 2.1452153492378536 1.1271788249965877 -0.8132679549391865
Ni 8.363592765067688 1.021987951904931 1.7976230767092014 -2.200651675829288 -1.6597005695557996 -1.0067941185582274
Ni 0.5721379562251677 1.5592396270288937 12.815646424256498 0.6702943074567167 1.6971898247505093 0.521962738096443
Ni 5.87481953924753 1.5660710480615903 0.8563140230650798 -0.029425761460284805 0.04343673102739616 -2.32485164224868
Ni 3.730176846257741 6.88838329944772 2.3346574721345497 -0.012675024364507202 -0.025983054327322994 -0.19328113748777037
Ni 2.0093216332342956 8.930315301007907 9.515813196667773 -0.6662327357928333 0.05823034439680294 -0.9142030372933675
Ni 2.5515357557121985 7.859282901877672 0.37434622108806265 1.1013088992083615 -1.035079595766482 1.4571665460111936
Ni 3.0078323295686387 1.1411879628352863 13.188433939710011 1.4834177663982389 -3.2902543423443142 0.04341667642273813
Ni 4.503720193624506 4.767254689096081 11.187256612466987 -0.23189987830123285 -0.5421135020127051 2.256555428975443
Ni 3.398585929932131 0.5475696987780638 7.444322870005871 -1.2612119754563182 0.014183747699549767 0.5412933201042548
Ni 5.075349936317322 6.957968043605565 10.405300121515749 1.0082830443989281 0.8466429308552065 0.47459556166638905
P 7.599569214665624 6.678726803818922 4.132901084932166 0.15528408941870675 -0.05755800092012668 0.512297189982221
Ni 3.177540663659875 2.5901121089830865 9.070247109622125 0.2129853007849171 1.124907769574224 -0.48022036405233415
P 4.029148187490568 6.615991894227554 12.709086383590009 0.2818129610815921 0.5542663353251551 -0.8114039051472541
Ni 2.2602428580659866 2.733571950669716 6.847554050318744 -0.07942806152034063 0.5626946685981663 -1.1323580552046821
P 2.6042352893930008 3.0438492016439884 12.963804479087312 -1.617334188774447 2.912555431296674 -1.4630050070698417
P 0.1113484801261992 3.6341042337561373 6.397124028324884 1.3446753833882972 -0.542051281316202 1.0363273521306537
P 0.2499232113007684 0.6090046128845035 10.489748270141499 -0.8522980722584547 0.8704994257578298 0.7085561791513927
Ni 7.963208886536809 1.5027469053892353 9.132313607937249 -0.8484612150108677 -1.3413918275410188 -0.6151685701271663
Ni 8.293713404369349 4.694861881036656 8.375609437213074 1.267678042796636 -1.6943536408532949 -1.5210774857325415
Ni 6.8999101715945335 4.920243534514302 10.314100650729248 -1.029583091428285 -0.07602237827290133 -0.2348967561460277
Ni 2.8501296195025185 8.30367512614479 11.733736230045222 0.5601603322120868 0.8873681764887106 -1.3168557900728675
Ni 5.749920539611999 2.395121993010738 10.14379019408338 1.1651036250668192 1.868487773098969 -1.2026137061971354
Ni 8.043372205851755 3.3153935843102347 4.739183256847171 -0.15917185450888716 -0.28206955717708837 -1.5484522782010688
Ni 2.2694312114226323 8.477029339924636 3.3485057214316543 0.17547316277207198 0.5060496664106123 -0.8134954975689602
Ni 5.073453342337895 0.6321872519145981 5.799776103000349 -1.0866798364412769 0.27166044602862244 -0.5045455710612601
Ni 3.6353747675870167 2.7902303941134026 1.3565452885226366 0.48765702283603757 0.31935029590541775 1.1411879947914862
Ni 1.3961417515649839 0.2069239272157193 1.382403414011089 -0.9538821010505443 1.374279579407975 0.4141324712843255
Ni 8.500055463917594 4.951647816377549 2.884088779177858 1.0732244822673194 -0.04487500613581949 1.948810321409121
Ni 2.4165553463316516 4.052634649828048 10.869542135198628 -1.5295351295815918 0.23806384102009967 0.32409115302451286
Ni 4.18083887877724 5.596867246825545 4.207080926445023 0.23683485370900503 -0.484650631909546 1.1929885244025453
Ni 0.4532666268728008 1.0114922376498445 3.734201124065546 0.39187545965833803 0.9596722253697602 -0.9609248668299386
Ni 7.066709167348395 3.0256290099678336 2.153270354242807 0.5417517477979121 2.2077435496790625 0.9154824182264234
Ni 0.170845369802204 6.921380351983009 8.172877350962565 -0.36284256276109766 -0.13321065455843512 -0.9498231004898223
Ni 7.382510478456924 7.850628541000671 8.893818756377566 -0.06726391535398092 1.2544209206764139 -0.264185477807816
Ni 1.9560881070738485 6.238937962997016 4.008997336797492 -2.4237349842801548 0.9710758392210115 0.059520009742503946
Ni 6.043551956048381 5.745363190001238 12.528615339003865 0.7167816523849785 0.34205879324652705 -0.18051715295388265
Ni 4.0898023677647 0.3266229449115356 1.7705386098709437 -0.926918427977507 -0.48685432442908416 0.5130952604034841
Ni 2.9539175026583 5.143811454914535 0.39140359810595626 1.0625433484043896 -1.218714725524056 -0.8466964098009612
Ni 7.611298635684028 0.8844121549379731 12.472019501575033 -0.6861341027024506 -0.205940992343626 0.2902657198346356
Ni 7.605056447732319 7.557788906516868 12.06721637493675 -0.5820679309184557 -0.7797855069110249 0.3795588470745141
Ni 4.197991085494104 5.155688184203186 9.139172649270616 0.0556327588729558 -0.23449077895686068 -2.448616578013183
Ni 6.300881090635808 5.117121037699188 5.408285961285624 0.2578150555050979 0.0842553077056549 -0.09417359526063136
P 8.067539968939126 8.286532126194816 0.6833409694344982 -0.7692491261560751 -0.21602820137629894 0.7921537986683906
Ni 6.303385331230004 8.620553628979499 2.2166838025539994 1.3977043860898186 0.2547004211355162 0.7782091635628404
P 0.9352970348646727 8.809964444216249 7.142562799081932 0.18403467918883787 0.6663846879896652 1.69949893249966
Ni 4.274720280758921 3.9114120524957916 7.259216218290396 1.210988560524392 -1.118257868357874 -1.2378694440756357
P 6.261908846388631 3.6734171283782597 8.5176495954452 -0.2686761665893179 0.9123076200428675 -1.1039252537852857
P 8.130772043942576 5.352289484381359 12.074950979801397 0.8838575922322907 -0.6842875364120151 1.046856533796752
P 2.1662233545809486 1.826871133766709 2.7342725856300776 0.6092362638031315 0.4234799739374964 0.4822929303106468
Ni 4.396535013486157 6.18508758345491 6.773238869332597 0.3507748329632862 -1.098349302359405 -0.30764303477081856
Ni -0.022968121361547616 7.597304350010579 10.365656703962262 0.8562470296038737 2.031971624719649 0.9305244001612103
Ni 3.2997236670627283 7.574987147068185 5.3134083871263975 -0.15868154513602994 1.1850073059692816 0.963644579753947
Ni 5.5014759350738345 8.480592358711231 12.55452778441697 -1.3716457413295537 0.20066328888445442 0.7084625909963218
Ni 6.213352357808521 3.3690782420483134 12.139132272471251 0.010345604900382182 -0.08730103651051416 1.3545918711710607
Ni 7.513697699878614 2.6159278833438435 7.005926092337798 -0.6074629739527925 0.07069119586797502 1.1189628648446988
Ni 5.448030653274906 4.539967234872116 1.0027798741414338 -0.20692032553775977 -0.9696776733219041 -0.08944867898113627
Ni 6.446090218031618 9.06605987204036 10.486540632556874 -0.023807901052875127 0.9920205597934786 -0.3154581599398632
Ni 9.00888584965081 5.51454033729135 5.626150289597237 0.14574066870464578 0.6768765886599245 -1.1092878036487797
Ni -0.1129016617006142 7.781513341954238 3.04277016856443 -0.3678613561319278 -0.39132447225087447 -1.6668400088140585
Ni 5.6266419309491855 7.000549340473788 0.956638320516682 -0.7817364599898086 -0.39512096317882917 -1.9758871230212554
Ni 3.5980689481470076 3.2244767612672707 4.923884810819466 0.16954882686783704 0.028381379356170473 -0.713325575515578
Ni 2.6196474171675757 0.9148709018415719 4.9975932658675335 0.2684882189482279 0.7111519649030268 0.12808001820008907
Ni 8.397206670984637 2.8022912587398614 10.870511607752189 0.6872124233682939 0.7185528853527884 1.2739728746664125
Ni 5.875307497892722 1.4732484242723078 3.1519854408021173 -1.2497335425030736 -0.3812832859647885 1.5257903178271788
Ni 1.434285386792022 6.36739077465225 12.411328494233338 -0.5315416400341297 -0.4953150536019276 -0.9481644818404766
Ni 0.3708826353838841 2.863396570591624 1.7323231618621606 1.86868163427733 1.2758258687147512 1.3176626022448792
Ni 5.859490272374969 7.8659209808056705 5.204650691203164 -0.17081715205729936 -2.3351550810572173 -1.0405619590372917
Ni 0.14468618303643446 1.4909162099350368 5.940872567626206 0.42435286346075307 -0.42143414715206134 0.42140972167202906
Ni 7.6875859061381036 7.217948727057435 6.275054268154783 1.0807542149854612 -0.4431350291642626 0.6617150504281378
Ni 2.393197778730639 7.0872126372133755 7.742740884548583 0.4721527565528514 -0.4083680579967225 -1.182270623764409
Ni 2.555724834647343 4.6346864526408265 2.70010074963957 1.4217179753955966 -1.7011135852849477 -1.5263266499466228
Ni 8.038069108122869 5.757893599739109 0.9367093529056641 -0.7661229218222677 1.0663524377378346 -2.367118264227375
Ni 1.2799983872422505 6.152900726405978 1.5038139696718358 -1.508235339662551 0.7587826794071125 0.8264330315662348
Ni 1.1569499477516967 3.8252827482358494 4.197271116323273 -0.7897410754618399 -1.7663463291415127 0.09248823713840845
P 1.9088021523246166 4.57003653553625 8.581817998641407 0.5669256759603786 0.45285045667981366 0.2811897256752963
Ni 7.540056673485905 0.12054880227980266 6.841436153720055 -0.11844146666906054 1.3323703407686989 0.6801238919526287
P 4.534848272481039 8.58927824185272 3.777429656646167 -0.8676606707574541 0.9639083749382948 -1.1304320418265628
Ni 0.39723516425435257 8.51075372704427 12.711484746364965 1.4547707920855075 -0.2678546991292871 -0.39872513559031975
P 5.339768281410379 3.814216214433556 3.6255787676156026 0.5302799997128868 -0.28796535383623306 -0.33180446250837053
P 5.3997043338670565 1.3466461727620496 11.930957145635123 -0.29289570125831493 -0.5733837728808965 1.9017164532451118
P 3.8666395451076463 8.010568495421165 8.964050736247808 0.5226571930603063 0.16765495227923385 1.1853407780493004
Ni 5.984895644189471 2.4842342897431786 5.252326092191861 -0.2962671888337091 1.390172853599464 0.07253673371714604
