# total energy = -340862.4790507369 ev
CRYSTAL
PRIMVEC
9.29343835759239 0.00000000000000 0.00000000000000

0.00000000000000 9.29343835759239 0.00000000000000

0.00000000000000 0.00000000000000 13.60188643148424

PRIMCOORD
 96 1
Ni 8.277628212725203 8.062345717297156 1.6714406554274288 0.8333981500301584 -2.161178814545646 0.5150832373677904
Ni 4.607119749665631 2.533549236179916 7.407940833137335 -2.1014099220171296 0.020341282660513355 0.07720662838898962
Ni 5.2718793826450465 6.491401514311352 4.94514254181793 -0.14876402891200188 0.27726673647180633 0.06260713330825991
Ni 5.014804295723802 5.430444024863624 12.839187811059668 -0.9651998400562086 1.1632879120143191 -2.326595364412664
Ni 1.4189686084364894 8.57582676359072 7.576713387852271 -0.09039998715081206 2.2276837402464147 0.3615277006044161
Ni 4.265771765332708 7.4408005718524 2.8483709599171 -3.2226500129317786 -0.7404697400305377 -0.9923465756743297
Ni 2.487732585954996 1.3385153141165844 8.842014995990779 0.02103522340374442 -0.308755551108707 -0.34937178196817253
Ni 2.4518506211439584 1.484041262569327 13.094155146201802 1.719909634945528 -0.5076733180569644 -0.24134431154358438
Ni 4.900792396137734 6.34218607090135 9.155429693187587 1.6229952437149662 -0.6122205432424359 3.3602351424088264
Ni 4.187716178063114 2.090382343152425 2.7436497104790747 -0.3855047802453038 -0.022739607689360838 0.3560520222018255
Ni 1.3286270958936 7.137072425270081 10.084057916397459 2.6496837872042756 1.633264486851458 -2.772605915352509
Ni 7.34603538273607 2.4245557932107755 12.770620824171338 -2.2907552147856034 -2.504727562074138 0.25230878097488807
Ni 8.084278231400768 1.6455147509380863 10.536197623987254 -0.37356689115713726 -0.21726104534213553 0.07526930215696069
Ni 7.14559450808068 1.6903277098396203 4.167468564301443 2.083155603792632 0.21536382831942263 1.249504714321719
Ni 5.9175224132892374 4.213970140920193 6.119012517115093 2.0759387743292184 1.7589631493035645 2.6935810028078575
Ni 1.7132360349520805 8.12175866757868 2.7832722841573596 0.1771261249944627 1.6699039924513628 -0.9814957490027548
Ni 8.249989527579379 3.9517929564384047 8.724072901398602 -0.5762592946564785 -1.4506020054197986 1.194025450307492
Ni 1.291713559444638 8.384103133947699 4.969870522125935 -1.3757618203804565 0.8627048694140755 0.9069802942926832
Ni 5.237261325426421 0.8900623134525959 13.499885282210824 0.6509477846093048 -0.4725276233937669 0.4674877469770143
Ni 5.185580515710238 1.046366791505919 5.642348355513422 0.12249146836871808 -0.25268750447054544 0.07813351107863319
Ni 5.697035592480673 7.979420368421504 11.794345143415185 -0.5039192503311709 -0.9476042384616323 1.1758055848653557
Ni 2.0176240156451435 1.7408840135360837 1.9029309070405178 -2.000064491598407 -1.918753868343373 0.03909465200861654
Ni 4.077626109388793 2.47879229842632 9.963109394554214 1.0580063797659844 1.3214158986397242 0.8452753610837185
Ni 6.054470518302304 0.5753037850950321 2.6047750757313985 -1.5003705922024935 -2.2100349168164 -1.4843474773013599
P 2.3157482190052256 1.288739659227199 6.749242380538588 0.02993612543780006 -1.7665275919143832 -1.5235269757142986
P 7.374315315116279 6.086607227527004 6.05954473554831 -0.36630481027808526 -0.14235349739996772 -0.24257766973005318
P 9.106156813303713 0.1156689196134727 3.0506853917094765 1.873910229666121 1.818898649316932 -0.25043984608694936
P 8.869285660984694 5.79295316793126 2.4332553806906025 -1.606689050355775 -0.10121687526065795 -1.269185737690414
P 3.6502859415809854 0.2717224748359493 1.300951236995058 -1.2713853164448945 0.08759054272647497 0.6871728283796101
P 8.912686017282946 8.137603979674722 8.845483307119366 -0.5699446652923604 -0.4826217744049752 0.2137995691560963
P 6.151661294783483 7.939430703935129 0.5928312095015633 0.7691210852186432 -0.26403969625857104 -0.04663801157351323
P 5.544139947551589 8.657423150806704 4.330092580316825 -1.1451148406497182 -0.5208797894449093 0.9788210303840691
Ni 7.926373423292936 -0.05390008275344632 13.42185199919286 -1.1741065998963778 0.853252465751924 -1.775941686139432
Ni 6.429795312619468 3.423172899350439 10.865458562623923 -0.832785970367456 1.0151728295402258 -1.112738995422174
Ni 7.435317443326498 6.456978619294496 12.88644029748332 -0.45551052001048004 -0.19200458476819193 -1.2881013436479944
Ni 6.241761177933705 2.8722671775080406 2.2904626324064505 -0.5399051815074766 3.4162671936027293 0.23079121861808638
Ni 2.866124214871393 6.81769412879349 8.017563426741614 0.40888433551150866 -0.16061064383794274 -0.4222581857152534
Ni 6.776022351996625 5.0216442662239125 3.7986259431144798 0.9622919223807944 -0.034846932475856116 0.04917106240801209
Ni 2.0591006302402386 4.004979303139666 11.923943997515906 -0.6537055498601 -2.0975272991332714 -0.355423130368575
Ni 4.268076538001224 8.565046375302503 8.733390502517365 -0.5856443354158043 1.8842846309219097 -0.12206440813362847
Ni 3.5359952388495324 8.145893726530833 6.159994720799038 0.5109465894915975 1.6409286882649354 0.008657418564681864
Ni 8.181004335972972 8.386287091919879 11.084666606338988 1.1692590419960895 -0.6516777207967938 0.25990870480933304
Ni 7.088839481118492 1.88818500868111 7.390856705731966 0.028206287230886907 0.7108778853060338 -0.9914880843287763
Ni 7.944198237721211 8.17291904475681 6.759810878436311 -1.0368462007486015 -1.3419443576103793 1.406312953694436
Ni 3.4259237570515704 0.05032303839815795 4.00957769635088 0.4658406982918945 0.8256501306536231 -0.27396518290239913
Ni 4.184184671554905 3.0643532512400626 12.55503071593955 0.5872769859232209 -0.46364600463342087 -1.0775938149796087
Ni 6.366125967651733 5.565273225971765 1.1222300567089702 -1.513930076054483 2.441417746271899 2.8047467617511117
Ni 3.577471853444627 5.139373541081779 10.458925473556192 -1.089943594794213 -0.5277785734472717 2.8629313405116434
Ni 4.641040799020795 4.800441850675527 2.8205278191313274 -1.5751408432358485 -0.08891851750927912 -0.30691335569364564
Ni 8.817158766235897 3.634431336046764 3.1423344910042212 -0.06979542352658302 -0.37820181882598736 0.08304277545479247
Ni 9.145384415859368 4.4664356825044065 6.721902944102143 -1.1816116500241716 0.04363239197797001 -1.5525310762561326
Ni 3.8100587307628966 0.15338540912114307 10.863839645693053 -0.12278791656321433 0.11969822189429709 0.6006716620625719
Ni 1.356479530117552 5.15709612769008 8.325102812321344 -0.5233254227719245 -0.07552409848024412 0.6999722941371235
Ni 0.7566921821386353 6.6633858812611235 6.511617530383212 0.1844033753821663 -0.7808031495422617 0.4059170253530686
Ni 8.633157983720036 4.048825744470532 11.993136432793715 1.4934260425638604 1.2272710997344993 -2.0504935947832363
Ni 8.922918092718572 0.7075103779489197 6.081634308757155 1.4291371506778034 1.6896860601742967 -0.8551908204252175
P 3.5123620255590713 4.777923849966605 8.444989094180672 -0.04896588837574147 -1.7034478898450793 -2.247673038884148
P 6.011395432340335 0.09436928864988367 7.6323178871678365 -0.6105632101446711 -1.1664092312521201 0.024416224060835368
P -0.08726166713020442 7.507527457981188 13.052043789779047 2.533453469253921 1.04362568556428 -0.017537751773447213
P -0.022746619288136698 2.8456786508764997 0.7611994996556913 3.8055481530610136 -1.2280190336441172 -0.22753980156032425
P 5.683606574311299 1.3014809629712893 11.397578528530286 0.3001611245714766 0.48309742848981324 -0.6096918632833113
P 5.646702331300516 3.12481636003587 4.502645705683181 -2.043458799423642 -0.8622672676560247 -2.472169168522142
P 5.591146157863484 3.771147105105343 0.3307804157790164 0.45947438975423455 -2.0508388939377973 1.0689880755884686
P 6.589986306519456 5.778697033763912 10.748591718829113 -0.7658835521179519 0.06498514662213326 0.14869203802348585
Ni 9.103443129355298 1.4690137730330803 8.412535478714052 0.902399102679904 0.04256512705572024 -0.33714284400214833
Ni 4.069605872239887 7.533493324254703 13.75205064574184 -0.6748736992972829 0.7730307046856945 -0.18592881088775723
Ni 0.2929217366671998 1.6545665597249162 12.501439175333664 -0.9272588420360611 -0.2779005134010633 0.1446579771634283
Ni 7.737447118541942 8.583661131976035 4.3592684001375375 0.18351557346057426 -0.8211507001213729 1.2517528869259475
Ni 9.00940282841697 5.913396126737541 4.554359971776809 -0.7071698403268273 0.42958120173922787 0.08809473605640313
Ni 1.8782410298290486 8.555715763370289 12.083534635309501 -0.20022054492008098 -0.559744584830907 -0.034750516107307894
Ni 1.07036244888538 5.054412929244819 0.47139478215389485 -2.408529994404942 1.261329474870789 0.411058203234376
Ni 5.308486235634086 7.101850294569789 7.312292767393952 1.9271667749974166 1.0501166926052623 -3.838639279188027
Ni 6.3554199268689535 9.07218000331947 9.954799202134108 -0.4630009148502542 1.1373837905540478 -2.0526733760433746
Ni 7.826608364436036 4.165161003601475 0.49475941508096805 0.2702309126709475 1.7363343561604545 1.5387101112126405
Ni 1.2579040313476282 6.086049621236235 11.942836627991007 -0.15231883614279573 0.47626343628711526 1.9103412187996454
Ni 7.724594293539699 1.6521223854837084 1.4448471163911167 2.4041097538500593 -1.9587977716391363 0.04022465184800169
Ni 8.760403739273709 6.0837262616913605 10.300191690762748 -4.308361314812199 1.4698166306750364 0.12392203016765754
Ni 2.6142069861397697 3.598354209033957 0.7677476561969648 2.1567711723962533 0.42887517681113874 -0.07161165079971538
Ni 3.7050800530872996 4.695918551470724 5.852714622144515 -0.8665072738793012 2.0647753015132313 0.8350634535477232
Ni 3.211245335105191 2.626864648940245 5.096409047034148 1.2796298158418735 -1.6639691150241664 -0.7217230555506539
Ni 1.2306370837289842 9.048992875061627 0.6875480727393601 -0.9225542374715402 -0.15804159755918587 0.01349957714833159
Ni 0.9209555606488795 0.14882883638173572 10.059560413356307 -0.3003683554862762 0.30238358614409216 0.7443042832852793
Ni 7.281408813635848 6.07578966548607 8.289125125097058 0.23931776803185884 0.5366223969911468 -0.06689599049160092
Ni 6.391571401387196 7.3234987951507895 2.848506644114521 2.118200768322223 -0.8381930003156404 -1.0278928482100556
Ni 1.3705033283304129 1.3231718476822352 4.249038929890524 -1.111775088847008 0.9276828169473572 0.11684018362021167
Ni 1.923732409717686 3.310127517335039 6.934010801048073 -0.09394759529275433 0.5888844396196568 1.0215823326109954
Ni 1.5139940138218457 4.3515316128531065 4.707776049243945 -0.3698148803138728 0.02133552825298261 0.3646433634152623
Ni 1.6701888293046505 5.958645877233511 2.8211672076780765 0.649932455970913 -1.5375487439146875 1.2285538231016648
P 6.070957077632732 3.4165559713666376 8.54225700619874 1.1454817370708337 0.6869231742626493 1.4694124532580821
P 1.7487927294268357 1.9641031051694207 10.925129870486838 1.639582972870318 0.10069751242207818 -0.010444849482407818
P 3.475383435042853 7.140027738611162 11.445864445279499 0.20192724319854255 0.4098474707557264 0.18346749383145822
P 8.563522251441066 2.807194523375203 5.521073633990078 0.563209660561372 -0.4972127848452727 -0.5725939299897493
P 2.467175500701949 3.458571605376143 3.0214138494755147 0.2687319595279178 0.6029460599190455 0.7825065053866136
P 2.5050090875306807 6.683924379637811 5.112731112508797 -0.11653962166065736 -2.5218925038891986 -0.6104246276842779
P 3.0338893608876716 5.93151833118756 1.2025142104540085 0.8750878164594608 -0.37499436763228317 -0.4189815718465107
P 0.5354005495837261 4.461891191234632 10.092884823980345 2.089955914543917 -2.9451410785421794 1.6766677935377576
