# total energy = -381174.1421958539 ev
CRYSTAL
PRIMVEC
9.20987124970006 0.00000000000000 0.00000000000000
0.00000000000000 9.20987124970006 0.00000000000000
0.00000000000000 0.00000000000000 13.47957752198632
PRIMCOORD
 96 1
Ni 3.906698358640895 3.1465616520300537 0.538365774834297 2.046252045898063 -0.2235777315887827 -0.08763425148021682
Ni 7.10464188122504 3.515177530692346 3.693849028944607 -0.6592064250736712 -0.5742530628597271 -0.18419974401179245
Ni 2.489870216984645 1.4133283906595562 0.06698339210250982 0.20199820564579407 -0.044801729695722846 -1.7117975473613554
Ni 2.256851269702148 8.512628546679116 8.18159078385027 -0.35371308965600373 -0.1626824387653069 0.87411491102323
Ni 3.0834556156370394 6.309351096839515 8.69483939837356 0.11830905485625429 0.0992317265098291 0.09870233636892034
Ni 0.469113991493667 4.695689591232372 5.9263503205937065 2.5404874932825665 0.0630269944544979 2.872575548469627
Ni 8.707233121837378 3.093466745461792 13.332677184643478 -0.04953924438070823 0.2733599452182325 -3.6660208122559315
Ni 2.2570538868651147 2.0635637061031695 4.542496280236042 1.022850657800458 0.3203954493404805 -0.00986506571953785
Ni 1.1794437154989297 2.7477650259567996 11.809107558575175 1.3607013265029082 -0.7606493003022061 0.29870716573376943
Ni 0.2641860718822638 0.792737808132148 7.457090752256816 -1.300815191670237 -0.8473091036842955 1.3496250140840886
Ni 5.964975598764848 6.967801617254313 5.243825197270071 0.46665985175908015 0.7267909569918645 0.07357443095304102
Ni 5.323894895138903 5.7821596585428185 2.982410436465655 0.0708824859431747 1.0824480577481164 0.43440381993885185
Ni 0.4964617825715156 7.586511544114551 10.265129779260622 2.4575331637765223 0.9496220402226098 -1.5141061966210312
Ni 6.2286173672684155 0.6391125541838578 3.537701191317384 -0.1947536082682388 -1.0325282900995378 1.5752151481172099
Ni 6.149145390030335 0.7461312557143354 10.950795468610238 -1.1677068670176214 0.7671084256639885 0.5649369276651238
Ni 5.057020461898915 5.03418919158101 12.890358391965025 0.024009218430403812 -0.4179122500417318 -0.2448628662198041
Ni 0.5384652414415715 5.791922121849386 8.613436111177567 -0.2928113690746248 -0.5115783095383254 -0.6153930274331466
Ni 9.018554392735375 3.6136402620230124 10.193107666709977 -0.46909520067345023 0.6385008170952036 -0.19610883674455257
Ni 7.622798436027639 5.701085163743095 7.301293810716366 0.48802031971272725 -0.45571595115306673 -0.963612955185063
Ni 8.831630850027752 3.332637886601635 7.843941254598987 -0.8356776900929543 0.23636202783764454 -0.06239887395219576
Ni 6.683999441035581 8.299024007557225 7.576950776983846 0.6644802718781008 0.004697148365353201 -0.721729483308557
Ni 5.40446284703121 4.683366783775592 5.182964527437567 0.7414375032604457 0.12238836713195052 -1.3707466265540522
Ni 8.51027081969187 3.4220104752119407 1.8456240806809003 -0.37276085031607414 0.4300244599242336 2.4179196631499584
Ni 5.61897916338645 3.622039664415077 7.271773411059255 0.08288876637543144 0.5952988277864328 -0.05273204028639306
P 3.620759492339971 7.421986407785768 2.278196987820667 -0.2077207099518681 -0.5869216594663311 0.2416523297023064
Ni 7.0380084642222 1.6839788710275552 7.170056832288768 0.8200708367936329 -0.33848701673486864 0.2128086659977367
P 8.682191482468928 1.8575757303346097 3.383778458534375 -1.1585208296429792 -0.1374699440554213 0.5540812158975426
Ni 5.4111123739249285 6.221645494888159 7.913859832603198 -0.45538942105158353 -0.08522615625935644 0.4357130256685786
P 2.130933912789524 2.883932969341319 9.76994356382869 -0.35820429265813797 0.43072611397694854 0.01118095631748397
P 3.897663475146799 7.391372796435742 6.708489409128498 -0.39678652380671015 0.1895844053624735 0.6621783632178014
P 9.20201502393048 7.844774747928462 7.884528235302486 -0.3609759418660041 -0.43198878273945607 0.2510741372368386
Ni 0.40122895301595635 1.2497610809193425 1.184570850709086 -0.43850550081205125 1.1954835229102574 0.1558237639722607
Ni 7.114680640662925 4.998768027546052 11.738919131349375 0.28172322958126317 -0.008990119313752258 -0.027969745740048603
Ni 3.359005747400409 6.353733465400218 11.66497031377634 0.47581040791009666 0.9712203352186757 0.05492339151075702
Ni 8.257984822185469 7.453521006240189 3.439340689555306 0.16657277495864858 0.35440548773733804 2.1076222214754283
Ni 3.597384839630474 6.822442222567951 4.5310253858508265 2.8894563833853657 0.30317574302808437 1.0138487114121637
Ni 1.9744029445268736 5.116037315548424 10.434122624032815 -1.3562705444250642 -1.3912504029343586 -0.7925530909893383
Ni 8.276459823499595 7.327087896549104 5.8485462510016815 1.312505997744604 0.6754532259498368 0.041071316119013136
Ni 6.707668809618484 8.189444961876534 2.0030787990092573 0.09441939272285028 -0.000273051155728562 -1.023372848852515
Ni 1.6989449114739428 3.375537465924265 1.1195123216547578 -0.7203115199151079 -1.5690465574126526 3.2671483524544698
Ni 4.531910454458147 3.506391313716436 3.0258957635866794 0.9917809329788467 -2.304375119561883 0.10935493098676005
Ni 6.436760452861256 2.5709078723001935 13.06704792596863 -0.8803503504099807 0.559001021796663 -1.106988466091642
Ni 8.420483786884587 5.310116928057181 4.451657480155542 -2.2775708548848455 1.9907491277347518 -1.415314385862098
Ni 1.659581922632182 6.842114507117788 6.406748246090397 -0.04129217388056759 -0.9896703143937472 0.3996571604862859
Ni 5.316913812887602 1.8123828931220403 8.781742820556987 0.9683139602051581 0.7593748044651566 1.2607867149934415
Ni 2.181938178630814 9.032820482982425 1.5852518163979286 0.21763179841799293 -1.3518880990866524 0.7012164509568698
Ni 7.934064447699373 0.0955164935837123 9.506848861665132 0.1645572871905166 -2.119576822734143 -1.1940964127547435
Ni 3.5422637614325474 5.280654550587647 6.248700412066812 -1.1239495194260127 -1.5541243888851815 1.1943463239820207
Ni 3.755941979522789 8.697360140078283 12.635943993260371 0.05032523061711333 0.17894338070885957 -0.9015125863098925
Ni 3.5379535417839874 5.220339105120942 1.4636124445852103 -0.6672763465659992 0.8828672032945634 -0.0005041933299281639
Ni 1.7179080359533967 4.713510691702379 13.020072057721956 1.486950976362478 2.3076046822427743 -1.7502627933160888
Ni 8.018251878911947 0.49146082259466106 5.357390275138575 -0.42786087661401145 -0.3096862904530925 -1.1727457149931093
Ni 5.733642057883391 3.3185836233885966 10.85658585572766 -0.17150389371167882 -0.539132050786878 -0.19564578106520497
Ni 5.236198503058592 8.424968994082981 9.577374370171137 -0.38239194564793494 -0.8793381070953824 -0.6545468148144726
Ni 7.563330298696976 6.815055905990719 -0.0010950536671233903 -0.6326605562643427 -0.5984157761488598 -0.057487295583191315
Ni 5.158282994026935 7.01483642867567 0.6822294864631249 -0.33475094673120415 0.0757783805828953 -0.19903526636272817
P 5.170661060709979 5.629266589342521 10.256165811773563 0.23847341775369252 -0.9160511462456998 -0.5296531647621652
Ni 1.1232635021309507 8.800169930541685 5.503185296725316 0.23238993056377394 1.266901826752244 -0.5459416175095436
P 3.765050541985237 2.935406938605849 6.329120085035312 -0.5292656995157595 0.09665085315653031 -0.31936186586964355
Ni 9.169854154245073 7.8233710076223675 1.430573874189317 0.7651181347068372 -0.027575081404791223 -1.3155496696669344
P 5.703111335372759 9.193219597083525 5.628114434474925 0.9275236656616735 0.4507776333111849 0.16689750528791902
P 3.0390271977211163 1.9401698538565824 2.303120740839753 0.1366873002531259 -0.4865036259578847 0.4480561206149638
P 4.376189954847363 1.734301606411594 12.30834980121485 0.8811373650876503 -0.3363380887126659 -0.2333080715026692
Ni 6.108879833826269 0.20708026647436992 13.263539603703794 1.0744583546744204 -0.9268050423280941 0.2172682444309871
Ni 3.445652214181712 3.719176174315417 11.665724602214839 0.1986282607322966 -0.8551196008676499 -0.4770915886153654
Ni 0.6735316842492365 3.6391239752015694 3.7842162836276576 0.03254168138144718 -0.593002061332456 -0.0805799157365967
Ni 2.8216650312133016 4.566779026230471 3.7679194168154218 -0.7946187152691154 1.163212064471061 1.517275081267316
Ni 2.205027325337949 7.039730710107415 0.2589640750003549 0.012916450951351948 -0.43152032774346977 0.3845043640052475
Ni 4.456527659963573 0.28493222739582263 7.457239031180624 0.06331547222919418 -1.1918274142149088 -1.2972074197143206
Ni 4.0253214976867255 3.98203510378025 9.04429782427737 0.020921066423383324 0.4098572409477393 0.7407574464742855
Ni 2.068002863946344 3.7267374784424843 7.6309371990691615 -0.2325521671732511 0.12975046392397652 0.2960131638413741
Ni 0.06650539979532981 5.831524567338289 11.709695289539878 -0.09610706483791837 0.22385515361988545 -0.13902648990926378
Ni 8.021714790424465 8.170058183329061 11.62376258776448 -0.846256236939749 0.764623968679238 1.0076477248077744
Ni 1.1556177791082802 8.858136858892186 12.326870851884198 -0.11321801348659212 0.15852033696781734 0.1622090986733142
Ni 5.677572362967938 2.2859636720720142 5.170738423626748 -0.8347479791898333 -0.6745571964981285 0.4757494727651742
Ni 4.520103399779829 0.054212063925890765 1.486635280220829 0.207572614409778 0.9020820856601174 0.7438072890442029
Ni 1.0341027405546552 5.403514230313686 2.384712830392146 -1.0444345546188205 0.09218407563442833 -2.249084317409378
Ni 6.033515459073782 4.11415070390544 1.404827679686008 0.3847511899087309 0.8808727985723539 -0.8800564733186457
Ni 2.396518964083361 1.2505807594422522 6.912610544036454 0.5570351563195439 1.6774830903502012 -1.0550400980488088
Ni 0.8029432662359278 1.0056902883841283 10.069863935361406 1.5061830851192124 0.1727429083251025 -0.4173484071184619
Ni 6.356220130582079 1.8760415217776911 1.7568473707271368 0.3241158356148611 0.0452681278091801 -0.24174128987168686
Ni 0.24952211520611692 2.373521916086666 5.8036186580751785 -0.17118019182367294 -0.3928321671446525 -0.854611807993296
Ni 3.5751337911883367 1.1882944015721473 10.187325709668599 -0.6594864182079351 0.0630637612297043 0.620986205250208
Ni 5.7031758044700664 7.143618055482956 11.63818616680638 0.4325287144033261 0.5589462572993277 0.47287472232054045
Ni 3.357182192933711 0.1055469641376575 3.7672314394484396 0.2469025223576522 -0.36519589348462267 -0.031841055769996775
Ni 7.6171712048197975 5.596175522681676 2.3149821337572316 -0.0015927984084166116 0.4905507994440648 -1.5081980586667123
Ni 7.6186632039289135 6.712172436558966 9.785472327395862 -0.9802935011645375 -0.13837985746420037 -0.6841211860374798
Ni 1.7743092862264298 7.0620001782916395 3.6159906211134234 -2.7917043267448562 1.733779193838769 -0.7769107564663911
P 8.43195007633428 0.18334827076836863 13.380812575654584 -1.1833617999460588 -0.9882829471279173 -0.6997174978138402
Ni 0.5201956202517257 9.296351733033465 3.187435059723019 0.4372981107675114 -0.40013924232902703 1.9601902811112886
P 9.052861162374018 5.234384158462937 0.33993449825728267 -0.896446998861527 0.6741915856285937 1.2919888516278588
Ni 6.867966615138102 4.578033488646154 9.090154693192208 -0.2165560488553109 -1.1843647872892766 1.2004951171922358
P 7.480238842138632 3.85910174508586 5.893904865893041 -0.03197835267880944 -0.2843650380794845 0.8013943434300521
P 3.168720601761752 8.240384758620518 10.312186694372484 -0.9021743882636076 -0.772943544288527 0.35650196525505057
P 7.505510728283179 2.086413396163162 9.440313990282462 -0.610015050950685 2.3745574941142396 -0.4626419888489387
Ni 8.246021199699403 1.6016242041527244 11.55527338174629 0.1372341738955314 -0.3208230237962023 0.5933959543367652
