# total energy = -340864.3093165795 ev
CRYSTAL
PRIMVEC
9.25225802601835 0.00000000000000 0.00000000000000

0.00000000000000 9.25225802601835 0.00000000000000

0.00000000000000 0.00000000000000 13.54161485365090

PRIMCOORD
 96 1
Ni 7.012156911418845 5.807161316000316 0.7221822333091317 1.2473442163352906 3.147842223792269 -1.4693990835216435
Ni 7.208369549758199 0.2832643594853658 6.407919689179576 -1.0872009990520697 0.22914622681549565 -0.4737344992176744
Ni 2.112429316850547 8.273443245350915 12.667868939178815 0.8484105642785905 -0.8942008831398276 0.7894888502417178
Ni 3.0379512029429803 9.223964732933089 3.5510037203258498 -0.23881306048129844 0.4014242796890377 -1.9440530092297936
Ni 3.7581192196554 1.949108456192921 1.471336649543094 -1.2320975745888652 -0.4277374636622698 -1.7542251203979464
Ni 7.346422493440073 8.156892549582496 10.835594297853344 0.5734663052923737 -1.7573150721771797 -1.8470491436092191
Ni 7.511269976690522 0.3702735202439416 12.442577378736534 0.7815811653588668 0.7425970707861856 3.0107540885562987
Ni 9.29093257733825 8.573549490325464 3.577843595959302 -1.1281872116564442 -1.89537019931211 -0.9225478097136369
Ni 3.63227000445797 3.581678656957636 12.535581077542927 -3.2794932471730682 -0.7068870189790858 0.3537480566589972
Ni 8.520663582806826 4.040442624488098 13.1124269895637 -0.19795925968973005 2.1571390972586335 -0.26223298206713547
Ni 9.20065829468266 2.324407803057598 11.710572022961948 0.05499255418579562 -0.10529258799192834 -0.44655973857509546
Ni 0.4870703260788388 1.3496176423786104 4.418141081888042 1.4392205030557343 0.18898225300210034 -0.5581435588923743
Ni 5.189970932367399 5.053296575148135 12.9867202591416 1.246297263128015 1.6970877519550063 -1.6633970445707804
Ni 8.03923158283748 8.67628656469337 1.6604731608582606 -1.3882326991539575 1.6059881676340084 -1.5381737790931962
Ni 5.108171718166512 8.280188141533749 10.028690061997429 -0.4459542437806126 1.7077706855901489 -0.21120172652193303
Ni 0.40975568139759483 5.5323785015503475 11.100792698097825 0.5938109303869967 -0.21446162822012743 3.05573322437015
Ni 0.6666057691238706 0.7724321724841618 9.989716775041382 -0.9133733423032204 -0.5626725571109794 -0.9741534497050707
Ni 8.182141962041971 5.767885480203148 3.8268061336226604 -0.9886117912222457 1.4367419596082547 -0.9260373109241342
Ni 1.473847712401834 6.118092702996701 8.970615699686352 -0.8020767142090574 -1.558456183491316 -1.6169768054350282
Ni 7.987058099195493 2.1208488717564182 0.49483667156014466 -0.5186683836158873 -0.7686384891552698 0.8251562217363402
Ni 4.880177573122028 1.4264298894429437 6.530796153837164 0.7633127060669821 0.21550215366949985 -0.8203405455152517
Ni 1.5165468837101812 3.1582953245481096 1.0334096925659422 0.695288515508209 -0.40614559642410697 0.10346247676172504
Ni 5.907002433570928 6.131934081171627 9.865012064175664 -0.4556462742573959 -0.8325882525343532 0.6934028684497219
Ni 5.567546334734103 2.5762912786152237 12.137850556047708 1.5991786009113425 -2.3592074940207306 -3.168558630404014
P 3.682657802279261 3.0336489029086615 7.26923367946951 0.6876371696105383 0.7863297357874458 0.3148228403487094
P 7.1149309948193045 5.969048076646502 11.712251307814054 0.8721079078955303 0.09881417935643626 0.7947706674659474
P 1.38949487495477 4.187627546952494 12.642587143815854 -0.4755985490096068 -1.2274454205288345 -1.045050848046581
P 3.8163899414105398 1.4483022276819324 10.816500412733292 0.05405255887002949 1.7412703600094916 -0.5756424870080861
P 8.873248635941929 6.833033193860969 1.3896678921819565 0.4102421350909838 -1.4801933459236702 -0.08469008125022834
P 3.455635144339302 6.383095880594463 12.895761309383778 1.1340670674759887 1.3702334343630596 0.22054203008625245
P 6.916210994524466 2.2919878905409248 7.2673110602283675 0.20805109670809332 1.1946710543112908 -0.06939278877152565
P 5.425949776185253 3.223699537327894 0.46120471322735124 -0.3005179936902631 0.12739996141392898 3.1751295987533124
Ni 4.2802611554333545 0.24868126901595303 12.446233871152799 0.7088497991324114 -0.5517068021280951 0.8558729340939066
Ni 6.124051157237778 2.8130935734073876 4.3614154872420015 2.2145119787511476 -1.6152425963527406 1.7367781285660928
Ni 4.1089555960023585 7.9212097780250685 1.005553918988902 -0.9196113527931323 1.0713866577276323 -0.7458914252667412
Ni 8.99362976657961 7.297459543372083 12.643209820788563 -0.6220652972469995 -0.35867043366127904 0.5556313339934819
Ni 3.594150700928091 7.722295480309326 8.055960590777376 1.0567151717583865 -0.5564119209132482 1.0023671931351252
Ni 5.052075277073877 4.330824746159275 5.827376574806732 0.16584798097748213 -0.6996164534596016 -0.8659912534748312
Ni 1.1064775507616973 7.690911820704144 10.376316829996204 -3.3917643233653587 -0.4586930315035197 2.029874632981304
Ni 2.9725377379050575 4.57422390100406 4.738820648058961 -0.7253467683461702 -0.4107162465139249 -0.3398887821784017
Ni 3.199014512614856 8.890772412855906 5.91210690438584 -0.11974553019246473 0.43483422260805116 0.7625560304066158
Ni 5.945806404203043 7.740855510134796 2.552675814942976 0.3184419251585354 -0.42460406023961067 0.37436521868871653
Ni 3.841574588063047 6.508260428689658 5.975278547276847 -0.6404057474274003 0.2914700245553819 -1.2221543473332241
Ni 1.2723797914399146 5.974793728950399 3.4369159756738528 -0.18713388693945193 1.9422365248463451 1.6334974287978705
Ni 1.9503297542671796 5.573264230263585 0.6165343985309102 0.4385990889671221 0.10546973699974094 -0.02278228800183818
Ni 0.5378023079028754 1.24189360087415 2.1011304592120306 -1.1182362710913192 0.09583118546871239 0.3177603257104786
Ni 2.271762454250557 1.5010956126191866 12.890561540310038 -0.929419854243122 0.040016649602253665 -0.22695333292923492
Ni 0.05773316555730341 8.90407716005881 5.962129238010666 0.5102282232683342 -0.8972628098946032 0.6017682375608604
Ni 2.4466116285485295 2.2529803702297673 8.946078711103528 1.136754127389849 -0.5659615122748962 -0.09032208272502508
Ni 2.6950902731112536 8.96549364958098 10.074718195783944 3.5138482718830133 1.352542701951516 0.25120989148375444
Ni 4.82878127916366 3.655965037550208 2.9519227815470668 -2.9704769862038067 1.4888013993076552 -1.0184386447756912
Ni 5.439115739516081 8.489946085787604 4.916269706893801 -1.0478656917875566 1.289501823539947 -0.6529455317656239
Ni 2.0493659253797576 4.026471714699236 10.5031069998463 0.2572776949443891 -0.5063137187052764 -0.01340316077978337
Ni 4.588731441764946 5.738676101260471 1.6244115595383444 -0.38067624850840887 -0.7405928958719632 0.16746494775561482
Ni 4.738451482959242 5.379956800979663 7.768025691383787 -1.3707808222260973 -0.2029942510104762 2.305306630237217
Ni 4.77425772195454 4.210998751009891 10.46376824869379 -1.198523852398478 -0.3533171397691657 -0.3319528151607767
P 4.726701115123575 1.2269974652714546 3.8871743422977576 0.8092331227481805 0.089250189817085 0.5629448369357595
P 0.26581737631393565 2.7333113514806535 9.388347752824993 -0.11252947205999973 1.5592632527736439 0.829258673940488
P 8.213627396486675 2.4118879037554146 2.7268745554938247 -1.7098568786952166 1.6508929985664988 0.3160459141225331
P 7.490008287488662 7.72194389450007 4.815872528609075 0.8843435307297738 0.5393647356229743 -0.4168323867139918
P 5.2215766461679 5.786417753254202 3.8186410158155932 0.7934352364839755 -0.5697631454091736 0.7669225349054275
P 1.6745014346475815 7.943415197557037 4.599734227143037 1.221346249609632 -1.780144925587502 1.51482816238872
P 0.3809709811034672 9.350979732655945 12.03827867918892 0.6711283733222377 0.4062936919661971 -0.585065837204515
P 1.4961178977407705 2.943180322832168 5.5760713653827505 0.8061331436666181 0.6228749376324886 0.42992161579778215
Ni 2.30000034608871 4.70100759427346 7.0786353113684894 0.4850416967003775 -0.08371691870368163 0.41139398930723986
Ni 6.8750014367763885 4.642551827355553 8.050016014923507 -0.21853297007602362 -1.5243607844695035 -1.0104152602505825
Ni 6.142065303833088 6.605409139142019 6.1424770293202435 -0.6770048867076727 -0.7772874230795194 -0.23128075665999523
Ni 9.281310228874396 4.090793413276836 7.695455604675874 -0.5856075686405978 0.5576164827443106 0.5793633875030989
Ni 8.278522735068853 5.5749944025354505 9.540257803520628 -0.624507588139905 1.562547322841554 -1.8497930249029433
Ni 7.347384728286459 0.7353704020594931 3.773912824297512 -0.49392202990914286 -0.7219110031917438 0.6779245703084646
Ni 3.4444954255407643 6.922669070705014 3.4591510024318635 0.5446799771883006 0.208414393584783 0.3202635517483065
Ni 0.4763266039286216 5.234779618531283 5.57375552517073 1.3135336676781701 -0.681168274056743 -0.06945243836486749
Ni 2.7797299305606056 2.3103628752036283 3.487670162917421 -1.088201929512758 1.095230040004133 1.0699378410962477
Ni 5.68508702212332 2.265544936781606 9.087886221137932 -0.5999597235972118 0.24725630615264513 0.23186182597444585
Ni 0.14247182216873544 4.749165597883416 1.9694523213874593 -3.0977604766445292 1.2011031830898797 -3.669627555770584
Ni 6.925379982339542 7.43368053994257 8.317570965315818 -2.0007090671609418 0.1948389688931935 0.024448619960667568
Ni 5.693710126708235 7.5292101052207245 12.575907969864609 -0.534905157189724 -2.0676209984921425 -1.2039092850801072
Ni 5.8974170941396284 1.6300998478417834 1.9349210435636213 2.0400461741976676 -1.3968446091926847 0.2405022752582632
Ni 8.620143862310044 2.501856861892439 5.87412268382478 -2.836943401088314 1.0210069197234994 -0.5233087106013762
Ni 8.224332259152712 6.325361789811347 6.798039303130214 2.0145025214006083 0.1018092574290182 -0.18034000394607005
Ni 1.641017512445001 7.557938366740208 1.7666798320280366 0.21651979630073678 1.7802074033943212 -0.036401678557485696
Ni 1.5922396075397776 7.258340995963266 6.805961086548245 -0.7803691473286367 -0.5083019527798989 -0.22505123081051562
Ni 7.158980995815846 3.9710969497413897 10.830042017744539 0.3313054113847649 -0.725992372349969 0.10352932544391846
Ni 7.411669417831506 0.5416096121267941 8.841360728268208 0.8201700813756584 0.15843060546748844 0.08177136494153658
Ni 7.447262854889623 4.416361872648043 5.399813997396126 -0.5686951091559754 0.23815511518232532 1.38265520506618
Ni 0.5228266028801906 1.680672690825841 7.464056628636488 1.7095411472270106 -1.8788212938144933 1.3295884071481876
Ni 6.829406308670747 4.113137616680879 1.9108846021460795 1.1309573182024135 -2.287294252820196 1.4132850141368951
Ni 0.5507850765225661 3.6903556810503435 3.710335007274232 0.07244674510650104 -1.896555477869463 2.0612521188513213
P 2.1322754105572437 0.40440695096783197 1.3572220733424958 3.4763320201051093 -1.0167841398914037 -2.2199287788913447
P 8.939356020340224 7.553293733154772 8.457036728815414 2.3747053325460135 0.701874653366159 0.7101417784709576
P 5.553593929461517 9.032350466888479 7.805779530717201 -1.2990976947584982 -0.5877104739162137 0.5788265411630225
P 3.343081424086638 5.613122958323467 9.57913579221785 2.068978540961301 -0.0810627689102862 -0.6526830221328567
P 2.2281565616446546 0.15979482508111212 8.049217545046169 -1.0345576618247407 0.36155392585666124 -1.0426571510034237
P 6.093777768609196 8.981638840032348 0.37444998956757924 -0.6066718455100648 1.287418458648357 3.207179942320638
P 2.652890723742376 4.676368830851114 2.5818713154984447 0.992861053416903 -1.60379244553427 -1.0493530749663604
P 6.788048714792456 1.2566509526047704 10.797000353480968 -0.3630613636401231 1.1814139321910686 -1.9069288506839868
