# total energy = -340875.5202389739 ev
CRYSTAL
PRIMVEC
9.20436271535731 0.00000000000000 0.00000000000000
0.00000000000000 9.20436271535731 0.00000000000000
0.00000000000000 0.00000000000000 13.47151522516498
PRIMCOORD
 96 1
Ni 7.016412156786133 6.973777548118807 4.203489840659219 2.0634624962390786 0.8467411469959676 -0.6191722919699207
Ni 0.6319154058691152 4.28373807806554 10.106290068974442 -0.021974190278246028 1.1704995992714098 0.17456710601803485
Ni 3.2795328880366226 4.955702587080684 3.3263195847803373 0.9037918692623725 -0.4140157432008031 1.2633105098565598
Ni 1.1964383079082588 1.480825506525352 7.339430066235863 0.522314465008907 -0.6442847707668324 -0.3853173468248461
Ni 6.137285053367815 6.453316851423222 10.672484483305034 0.9076284693996434 -1.205452461197511 2.0426843831514625
Ni 6.900381958845651 2.4772530099558483 8.29051871919712 0.26625033075664467 0.532896097179495 0.34836776618369036
Ni 0.15944533657650195 3.632510998525243 0.8699577171587356 -0.7808286034635585 0.49331216423928587 -0.2854564713714503
Ni 4.376379990033727 3.520668785676219 12.320212701178534 0.07044591262638836 -0.29906891994856233 -0.25106488126545795
Ni 8.51826042803432 6.7548885954595494 2.0563190886315477 -0.9399163828990716 0.21164524181725486 -1.6481648010020582
Ni 4.715100542485713 3.317013053514462 9.624724248324952 -0.09448495585346309 0.36137909084169373 0.2502709246092528
Ni 1.4856762057411725 1.9419824934533256 11.971583652131045 0.215032670232249 1.0759282543517277 -0.4661700566068552
Ni 1.5563380992513327 6.450104528792631 11.45006077196391 -0.7645591768795735 1.0822804218220006 -0.6929133304078131
Ni 2.76232133142298 7.042755043229547 13.454810576920925 -0.8803176973998321 0.7564026092107101 0.903392834051741
Ni 1.7043902755065015 5.786258267800928 1.9327578810167119 -1.7692527041550303 0.4405662399958219 -0.6345868267527781
Ni 8.146404169364207 1.5070395318890273 6.316483873031742 -0.9428978341248987 0.5231220485118668 1.2002570330395006
Ni 8.486146406091251 2.683449146260995 11.102414748867556 -0.2744071555358242 -0.8206333941653221 0.12767404101092206
Ni 3.7900252597782553 1.477585570806246 11.047935966099818 0.014370152678742995 0.2865856998798871 -0.27566236809916395
Ni 0.382205644245578 0.11190480251632505 10.749447683614342 -2.1388009610710776 0.2499690770981179 0.35410106912304173
Ni 0.14486102365910597 8.287773978198718 -0.06311799772783294 0.38351397506752016 0.6988371520914157 -0.0397723948019315
Ni 0.24590099628102002 3.7510263744320844 7.572419182327218 -0.3097400265091633 0.4783689126658924 0.7071215035873951
Ni 6.6708435583824 4.783010331507201 4.90384704772188 -0.23764243721196493 -1.3021225976277508 -0.04476599136178097
Ni 9.69099750163378 3.0750211501308975 5.293483374086873 -1.4831588563098972 -1.0001904971987805 1.5459349110958538
Ni 3.7144390321495675 7.149258725632317 2.4672543106045275 -1.3037835302699419 0.06745083455380642 -0.13744886100949877
Ni 4.705905384010182 8.790497867704767 1.078413524540702 -0.04377380265184074 -0.24613042007831804 -0.0895684923884522
P 0.4424435968412852 6.207624794178632 13.571878106553292 -0.33558681236893817 -1.2876585996836212 -0.5953399654370134
P 9.75708482681327 1.338673326849578 3.619189524189271 -0.7399588618323901 0.7248623725105839 0.7023312812876034
P 8.943962209308896 1.2723006664220977 13.102381966893756 -0.03512949671328144 1.1730539902621473 -0.2518822349604307
P 4.700180270324716 6.609754202224145 12.811047315206263 1.7863489975156848 -0.6203097480084736 -0.2245058998300069
P 5.471294175834773 0.8118827898300451 8.961872058519795 -1.7486303999189885 0.1982107135789038 -0.3011818525265071
P 7.421827522364944 4.291175203238943 6.893023991192659 -1.4683824693316712 -1.5562794875549713 0.043479668450189635
P 9.11512654065121 1.6919551813118647 9.10042625276205 0.8809897837661924 0.9463407983681766 -0.17268608694523807
P 2.61456369477864 3.8625096171304123 10.873533539910966 0.25715711020612486 -1.2278159164943756 -0.07928690795678603
Ni 1.3473898584575135 5.133705760011906 5.289670926999221 -0.746078858687199 0.10781843973757561 -2.095920359657468
Ni 8.584485818656388 7.167161211352944 10.300954059079398 0.09288727234904004 -0.9906182801293134 -0.3548903977935566
Ni 6.327419576520007 4.79678926267624 -0.35055828349841317 -1.3135691489017958 0.8663643205435337 0.5648060585142144
Ni 5.8811644530273535 1.3352124864223511 2.2712971075207826 0.4083315483318323 0.1439547804488166 0.15761299466219952
Ni 8.291676628042186 1.3238266895912887 1.830091497481258 0.7381560042956965 0.4417093524613296 0.6778752051277681
Ni 3.332844557596457 5.455324606310203 6.273132244499306 1.810248429841102 2.8640274017892997 0.22533250949636033
Ni 8.321112180399291 5.054769144310051 12.038954065490202 0.8718181445692534 0.45080000190868813 -0.1959226888756755
Ni 4.049643517997297 3.608220684994787 5.149742521385196 -0.3365887712708913 -1.24886245275203 0.39849733585022984
Ni 5.330412198230694 8.498977287887937 3.552613447343063 -0.2473714915742707 0.9806827661831562 -0.08435918027337086
Ni 7.106016629017658 2.5906507601245568 13.418074123960427 0.018281829028323354 0.6096355561240792 -0.08314099159555359
Ni 3.333967489862738 1.3496449273529143 2.7183631353794966 -0.18508343216832643 -0.030242858044941465 1.3198405837328044
Ni 1.8716335482796698 4.587178307758058 12.826256604360385 0.32326942845416584 -0.4650207734937604 0.2763779061089498
Ni 8.781422365946135 4.838742748493527 3.0958754750137905 -1.0991540576488879 -0.38787765135285457 1.465884642610482
Ni 5.297957614862605 8.809808620939666 12.188232262875443 -1.6472165781561758 -1.547541079240709 -1.0916513215139392
Ni 3.9806752272493964 5.150991553422363 0.9991041321438938 0.5386551111504594 0.3659541118068859 -1.60317615210651
Ni 1.2712973908727154 3.3927465509485635 3.2965609592876057 1.98207911076458 -0.8207874032446832 -2.087203034389128
Ni 6.036589323916056 6.482411842355306 6.3316388564451165 -1.023924864701243 0.9742583507140512 0.18741516562529661
Ni 2.289649686584207 8.121193419549913 4.084509644429039 0.16025814559453047 0.0037453259750451625 0.6675306286686503
Ni 7.625363597809802 2.74341557015297 4.092928875117296 0.5259770014621588 1.1687450784741487 -0.9287590807306714
Ni 3.9574894372595444 2.116064607815402 7.509547861523454 -0.05002029778218483 -0.027225925595488597 -0.31026067489932374
Ni 5.751300097740803 0.3640445159291917 6.6786792324667035 0.8453110994176604 -2.540812480722153 1.506697819972102
Ni 2.9145154709554153 0.19439706358264133 12.91851009221679 -0.07681684914973866 -0.03846576017536601 0.7384537380417734
Ni 6.57280788979093 7.061522739056981 8.475603728896182 0.13755119091531795 1.314657239759652 -0.2313596895270467
Ni 5.705296692274634 6.064552178219021 2.1979852779494555 1.8574870511130912 -0.4953749603055856 0.3497754451644944
P 2.316590856612114 9.047308795258106 10.876968608122246 2.466446921326385 -1.5719362202556217 0.29061256165109306
P 5.0327615127635115 1.5221254825811144 13.161320263456687 -0.21260734862020803 0.07575061266875342 0.019390231601153704
P 0.22696854235877842 6.7988762454641165 4.4461527420937 0.1765417132459024 0.48496610626743575 -0.9664527386267034
P 6.557040816248804 3.7166296705050987 10.7802298342547 0.2801926518693497 1.771517588929807 0.8863279081496541
P 0.27215183909604895 6.1093129947020115 8.577825541706543 1.4988315298501478 0.24924094068284175 -0.22937711187937918
P 4.464751077644909 1.3171627308963092 4.541288115954801 1.4023452272959396 -0.4262271976653305 0.5093157387563939
P 4.554070214628444 6.040307886502758 8.94295801332323 0.21170129186617093 -0.2835402281853439 -1.7631460770366603
P 7.251914984368648 3.716758531584836 1.8847727762314417 -0.4988827163485279 -0.1273426258134323 0.4570364697367032
Ni 6.243392948168535 1.644000450923961 11.118526986016121 -1.059649571796362 0.12355127709180011 0.7146378665690983
Ni 3.0402470673275386 0.36093252085353905 8.956523403274419 0.3245644931165056 0.8981506118161952 -1.0357755933922421
Ni 1.48975373847857 1.6232262039977619 1.0426278822614063 0.3617958666641382 -0.22344249156249904 0.45941628282278946
Ni 4.505692083549976 7.93336919147015 9.95223020509467 -0.11560553988216218 1.6603330609334759 -0.002531251062285963
Ni 2.4273193415576952 5.080697834425738 8.539741570026507 0.3255625953637167 -1.2071105656262242 -0.20745228678182984
Ni 7.512554926862749 0.45232632122084226 9.687339687841812 -0.8126871427350519 -1.217701196657877 -0.8608878708099947
Ni 6.996576754869448 0.2722853023572053 0.10147349811160124 0.7805414112404427 -0.04926902143845708 0.2018339121537879
Ni 5.395266138789844 3.423341853023303 3.403901318272383 0.8611251836317814 0.08990453557163226 -1.6322476155511698
Ni 0.47049849477263456 9.273855777798886 5.466054132070889 0.4999080722892488 -1.65737346408452 -0.6220835520794448
Ni 3.905199451974769 5.562877586076547 10.932687218564313 -0.6131613098891504 0.5737871789669021 0.7251878741708027
Ni 2.33969380733642 1.6586353878369682 5.156478274110316 1.1441329363524233 -0.6021310202169179 -0.2905616538084996
Ni 6.8372492341372775 7.168569478867216 -0.0018178616605779168 0.11116087384724728 -0.7635155661064077 0.03457465265107594
Ni 4.252369609512378 8.122205899462132 5.587472564016953 -1.2366666820167862 -0.15745744292094171 0.5994097646310128
Ni 7.644416628885225 4.959568419472799 9.102338919359864 -0.5933884981375974 -0.525083800223928 -0.0013729690881266676
Ni 5.117579716319083 4.4148910441494635 7.351432555377096 1.068342985805302 -0.18921596627946122 1.1615485607257094
Ni 2.365088644407481 7.251436357501054 9.03093975638635 -0.7885712235234549 1.0709392857775686 0.02935248502018816
Ni 4.252691762211721 2.8029585933543806 1.2966323995853268 1.2817944275933604 0.2604041563885128 -1.1276138556514772
Ni 1.6267330662391806 7.1183412708582345 6.432891449848596 -0.865057171696336 0.3079112008305407 0.6386265440397905
Ni -0.14511506407344496 8.627930411253491 8.207521138610977 1.2885083492784262 -0.7433534893362359 -0.06265469871674371
Ni 0.48001304463865674 8.569353846150108 2.7546955168113914 -0.1032758146722157 0.5132958064500643 -0.28736294436554377
Ni 7.5067377695488995 0.5534436104905985 4.100029120610814 -0.1252903712700939 -2.311226338155761 0.3334579389513935
Ni 8.437344874322218 6.10559443211531 6.44535231625918 0.9021769593667688 1.0460132119598502 0.5675216576731644
Ni 5.8946764576740796 2.3196835225258057 5.947579453523891 0.5986924268490141 2.9292277497460324 -1.7810800358072616
Ni 2.1026078293457067 2.725163318644484 9.072782789849576 0.6529411608902497 -0.42172751002276404 0.6172943582209176
P 2.3857248258911046 3.767456162098574 1.3728279560339145 -1.290965295459351 -0.906677932560916 0.08503615173573742
P 7.778579421617295 8.486671054773039 6.548544268912705 -1.6311471833981392 -0.1829008226947108 -0.9278928760756343
P 2.421934789297249 3.624052189076782 6.554040193963496 -1.3169961723054737 -1.943723393804517 1.603394438764903
P 2.5043874716033607 8.910274241320465 1.680302457958489 -0.4077610205403429 -1.6075472845910121 -0.49073154799630325
P 2.578261687744112 8.909620731558942 6.918606597265622 0.0582740531505448 0.694914677108558 -0.12009520022239963
P 7.058558934223026 8.378252864899887 2.152519407273047 -0.3373647302049674 0.6496604332564488 -0.1715440029209949
P 4.80643543493085 6.233746775913924 4.399459929850937 -0.05810384612126768 0.09435151559939235 -0.041245894023664444
P 7.220500494001294 8.299095344489912 11.432870703926971 0.22903284116608297 0.23057164640811256 0.7501309172693855
