# total energy = -340859.8111077486 ev
CRYSTAL
PRIMVEC
9.37249668429851 0.00000000000000 0.00000000000000

0.00000000000000 9.37249668429851 0.00000000000000

0.00000000000000 0.00000000000000 13.71759628395616

PRIMCOORD
 96 1
Ni 1.7181098646920654 7.595405738663697 5.381344586257112 -1.539101433113788 -1.84129707161679 1.0092176403980555
Ni 5.9641882911114035 4.668778028728012 11.275795878234636 0.5264012334837709 -0.022484811366077405 -1.5865598837060677
Ni 9.103103051873951 4.315238079754941 4.987979024199119 -0.21633313421122743 0.45052566520137893 1.6854812780643296
Ni 1.6636837762085517 7.532057033297747 10.161817470208918 -1.850702166980774 3.3153711920166002 0.2590214171083733
Ni 3.787116634280681 8.829904144829703 10.346689030864757 0.4069624358984475 1.0224503370382456 -0.07347364370911862
Ni 4.246134661399689 8.881199819406985 1.3875756461807882 -0.3858955879258193 -0.39610492435865324 1.1476280939898753
Ni 3.0651907015217486 6.2741742478022475 7.0937259809507065 0.65647694195765 0.876781916332432 0.4846570596674492
Ni 4.9804791523195755 2.445743647956674 8.932308981299434 -0.7244862201180877 -0.4633469853357633 -0.44259895415513456
Ni 7.080152731193202 3.6476070205253683 7.045851267678141 0.46604535810353287 -0.1592991241153708 1.2422030384539833
Ni 2.7645491240659763 4.197097758533193 8.240324426578976 0.7303681328201614 0.40439570361253585 1.0815268314854276
Ni 1.3059543211992957 7.858782269139883 1.3021884520150913 0.25285539750697744 0.4663634035645839 0.08148802937316288
Ni 5.879217235800307 2.721491874110188 3.379604225665599 0.2258253899723788 0.43903746205612126 0.7754858510944064
Ni 0.5220930555805806 5.71324906378962 1.4514173448744858 0.13171118719477315 -0.855413735069301 -0.7712409597751234
Ni 6.542021459216378 5.386514455450758 0.6759547735712652 5.673210087824578 -0.34363822191850496 2.3875595628008623
Ni 2.7448106459626045 1.809641667710835 12.24170664574522 0.11785319826575832 1.1901178877229697 0.5879796684172003
Ni 4.768932528734009 6.461080577497138 1.6426275250656102 -1.2203355489569305 0.17843533072418946 0.30778033167963126
Ni 2.694105438679014 2.719139377432151 10.048838582933765 -0.5039806996967257 0.05746544120632039 0.45060716917159166
Ni 7.751560906603049 5.541010691469743 9.45885865907287 -1.0246270329745903 -0.017010932735699737 -0.3069184978999682
Ni 3.186611396597333 1.3347278861458063 7.347926837132875 2.642629451460655 -0.7548357789442226 -0.09152972987988107
Ni 4.627079790797384 3.9218087847192162 1.4754231207368627 0.34364979188273076 -0.054378574750880544 0.9129755926441696
Ni 8.178328172490481 2.528896438903072 4.23316781218031 -0.5348478215892273 -1.593738660842694 -1.0608618469369084
Ni 6.422475263485842 4.656256373103081 5.196554566322782 0.05342623813994024 1.227878394301195 -2.1778094811237914
Ni 3.382196658259803 6.759229070823993 11.389116861640261 -0.0064246725794211935 0.15611635551201503 1.6607994590469333
Ni 5.114046603151081 8.53993784114399 8.33907773832455 -0.8473913789854567 -0.45702798509627096 -0.903608806717289
P 6.966642423353727 1.8610216947586429 11.280377154633937 0.42655578464934274 0.6951813005063834 0.14170557940332368
P 1.8717157135221505 0.47288463602401243 10.863499747290987 0.49756296909583986 -0.7989255701745853 0.248285775858424
P 3.0230613287417594 7.056402824491424 -0.06160354647570839 0.11935446540163316 -1.248236646242573 1.213410282592007
P 0.33524483536538663 7.66458413699275 3.4928427311000423 -0.09387766128676736 -0.15848228464103029 -0.9625014672884392
P 4.529849509769664 5.86552401808472 5.33097303985694 0.7246381723149198 0.3633902077344516 0.030319219808831656
P 3.0514974838061613 4.841297575949646 2.8301050524107216 0.34907456244272783 -0.5904019047054477 -2.0716280627690065
P 6.553427787731004 4.902340647121185 2.8737537069098726 -0.3733177512608087 -0.3300278302239219 -0.6202153885224545
P 5.811744631875249 4.343214982479806 8.824379058010171 1.1903207477623952 -1.7722565239783605 1.0124654579113919
Ni 1.7482705591539127 2.8496888843181267 4.009269175160538 0.21244305512820186 -0.5780107301299465 0.6120536786472685
Ni 1.0489979509799034 6.681390485520811 12.58799321950262 -0.7209183002611713 0.4202195580186699 0.24683027435882007
Ni 7.650262961996572 1.331991117102034 6.227418610638677 -0.12633501048452436 -0.803195658304849 0.655559058129071
Ni 8.710920298902684 1.18733600264456 8.554320874618554 0.42399573723165046 -0.5842374277659486 -3.0866975339621487
Ni 1.3755169918940846 5.479527112952117 3.9643711668479114 -1.251182102024142 0.2076831718457133 -0.41404556799747405
Ni 6.815679618600161 8.102748358898083 6.294812485591242 0.05147837038495005 0.4458539707573224 0.310423168619117
Ni 7.5281768196534955 2.486588988685304 1.736633667219845 1.0098488462241513 0.48193580408154413 -0.5393056002502647
Ni 2.266382178125608 0.701138672272006 0.8480206919513985 -0.997803999244475 0.6078275563810629 0.9165563680168924
Ni 6.222737985774088 7.673441146398109 10.383027137918214 0.015181335726128693 -0.060753882149605046 -1.0577569827593396
Ni 1.4617720792565394 9.509147727501858 8.659396872654979 0.43575107799536567 -0.8744879780919327 0.24606897071276332
Ni 1.3489365911812818 2.369910776952695 7.955876648965088 -2.2359356958425622 0.7030208511554602 0.6118022247580948
Ni 0.6953333478003875 9.232743426577578 12.871481253451844 1.4956852709116824 0.447396632654094 -0.1713087469817372
Ni 5.536924282897535 0.48661815547551796 12.065023835478229 -0.07205670875693397 -0.6650847382313191 0.5164112121505946
Ni 0.603839034768519 2.8888659206296623 13.027340250494678 -0.1965333258764809 -1.4513342556001327 1.2947921254046086
Ni 5.665018195641496 2.935775266739527 12.982867753533377 0.10392604666170488 -1.162545891641972 0.2695711675997616
Ni 5.419186979034972 6.147851736939359 8.029896879102404 2.2029386720912507 0.8956730968099801 -3.1473514001987795
Ni 8.834581020695602 4.082378398616161 11.466113796737519 -0.8829852169296664 0.7479318527355376 -1.0750767049847099
Ni 4.943673357679527 5.161377711613582 13.251980252005415 -5.593584822691766 -0.3721802952222558 -2.753126980692291
Ni 1.9644378236250266 4.490775570922106 12.48261448982197 1.667650677640812 1.3183431732516713 -1.702883275590861
Ni 1.5472961118744253 0.3639368595903875 5.514733959650838 0.08032306253078425 2.9039918579973794 2.196537653660914
Ni 1.5851703711411513 5.514833308116125 9.67119350963303 -0.8673721929827578 -2.630364775160689 0.19587486635687557
Ni 8.597494343533736 6.704006320118833 5.37410152078784 0.3278511342875773 0.20673469188951493 -0.6154907293532754
Ni 8.810362489157562 0.10960291395471967 1.9254013747643697 -0.9367994345366447 0.7987797886253404 -1.5068628847950565
Ni 3.7637135099577375 2.0317792125959317 2.6921053478778463 -0.9717412407191521 -0.9808303475046138 -1.2000361752779463
P 9.13412601603452 8.874676561686211 7.004012442296634 -0.10955367726112746 0.21515094097766818 -0.9815124611733033
P 8.732636373815081 4.80527907103452 13.475988547236872 -0.03980376226049919 0.9959456058794977 0.9501208342358991
P 3.7239178888623354 4.791276560927 11.070566317441887 -0.12222973006689915 -3.5327726195913414 0.07789645536716261
P 6.200628265999228 8.729730899830257 0.4081600481387965 1.0532801779349086 -0.9697486357691558 -1.3164963498509197
P 2.809818283248923 8.555439950727548 7.184330844043348 -0.18135224726066831 0.003724500039438747 0.499212845994437
P 0.36044466731056024 2.3377537406883695 5.980089669055459 -0.3997988282704727 -0.2157160694525188 -0.8415976551218152
P 7.465240504143456 6.005277316754889 7.064027350577414 0.7293636028150472 -0.6211379003367238 0.07994305348354618
P 3.300093586946632 9.088257017061158 3.5992917999067164 0.14214960891927778 -0.17981112802579358 -0.6351833226861965
Ni 0.24663162782685932 3.6978904654563225 2.5582079851616117 -0.8798808669727299 -0.4504886413158564 -0.6846595750394532
Ni 4.593685584965327 4.132877410971796 6.809086067153949 0.9514012436102196 0.03682591057909787 0.40497471604445734
Ni 7.82307305661669 8.76224409097014 4.036389431684715 0.17819621813018988 -0.6203303168337639 0.12344843296534867
Ni 3.399085897358699 8.931661341775719 12.878902396358894 0.0008183821362373003 0.13034310320265294 -1.8033565878172748
Ni 8.135120962587088 1.6477880217625314 13.166107562509351 -1.0860494019461295 -0.21707232637009713 0.003878766229115901
Ni 6.569670324555858 0.6646421700238911 9.371738490262674 -0.8615836113254387 0.8245561262584961 1.5048862206846598
Ni 6.277810776531643 0.4546307614019199 2.205515309892504 0.6099075788385432 0.16799768033063328 0.8401411251809465
Ni 2.2604212702083504 3.544500184050918 0.8370726785266367 0.5652778559443103 -0.5641841086594993 1.67844416871189
Ni 0.4734113703399713 6.776380739831197 7.525459732852846 0.21680056076594922 1.3753661276039346 0.5586531515389411
Ni 5.617949517087301 7.514014977101645 3.7527364417931275 0.4414797529490268 -0.31382988030782083 -0.16146193609464451
Ni 7.71184026548145 6.521270751466679 12.047163605718596 -0.5212382012255927 -2.2370548970486697 2.4141535112393067
Ni 8.12217754460952 7.260423333206617 1.787142052072205 -0.6784902130039476 -0.41173646024832317 0.06051682643813448
Ni 3.9710331375202177 3.868901040705193 4.510263803362914 0.44941649129760014 -0.42091169898968805 -0.6437988322693493
Ni 5.482563801891097 7.187364721233311 12.423834876609579 0.013699608974279631 1.8208190062680965 1.9881299449443504
Ni 2.468265757587444 3.3211723320817144 6.221959131296219 -0.2760809436938213 -0.7475197048987836 -1.9598159284910053
Ni 7.701792948991984 2.9379215684896094 9.322492580719205 -1.8396765052942317 1.5238648186696917 1.4989474866027217
Ni 3.1479967100893123 6.853132115514251 3.8900360208206264 2.168031575801421 0.0011132876688367925 -2.657684803131881
Ni 9.164839687803157 0.8396210603862314 10.645718538883788 -0.7112707498690782 -0.08281677548691543 1.8040962941967769
Ni -0.09220474828364228 4.611708896167978 7.958305062866599 0.251686831120173 -1.3888389652793889 -1.0357768789438226
Ni 7.903404726048788 8.370061337998873 8.743472854528815 0.8442610608865913 -2.2027813205777806 0.34329986474247975
Ni 1.168412931756285 0.5043556055280493 3.3579575072289667 1.0162310956014111 -0.3509938909526278 -1.4104439451436743
Ni 7.9204345525985635 8.782676133831181 12.614070317141277 -1.8053751609092004 -0.575948448284279 -0.05991338852618068
Ni 4.169458265690437 1.1793412629379239 4.852585811005535 0.4537102335769476 0.6512596594227688 1.27603978449777
Ni 4.209385101739993 8.090760935586491 5.606423220614591 0.5764071330882525 0.5066914137596693 0.8850634396149337
P 4.100223632381033 6.660030565483972 9.341641528778558 -2.8187986118584876 2.1900906124839894 2.08799853370723
P 8.804279738782876 7.032859112717603 10.512809037322393 2.415314364316627 1.8022219599921991 -1.6678522521286565
P 5.649300518633255 0.9353114402019934 7.293522305391829 0.07819907420924598 0.7392289256449011 -0.3899805566284703
P 1.408217632968474 5.187386390026145 6.226979040542263 -0.793168355975834 0.8394117032140898 0.03685522115513653
P 4.060756048671014 1.6415365664467911 0.2583941112170452 1.4765871166296505 1.0435912327819188 0.34886630308666366
P 0.42088789869168297 3.3753453631536465 9.667915010278538 1.235316338636479 0.13403212201846593 0.15441685632240504
P 6.358592325806554 0.8312139308236842 4.484350724416949 -0.5290358428931404 0.6406628577435289 -0.057066920216321065
P 0.6221781991108112 1.8476096519448135 1.3789473256955251 -1.6015746119473449 1.4518268789658353 0.23242926844214168
