# total energy = -340862.8375475218 ev
CRYSTAL
PRIMVEC
9.32214846363642 0.00000000000000 0.00000000000000
0.00000000000000 9.32214846363642 0.00000000000000
0.00000000000000 0.00000000000000 13.64390657374118
PRIMCOORD
 96 1
Ni 1.4486245354339016 3.6786874625077566 3.1482087570470414 0.17546262124911075 0.1934225481616411 -0.7318354613943073
Ni 7.306494640359548 1.6422362305639349 0.5084411472110447 1.5325754590698122 0.5552780644191211 1.3955958243872482
Ni 4.921152691388589 2.4735760813030785 11.385212260269249 0.360861784885643 -0.37521111162877957 -0.013790883136505281
Ni 5.451797331086547 5.5305881273328295 7.839651598986562 0.05187817692653001 -0.5500116738138592 0.3157666923192175
Ni 3.5714081814852503 2.17261985011342 3.88716239066371 0.03285304197427891 0.11345146965363688 -0.7526382570722715
Ni 5.602005104384744 3.3095770061221006 -0.00936689447092579 0.18490165517482351 0.6065934268636456 0.1998330796736752
Ni 2.765061009962421 6.445519680620532 6.272212556397268 -1.110493651031423 -0.6756550575479977 1.925195767313975
Ni 7.649167484564128 9.397937224297788 4.587804791988217 1.288058406225201 -0.8294764463782488 -0.6132561835958019
Ni 1.8842298746431176 8.127617416715596 12.783180242603022 0.7617882990026559 -3.3598088535046844 -1.9640091406367468
Ni 3.7546443257134725 0.5226294567101979 9.744736983492691 0.8241403788773162 1.6210885136105564 -0.7876978197795659
Ni 7.468802561969112 3.164692179423127 11.19311914307444 -0.6980434525455268 -0.5459441886127049 0.1377324536881886
Ni 2.4303679245825958 7.624557013422364 8.65074094727826 0.49574545627112676 -0.971626569518159 -0.16227594735550763
Ni 1.9179201180924865 0.3852741290798616 8.103798395952596 0.33790491897915353 0.5035731798456617 -1.0673595388461101
Ni 5.535948362524691 7.471878870861832 3.854621568082439 0.8072955394058354 -0.17674894416070205 0.8089973525882906
Ni 5.760239247248492 4.786261207516877 11.977835202007366 -0.030114302886877168 1.101224309914355 -1.4093813082071147
Ni 1.1798203932472522 2.548479541766741 5.018774226917585 0.8639909352153506 1.4045545762424327 0.006607735124504749
Ni 4.881915769784163 5.496413132179154 5.628534073617785 -1.078728442804684 0.7857314400818146 -2.11713170362776
Ni 4.869414769101926 8.931074722308901 7.62755781291499 -0.27218623662510544 -2.2311123063119895 0.5681214960406925
Ni 4.24896987618101 5.088783559597374 3.0080036487242667 -0.6512267493023043 0.23183920026662652 -0.7369599271050662
Ni 0.7645513202485502 0.9459090516225807 3.155781137997214 -0.20371930210195885 1.2896337211321207 0.44439281283076376
Ni 0.5752240844127419 5.815361109317146 6.401911603743995 -2.051813856256557 -0.3614138007343711 -0.8158004915530531
Ni 6.132071770896797 1.1375444513427453 9.46022036058277 -0.0772405669507186 -1.0892532535954078 0.891488369304671
Ni 2.9539090873828178 2.471665040930328 13.34281210200375 0.12092258121970142 -0.40729642219909856 -0.5304116401947445
Ni 3.4384463822826086 6.234913709395257 12.40679944286757 0.28274987107356464 -0.10587108620321767 -0.03458853660814688
P 8.08369145458681 1.935100837150922 2.6537396454978435 0.13736735703928601 -1.1754042356618788 0.8518764113400038
P 3.277406272822773 5.241834588084297 8.270267724500675 0.8958422753979927 1.085022246233196 0.19313895548295124
P 7.045493136182618 6.184881740221831 4.556832886942233 1.1327318936043331 -1.2018739998176333 0.5877068743717878
P 4.072343134998057 -0.17029327372321254 3.3996112452638685 -0.27083306503132065 0.844120935764301 -0.2753206684890291
P 6.622528629878035 1.1911747697058386 12.28113875010365 -2.62552390212862 0.3776294912622851 -0.7836971832606051
P 5.514703186868601 8.400224995351428 10.080622371622152 0.7657483120916683 0.6771277854387823 -1.19817238259633
P 2.164556191955229 4.699145732963929 4.952505872294306 0.2262647915026426 1.0651496756789849 -1.7760154768001606
P 8.81965640750346 3.693826631119205 6.438245608411472 0.576365995437672 -0.2687831244808274 0.6663065264535621
Ni 1.9664978321529902 4.041197837996302 6.896830975049309 0.2109664705826754 -1.447889748694958 1.6052343201871193
Ni 7.291663102637372 2.658471567903737 8.28958694434696 0.3739954940541236 1.761696231964011 -0.40004231173984656
Ni 2.6199524517076136 2.4844363839091974 10.772491699313509 1.2935860209116496 -1.5202557611621945 0.18280492054679484
Ni 1.5720590992172698 4.5477447247012845 12.44895885792008 -0.39710482637807737 0.1266769672049754 -2.1227181965766024
Ni 0.484377886166259 1.1860475882179713 6.438027470144533 -1.501979074340194 -1.4663235299201134 1.0402613970777375
Ni 2.635231452541458 0.324926270752846 5.145812733179516 -0.17818773348975764 -0.3723962678878038 0.3059121681226409
Ni 4.658230824690747 7.815530540623186 1.7319712287497748 -0.12902309883964877 -0.1932340862999188 -0.3587352254609435
Ni 2.672986152588482 8.914537231473487 1.0034164514053177 0.24322121685132306 2.146785521938451 1.66048886978505
Ni 6.383275697357821 4.909919502856079 1.6035138915379283 -2.01508616181822 1.2722852025513443 1.881761864500056
Ni 8.282225243945197 0.4172052831714839 11.421941524018699 1.5257723201050497 1.0767859743663326 -1.5473099370665093
Ni 1.2585366123082566 8.042440948979879 2.864224428797041 -0.4908575320512062 0.4392331230066952 0.21655810573783993
Ni 5.1258763871250554 6.214069386110036 9.909078065615898 -0.12411691978728301 -0.00949868351905461 1.6805141638670413
Ni 5.006897810162052 1.5145228007752374 0.9918569876872165 -2.6479956008685748 -1.6007816837324045 0.2507008130578198
Ni 3.6084077875313336 7.834883320202845 10.679221742545488 -1.4803265290674248 -0.4722635710991028 1.789848268918195
Ni 1.171896567311457 5.641586945471079 8.741759605265699 -0.42755722933066365 -1.8047354704426724 -0.18504537984153938
Ni 8.654812861594444 5.832765559931417 12.002939747001594 -0.29122319865189844 -0.6323605085254206 0.41953538746745167
Ni 8.520294263649122 3.9115267570940557 1.693863219287496 0.5914267464255363 -0.4995478607363526 -0.052015730945658804
Ni 7.336362803063416 0.7446270929866974 6.884632944182266 -0.12451981165265652 -2.498467440097039 1.6919023510993247
Ni 7.791703129926842 6.828883701542458 2.5572498187554427 -2.0955876589083973 -0.06890839293593938 -2.6010446860403333
Ni 2.588061382853078 6.659052806367971 1.7209058388841407 0.4809793537055459 -1.358027636325487 -0.526369608914887
Ni 0.44773531839469444 2.830539778636568 8.477668741188625 0.07041043140276261 -0.008204904408295546 0.298656257891176
Ni 5.8906094892627205 6.70777967479903 13.398875501036539 -1.7036348090449047 -2.362488735875164 -1.8186299690365777
Ni 1.4739528119839664 0.41984158667106375 10.237117933854105 -1.4718156633829362 -0.8821532079466743 1.85252610756339
Ni -0.033947534738578186 7.535344055533471 9.906294472175395 0.4217979582493832 0.4566803719488651 0.367889895377018
P 1.8846586934584664 6.3544422930996864 10.549604730102569 0.7988875178477983 0.6887849100617364 2.2071663370193537
P 3.8808568896484488 5.349943540293021 0.623941630695642 1.3547260827560799 -0.9849739373593422 0.6051152996562223
P 5.775303838674662 3.7318982842036608 9.757862568101633 0.4850630368566162 0.5053225584366007 -0.26287010143050216
P 2.951336174490724 0.3789807468572083 11.986199033336302 1.0380893291270832 1.9941776938003266 -0.5213492728821602
P 0.5401215355171696 5.5793429622083694 2.3271997108985434 -0.2147789023502301 -0.15646808242447893 2.3707815720115755
P 2.2904611250009332 1.7780319628071437 1.655974280306972 -0.13215881625515305 0.45554908655789933 0.22656535346219692
P 5.166921805472473 3.740511949103278 4.371725787578348 0.40514595151499905 -0.8695213781152767 0.9134939270414848
P 8.533037640183514 6.245298582445229 8.102883893218124 -0.12065004428460513 1.1803242986713156 -1.869229022140368
Ni 7.050322008929373 7.733700724076822 8.514616143205012 -0.40368813602255 0.8451763736120089 1.0352287197498364
Ni 3.2698366885170485 4.5820781963736765 10.624714210040562 1.2292091972974764 1.2401320148575674 -0.5763215153529817
Ni 4.8517586204873435 9.008933303739207 13.11562762249116 0.04088465402950378 0.2284692553531291 -1.0420927938595212
Ni 8.646115297361389 9.065845018254535 1.5790637613445124 -1.0980497688411153 -0.20035578494636463 0.34744319748689195
Ni 5.196211994990437 1.6921749782557636 7.223438961330176 2.2383659025506093 -0.5669562720879978 2.054749284735797
Ni 4.283862676742988 3.2386541029226548 6.339190326495505 -1.3178914304262337 3.1453181718188348 -2.9734990608595826
Ni 0.5353392735112132 2.4849957127987827 11.114298515954045 -0.9547933000109041 -2.864625440384615 1.724513452266127
Ni 0.27641381172946045 8.167991640395512 7.096618593335184 -0.8705048250744685 -0.6069168716413353 0.7607385175819027
Ni 0.57073267342937 0.4184358067285721 13.374043162768574 -0.9436671081907555 0.4190944432752911 0.1537961920192706
Ni 1.761074975304542 4.44350446397886 1.0065207267425174 1.0462140151167465 -0.6702004621913297 -0.5070385126864428
Ni 7.577452198771102 2.2912628297426725 5.351194572576061 -0.2715200637960163 -0.0837984226738944 -1.5125951592931435
Ni -0.12656773777986322 6.722014595038982 4.113119143263659 1.4817311227244352 -0.5804427366102068 3.29257373450611
Ni 8.222824515871213 4.2349959760895315 4.219991978626399 0.23553310417844597 1.190854251668362 -0.7580851391194556
Ni 3.15569630644896 7.044868552255913 4.102340875561346 -0.3402106842941947 0.6332678508310384 -0.9067260121900319
Ni 5.2645526631496296 0.4332459035099811 5.310604075058838 0.07815176591107831 -0.7540839883798627 -1.005989877489377
Ni 6.169686638721424 0.2781300192056721 2.5715080443657943 0.8502162500287614 0.0242861262408743 0.4432183329066883
Ni 7.08638007801132 7.693839218545692 11.35428137267517 -0.7494948263472835 -0.7566898014338259 -0.0952251764535973
Ni 7.521873551442619 5.5575291355145335 9.757848584879394 -0.6787059285591794 -1.5051633856054467 1.1415883155536983
Ni 6.578164526785741 7.44141409067574 6.297017860435572 0.03708867732218129 0.0890738121402208 -0.9842465722750146
Ni 6.663434216003057 4.356985606908137 6.166622448621311 1.6498990100843454 -0.7310481896063216 -0.10760298129265984
Ni 0.448409309706645 6.730488427716203 0.6839100775925554 -0.9564886854354557 1.3991537169418355 -2.287821586078576
Ni 0.4603099640473933 2.630635633498697 13.548084872266825 -0.2335258439404301 0.9461829326340737 0.4676697810808333
Ni 5.982264849969471 2.8123802340213575 2.7103754244276432 1.0703381618584598 -0.09771606119625106 0.057860619762210026
Ni 3.8534497740587574 3.204777416510091 8.68377304706755 -0.07863667596729683 -0.7269423949680641 0.737223208068782
P 4.4233965903982595 7.544899257397224 5.87771322949851 1.119139499631879 3.0420225596522767 0.5935718177929971
P 6.68460481447387 8.002579443448749 0.9397051620222612 2.1332790028115842 2.7518280593752094 2.51258999554135
P 8.931531507568728 0.6962516695412603 8.625909541225111 -0.11196434358514912 -0.25645082816771964 -0.053963855810965126
P 0.6628382938922364 8.612620819023375 5.014640786423547 -0.4920584943378429 0.5697027244848833 -0.5245055591229548
P 2.769088177967437 1.9166709502390789 7.039532554649268 -0.23316074729152747 0.02623013734112257 -0.8679969710509502
P 7.476362824126676 4.7783000929884425 13.586219915958768 0.4925763145145259 -0.02946329956643958 -2.4745708359850997
P -0.042849254016332 4.20295575286444 10.494469817026491 -0.6305553369958817 2.8965914517682503 -1.5461164309790403
P 9.113537128239862 7.936420157958939 12.231324919197164 0.12930000665011923 -0.042280248825449764 0.37685687476231866
