# total energy = -340893.06291460537 ev
CRYSTAL
PRIMVEC
9.07979261946831 0.00000000000000 0.00000000000000
0.00000000000000 9.07979261946831 0.00000000000000
0.00000000000000 0.00000000000000 13.28919429809746
PRIMCOORD
 96 1
Ni 6.219031292991481 2.09922984487057 11.680071528090487 0.5263477545380161 0.4390377191664374 0.10544299752686356
Ni 4.736746102786698 0.2657864072699798 5.881039652564795 -0.5108167487819525 -0.20994317152448355 0.08906455616884017
Ni 2.7135322799459742 1.812635277341895 4.754381783578452 1.2077168317516556 -1.088209642822242 -0.12907632067508737
Ni 3.8219297784229727 4.4379119750936376 5.17243358557298 -1.5249824772139027 0.5343909365574667 -0.24908384627968716
Ni 5.098176319332334 4.2934343183164145 3.066800671097125 0.6882452355081825 0.6498262694103518 -0.6027074615456781
Ni 7.4469733382965915 6.067253483119179 2.6843770665276945 -0.2907938244239637 -0.8648129168960137 0.17446220500905438
Ni 5.037032997264849 4.504811885547043 11.41412894839111 0.33065800760875314 0.19846011058554852 -0.35340764260044294
Ni 5.545138180350158 7.849208141918449 12.535390696750083 -0.18711768898953582 0.1681437189901943 0.6819313774750126
Ni 2.003401715809056 6.3568443821421035 0.15419939050719916 -0.5072976798851005 0.40674389212973816 1.0194565445172443
Ni 2.583073822644872 1.4005579787510507 0.37400209711211047 0.29112395406987285 0.09074322942284373 -0.2924277604829609
Ni 0.8064862291372688 0.1071778695700318 4.636400777002795 -0.8079761104126277 -0.7502353040577338 0.36481408466517173
Ni 8.611556592186956 2.401269139283236 1.3549928565159364 0.3005699299741211 0.441390278559014 0.5931972080623977
Ni 6.948765128934711 0.5449300971496236 4.763365330185755 0.1677976485046852 0.979300541123649 -0.5887083190531086
Ni 0.717250937342342 7.338460739242759 2.531684921560027 0.47834834384060204 0.7656750356515717 -0.3710991463429351
Ni 7.448344386950021 3.7064711381779265 4.112128115557913 0.9431953107606595 0.3964628219187043 -1.6414359669186571
Ni 7.59277664476521 3.9724182577735068 12.819022528016415 0.6739663569916651 -0.3513646440284852 -0.76957488492661
Ni 8.319614026930667 8.90462505170169 6.711322201641842 -1.435231436500999 0.7354414335780108 0.5269324233968925
Ni 6.79276521559324 0.5782148001545222 0.3240423553520981 0.2551164256270122 0.16332367189373162 0.17324273077965646
Ni 2.072735010627487 6.830518992420773 9.248002824984097 -0.4854998672837187 -0.7329793451907635 -0.22326457122373805
Ni 0.1805707395735496 4.970986587297684 1.3315243170820443 -0.4272070450800965 -0.3140013728886786 -0.07366210557084088
Ni 6.47124976646796 1.6335545317023032 7.0534923625341435 0.5268648033837506 1.2647117610794605 -0.5633099335846622
Ni 3.220157456868972 4.180608817869344 13.335706298967681 -0.4455315544208972 1.0589846845188535 0.916211583082964
Ni 6.128178890168901 5.738428801106412 5.117310165871213 0.1228640212167884 -0.5319098220068259 -0.5673699625866486
Ni 5.638841637988477 2.8660818721728556 9.162660040193973 -0.4890605880517835 -0.0696522130804994 0.8047583748062785
P 0.04010181114393446 5.729412567246446 12.366698141603129 0.9587651401744585 -0.3727433668145774 0.7239609437422371
P 4.1031945078088485 6.165406039036838 12.464732660219498 -1.6401105632390143 -0.8084335096650206 0.7572135351477797
P 2.340162136385378 8.26163955241316 1.237169838328156 -0.7535754241745602 1.3258875612578327 0.4863331618182915
P 6.482554108014442 7.800231741676095 5.956549022178341 -0.5925809146346375 0.14865115748322144 -0.005152233624900804
P 4.6732783538630684 0.8528685326889964 12.80082934797088 -0.17127737952316954 1.5792600076105447 -0.7722930551887216
P 4.068001232440038 6.11481343574607 8.248310417159956 -1.412668977819451 0.16379495510319533 0.8380927272923502
P 4.775226263006775 1.0742483992349714 3.715525507166002 0.637811761447979 -0.49027774828833626 0.47835374315724066
P 0.2924301501085346 5.599889328563245 3.6982630058421666 -0.491007170255193 -1.2150424188787914 0.07218140726025635
Ni 1.3871380455737796 0.8850364212278569 2.484866787972772 0.6677432589000888 0.5618246072883872 -0.48349363548696733
Ni 1.919595231894163 6.50023246383051 4.739232149947684 0.6569852490526363 0.46967215622284275 0.27999544825687905
Ni 5.974975552888729 5.605055730442723 9.258023283884256 0.07894058036096083 0.38928198789954893 1.3819023860605557
Ni 8.202484704882767 2.099338802379452 10.264307620995746 0.7669546736949436 1.1987925326788322 0.031066896608133592
Ni 2.290713586937869 5.3543626620905895 6.934168454661518 -0.3197873834428363 -0.42197999235320227 1.0495309953051213
Ni 0.4516697333807562 -0.016024017639545248 8.930564202649474 1.5393248619785038 1.583029501955306 0.44816462116837014
Ni 1.234715570440594 1.0600385241183075 11.361981884640297 -0.0022944524611315325 1.7140683456734027 0.2681948560775252
Ni 4.130470204198917 7.087486197326014 1.531752807216346 0.5424297477015433 -1.4434342840267658 -0.30133431894397134
Ni 5.626157167996158 7.669491810810381 8.037716436014037 -0.04553295143479255 1.2120931064424803 0.24382054099821882
Ni 5.336929460669507 2.803431304565839 5.03508992168979 0.24361485274531594 -1.456441752030027 0.1622137266590045
Ni 1.0740032448399874 7.665260627548807 6.917477072280071 0.5651855533408202 -1.2067830070834766 -0.028545929958492776
Ni 5.1816650105129884 4.526830382133566 7.271926744423348 0.1594212515155319 -0.30233164986023414 -0.705827724476636
Ni 8.289296600084315 7.357773457692052 9.33463584827523 -1.5312778233043114 -1.1284641194669147 0.3923742536716275
Ni 4.687115957491053 0.5896616944417925 10.570184943658772 -0.39856187053957814 -0.5644921268182214 -0.23936713321255548
Ni 8.244778377913706 7.235450494387455 4.81475513924984 0.677535305289846 0.04576435071930828 -0.3245778628529442
Ni 7.416919225430038 6.262614296544188 7.2809239107192605 0.38800826339344785 0.08423808131447427 -0.9180892597216512
Ni 2.3478618003463563 5.281315732177771 2.459377994728364 0.14838247720286704 -0.4557609454583893 0.12635686486139527
Ni 2.1265509402226734 5.386577765549966 11.290765440876692 0.3683958884791591 -0.6425014536141644 0.03522488464056514
Ni 1.0755286499643322 3.377682775334787 3.764310323788572 -0.7347438932903539 0.3773908928889178 -0.33326382066271637
Ni 3.739312747313373 2.5058320286401052 2.4446269639842537 -1.2873549524002732 0.32612489562508995 0.20427440327448046
Ni 1.104565826081323 3.565207727912715 8.374425101773639 -0.11569064339680075 -0.2991414250577106 -0.15919062356196453
Ni 3.7702748394206083 2.596266761011972 7.2887107406873435 -0.276552226903285 0.22643088476686166 -1.2745156345437598
Ni 4.15753706536363 6.74395225161421 6.119355147907959 -0.09791635013251523 0.9806814806315756 -0.5646391939190469
Ni 0.7561923510166857 7.621032958735215 11.448693902125369 0.7759257668453025 -1.0324853526767444 -0.2562392263775458
P 0.32704776663875346 5.82541321236369 8.124959621354908 0.42757085617741847 -0.48596343718369855 -0.7642804692968902
P 8.616877350537349 1.8743960252930434 8.096627037128686 -0.3431599967305058 -0.7826710559889358 -0.6572403024862359
P 1.8018666435474135 3.221201632995756 10.612311548509425 -0.5791116765036091 0.2698730151108965 -0.4277086673068634
P 3.9637561358174067 6.104153759460471 3.6370661129994817 0.6579771806522603 0.7357841616294103 1.0458808001470439
P 7.023337463971874 4.0393000086420985 10.632683878732593 -0.6337980123028956 0.24273424991257556 -0.8469044120467092
P 6.3124805164424105 8.092301424026079 10.387365139506052 -0.09082961848906293 -1.5362511081491863 -0.22930949186623734
P 2.605264835287125 8.760719421846096 5.715974474484361 0.16168433651809574 -0.7170685874977779 0.41817475967449913
P 6.89484932162305 4.071551431271102 1.6733085867970567 0.5351584108511105 -1.0333525857730463 0.9260020868108246
Ni 5.078146297282903 2.942479245483788 0.5395575839825117 1.0828648335705608 -1.1357861070496245 -0.09162511780716477
Ni 1.3926040806026818 1.1968619158965867 6.934380921803836 0.9589808557296904 0.7944852750150446 0.454092813727347
Ni 6.8816382236711355 0.5343085559921327 9.073875106102422 0.4234056690561353 0.04044885204366582 0.2476489136053735
Ni 2.8080256795236873 1.6634542880979417 9.214156082829216 -0.8873362948095106 -0.7584299240533842 0.8724372662104911
Ni 6.505834695745513 2.014379184828894 2.516349152184918 -0.47703322457360425 -0.1935971260662924 0.4634845393548921
Ni 4.272696072459251 7.130261099354515 10.510317332424444 0.12471650104449489 -0.5347724882666016 -1.539106832430427
Ni 8.303624512502267 7.280086753859352 0.4842852556852726 -0.45029735124065673 -1.2094528406061558 -0.727969807791314
Ni 7.549248119966944 4.124749934982625 8.299460519704503 1.3793212555969407 -1.302110513442893 -0.07799235751507859
Ni 3.0097968263879067 8.224975350674445 12.233580213106068 0.46164491504299204 0.7475608425493642 1.2994782180263686
Ni 8.998146913491873 5.126632388735289 10.189250425044058 -0.08726735505910131 -0.8480727213231974 0.40369199267729183
Ni 8.664854973614952 2.1790049009568375 5.709024801376186 -0.07710635536569947 0.5129847029675487 -0.0710308385955809
Ni 3.6378642267520407 2.6674069345193594 11.662171625339694 -0.18280466343647872 -1.3456994537774372 -0.5273756815818982
Ni 0.8781884417946378 3.307305304389572 12.79189937213878 0.9774961409250583 0.33529087839507415 -1.0535917956380565
Ni 3.2334048739905135 8.453940475797072 7.919203353603338 0.10434127982225257 0.7222809849366529 -0.13700457438322858
Ni 5.877694657042125 7.774081939544471 3.6772923172993894 -1.4850948969903455 -0.14249567940478686 -0.7276635894048049
Ni 3.19166506829639 8.389937019121442 3.552706669727014 0.25612918316224276 0.005819177784938366 0.10090345778529719
Ni 3.413502556379668 4.126466015747512 9.468218662143519 0.6694926374910276 0.8236215302593686 -0.7852989805300863
Ni 7.16737929071357 6.3893318793736835 11.484468284208216 0.2774575123263738 -1.0907095264259603 0.09488733349820433
Ni 0.4280323098080975 0.11678428993644095 0.2611157620559147 0.7015033860696692 -0.2621219104105679 0.44881639581975613
Ni 4.60385426112057 0.3803416081705479 1.5760985133312253 0.1686034322354322 -0.4194875649486517 0.7688122957289728
Ni 5.814290466665343 5.262012093520885 0.33703372232776746 -1.0981603262770507 2.393360999973988 0.42023781285111494
Ni 8.019753882695635 8.884032082523035 11.471525040132303 -1.2906410793507128 0.8684854806515947 -0.115081291947576
Ni -0.05107020037136571 4.779521004815199 5.884361948606449 0.47063169192263465 0.08036420018136482 0.03803072952047644
Ni 7.827852470177624 8.824223489939351 2.35338322210894 0.347167318117686 0.08905941396251758 0.9087438139510092
P 8.629589059906888 1.5472601846679437 3.4208780717517233 -1.1906349365687043 0.22856901415578704 1.1254147911176295
P 1.7539616588090632 3.251319304409157 1.6215873653101227 0.5117711422754219 -0.47328429905413333 -0.7456528268933739
P 4.770423052823571 0.9339020480028482 8.360816308914307 0.38322241196903034 0.2001444402665069 -1.05716588614256
P 8.459061478714515 1.6849733961020907 12.553118991424387 -1.1072314353403834 0.593093849715314 -0.5144479177766366
P 6.33177507530689 7.434316107681493 1.3469926514262927 -0.20577772729288432 0.8780481846393653 0.29112061163576314
P 1.8764752977542036 3.344695889520832 5.931206413591682 -0.20437956139377705 0.7274910683826826 1.0993396912971325
P 6.942100561308109 3.8751373619269027 6.147009471641392 0.19504877091115438 -0.08923244920527212 0.5769918019471288
P 2.3858516517764663 8.778951644998978 10.262673258362518 0.4086835323546123 -0.8551422265754692 -1.5448506768927395
