# total energy = -340873.0296765207 ev
CRYSTAL
PRIMVEC
9.23260166401002 0.00000000000000 0.00000000000000
0.00000000000000 9.23260166401002 0.00000000000000
0.00000000000000 0.00000000000000 13.51284578095599
PRIMCOORD
 96 1
Ni 6.776258895877784 4.2282916000713024 9.33534963039425 1.6406409818211873 0.32892996917405287 0.5816812370029982
Ni 3.4078733669970758 7.924757635724303 2.011116426200727 0.10942563632369542 -0.8350986776610327 0.6074272356188506
Ni 2.6440417506671112 0.3850899766813269 7.300693762514428 0.1709909586310023 0.8381775736966726 -1.002966003061389
Ni 3.04548451174678 7.847056058546997 13.114028292488914 0.1942257607892268 1.0306377579450443 0.41993647956061225
Ni 2.7019209316705024 5.798037031967705 12.101415909944357 -0.4677219744750074 -1.4562244938128985 -1.5989163483888915
Ni 7.087259089225882 8.732767251910898 4.734630567080151 -0.42294029938394256 0.4096325265314429 0.42730397566927697
Ni 7.938218769222939 9.092469420022578 7.253142169941471 -1.6830004206240048 0.3050978997514617 0.1508581924368692
Ni 4.552974509362458 3.9751613551247447 9.110455451688347 -0.1722816524179678 1.8302752665849897 -0.8061089752969021
Ni 1.449740073038199 3.9977166014465317 13.055287709732834 0.6942811572896173 -1.7241871792749595 0.15673907669767842
Ni 8.124975839463263 6.473909650463994 8.11531576814665 -0.7683644095582768 1.0792526907392703 1.0448842405617296
Ni 6.231221478210823 5.877298918857816 5.02921150129658 1.2236972663403118 1.4683585580722711 -0.4697480037661007
Ni 5.098344300696053 5.698306466774112 11.11709960555249 0.29866345698002755 -0.8997912327434117 -0.5528015778541705
Ni 0.6602132024969513 5.081577895734789 10.422431256208107 -0.9192825086988039 -0.4489449509778204 1.002194672113003
Ni 8.655407281002075 2.44874452371469 12.15723714399518 -0.6418162546216818 -1.055626309569582 -0.15875816401023626
Ni 4.153396733856673 0.45587079551118764 10.057881972124697 0.1592988670050547 -0.7351616975540629 0.608423538093849
Ni 1.273914403389359 1.7243268846862851 3.270338067004538 -3.026506466294549 1.427454620769058 -0.578093776762056
Ni 2.714578828808108 5.8386881779172874 1.0020669047104396 0.08050123997986136 -0.8834819540604268 0.05866820326516992
Ni 2.9096360081124053 1.8997186220481324 13.11393319668985 -1.6985419679030298 -0.6775707865134718 -2.373624954997641
Ni 4.556362874241744 4.4181415919316835 5.637478392739538 -1.2426432113151955 -1.208555268492551 -0.016929685875803104
Ni 6.7316100333267554 1.6027519835134263 5.780525556037073 1.0212128650867187 0.011920405586669791 0.13402852247404012
Ni 2.0492036786163097 0.09631819554949375 11.53172744533545 1.4550582414189392 1.482629980389621 -2.246795264264885
Ni 7.791521958413738 8.45409963024471 13.338746128499464 0.675709822045333 -0.33838340127746885 -0.48164681208621557
Ni 1.7478515542024187 7.08149794567091 4.0523809904854335 -0.14033183898424864 -1.2943941186352417 -0.9677125791757334
Ni 0.643263068758855 0.45009949609418015 13.213157815302011 -0.8528092075669184 0.7231335627449352 0.4842174010268692
P 7.290597912390451 8.495452453934961 2.0346290933344537 1.0749203819125035 1.0136065134943706 -0.7454363400071936
P 1.600702345902523 9.138180031786462 1.5436125523573851 2.331447550298643 0.19592320309630776 -1.4480969796097576
P 3.864148550469333 8.3280007541649 4.301246696637054 0.7212941955433513 -0.6818794411911546 -0.6649651819343193
P 1.0410958825148158 5.936655316157354 7.993199836505327 -1.1090504908269931 0.5713248334693387 -0.056913682467908434
P 8.516050388664354 8.89779077739417 11.307873780858147 -0.7764852388931982 1.2568094755132484 0.21747290424262547
P 7.166087043829001 5.168327422725994 2.4124483960581844 0.6021934980237371 0.053725514547913925 0.9302125253477463
P 6.632645774086789 7.327777600044088 6.616497953449537 0.16356741247342152 1.2637848783898171 0.4837029232842961
P 8.221779669870115 1.341247768688088 3.9978837115400334 0.2893306096148759 0.6203112906703703 0.4943694018592067
Ni 8.358902272559915 3.23310021395924 2.8839389073807515 0.6635374483488573 -0.4457421277698065 -0.8699921471041082
Ni 6.4306364455887515 0.8348884899551673 11.657789391007856 0.7721909823932185 1.494051334852685 0.7439371297538477
Ni 0.3704784609920676 8.889398342311685 3.0730779888986124 -2.9824696397893087 -1.755425825574267 1.6310474245954811
Ni 1.2632692134552532 2.418710869893661 10.729915674771375 1.3337857330589866 0.20076047658395105 -0.11028695588272619
Ni 4.098905917732569 6.01817919050094 4.004086173463478 -1.0866731515730574 0.9708596094451473 0.05130842046598905
Ni 8.158157810515455 2.798300062392212 7.577774299922446 -0.8684870233134914 0.2587805047421608 -0.04028404433102739
Ni 6.335005155616966 3.6930869033755656 4.087595057205012 -0.6552109307610329 -0.6066052539381876 -0.4539704292168698
Ni 4.992067820790161 5.552126681668564 1.894825343067147 0.03267769273867921 0.3957010040520153 -0.7884989755246227
Ni 5.937403156907278 7.893366789431189 11.437758946957016 0.17047159579242252 -1.268843523859647 0.14660173115336042
Ni 5.7724811900443695 5.4159458043675555 7.497386035606523 -0.021286934403234307 0.5239013498800525 0.14993233818849017
Ni 4.953789453516264 0.11519978959480162 7.053449301247828 1.3507442152901963 -2.6824740942614187 0.32703660880608193
Ni 6.197559411862383 8.016649721946468 8.955611793005898 1.0142130367301179 0.31609039420722335 0.017984095282246447
Ni 0.3890747676401822 3.3624951288998246 5.0673439934612325 0.07225262681782395 0.5680749590734733 0.024019759953365086
Ni 8.194838937669143 4.062834142301041 0.46569151410000675 1.0672937186051812 -0.013204928726048224 0.18470805110677868
Ni 0.6565487828223228 1.4040663916817187 8.39478847269424 0.34609645365101044 -1.4621447159520755 0.4378429275273879
Ni 8.072396171922298 5.102092737047524 6.441925147871866 0.7603135142293421 -1.5013321847848142 -1.6615090835194481
Ni 8.094739068401513 6.943941410694117 3.424020264374142 0.5819954258093073 -1.4373736796549825 -0.5276549033852138
Ni 4.69364243116301 1.5114415512078692 0.799963403673523 0.8552329865170625 -0.43430251847429713 0.418590249945363
Ni 0.7310374145555113 8.100629468382397 7.4752527191893225 1.8444271326053399 -0.05445030852908042 0.7007415682029803
Ni 6.159290277190338 1.2779767482037618 2.694366816836083 2.006002711459713 -1.70366566228284 1.4457331073632715
Ni 9.109032707743122 7.827159801558273 5.455703234457969 0.2838305057322531 -0.8628485940807914 -0.5258224781621653
Ni 0.7778679409239114 5.29420471636138 2.4532297216938646 -1.7065897779081705 -0.13575476113652749 0.3716761018923277
Ni 0.8028116613445305 7.455759926901484 11.849131371327346 0.450371913232334 -1.161455743901587 2.5040122811746683
Ni 2.874533655875224 2.7897783708838166 4.489710874959613 0.43813551906714215 1.0451639765856773 0.9208297985812658
P 4.45550593162234 0.19806239120677072 12.360929575810639 -0.8656852921986382 0.6493256756248494 0.3313810018177067
P 4.547693461103734 6.176776825095971 13.201834029131863 1.3123525028858753 0.6734482797046659 0.7520037088120661
P 7.43616834577384 6.427654315190906 10.227102638409391 -1.1253083474467522 0.1378941760770335 -0.21306551920354916
P 4.578327234045072 2.5859871502285525 3.0148507388054417 -0.6007896756976749 0.6196682577697328 0.12313064461461373
P 2.725981092093989 4.720315417910306 2.866290788942726 1.14028322358903 0.6120994442835394 1.3401864943790078
P 0.22866477330181617 5.498448334507339 4.694862981127701 -0.7848017291786935 0.9977551482844108 -0.5202035893134912
P 9.413745499230744 5.589934186248063 12.85751337570381 -0.9672682925494631 1.546909359193981 -0.19065038473314264
P 2.1526549823558208 2.675949622663876 6.920509067196493 0.6672604057263992 -2.0559492185811687 -2.778300908854757
Ni 2.2092415991000838 5.123678560174965 5.480918393373005 0.2654586880932847 -0.43156737893132124 0.4350532805973927
Ni 2.817577735056924 3.024341853508183 1.5802872166897781 0.1638916285820597 0.36653389556975585 0.6475927520941428
Ni 3.1568204574669734 2.3166813868391904 8.853941458163428 -1.9804500598015893 -1.103691797618241 1.1530065846929691
Ni 4.647119350436245 1.0710649081228885 4.922581412739799 -0.48854405342668117 -0.31735434852131156 -0.9447914516031858
Ni 0.19845108374469428 7.5091982264145845 9.76927453130581 -0.2606926341632091 0.49308565005077665 -1.5151330952236486
Ni 3.2989378977581203 7.482257494213612 6.265028496408321 -0.26598499291039995 -0.38425985209460917 -0.3358632059587764
Ni 4.191628938121315 7.184302967280858 8.57080618046158 -0.42295186934816836 -0.4919394522614753 -1.6992060838495895
Ni 9.35391823923681 1.2513406918638699 5.911194570033084 0.574928491660197 -0.9870457322867067 0.043976919801582325
Ni 1.9678459911060397 -0.056704794047954525 4.831477790715702 0.00759709562096756 1.2751311566405716 1.4173481284626752
Ni 4.999370808854235 2.738915967287122 10.97893094907298 -0.04993982225323657 -0.3157252975583208 0.4550960581808808
Ni 3.230127316163245 0.8555113527095577 2.9101539570762416 1.50192688094602 -0.5136539611204315 -0.8457988376873563
Ni 4.447575126632403 3.959096627904151 13.124770424742456 -0.16609866353570749 -0.1471735444964304 0.12635892174392432
Ni 5.663656512027626 8.163143415514948 0.5878859228570621 -2.285344585292993 0.13701974389188015 -0.3604007860888245
Ni 4.6241948000404225 2.355559873233397 7.040409174393595 -0.17059578007511267 1.5989536293847302 -1.0962481968560023
Ni 7.056643781488246 6.144638138052934 13.994848976652388 -0.1846589430363981 0.34204645195135286 -0.5294454196267333
Ni 7.6613515049176755 0.9157642356488193 9.568419278039137 -0.08397274346822957 0.24065217057256616 -0.37350184224715677
Ni 3.3297747879401784 7.5247274627278244 10.573680662989993 -0.6377009469017276 -0.05981568660605182 1.212114703709035
Ni 6.168725996281974 3.4592804941029742 1.556707151562539 -1.2893953798690698 -0.3984680252741912 -0.39307025129738754
Ni 0.685303721287 7.131344763064005 0.8354793764736258 -0.4918625762769529 0.8918457526440898 0.3291374571991686
Ni 7.157703841348369 1.4918130396728222 0.5744395615213884 1.0542438273997585 -0.28553360446628895 -0.9191488113344171
Ni 1.0659962097067357 3.716177640604706 8.245092912803862 -1.0687294226104431 2.1045317554755627 1.4142692324270352
Ni 2.611044431651938 5.464749337751496 9.385225992113266 1.6525007093732507 0.3370402569860131 -0.6768855875209892
Ni 5.765584436461736 7.587989250610299 3.165910877249385 -1.577052972656897 -0.08453015863359636 -0.0008978292239210343
Ni 7.782871010479429 4.739943929445353 11.556348024691289 -0.750943642978668 -0.2435022384268516 0.3848640613375114
P 2.9348410111654055 3.8613880025159095 10.846545594392886 0.5507755485630772 -0.41370309705639075 0.7285997280658291
P 3.480266198110106 5.42395970277415 7.245007324450629 0.9466696424625052 0.8352675991387292 1.1563857855778472
P 2.1096772207398082 8.848470218306575 9.186857078525046 -0.26804444654259 0.08034440268702292 1.2213485636024772
P 6.424561393570849 3.595212091154007 6.365158833262057 0.4714595871405687 0.6723576177436486 0.14144898330782738
P 0.4350245037920049 2.409921432931589 0.7202426564714206 0.5660844110060058 -0.11626091407797397 0.8680514784379695
P 6.554953429511333 3.1770675533260317 12.658671752900823 -1.1011173520228457 -0.6601873009297018 0.1476494556915844
P 8.56956254899226 2.955171200441122 9.90340300121536 -0.027865616062016527 0.4153036087742912 -0.9363777736181939
P 5.488966452406449 1.3911684468959895 8.723055478023921 1.3328282542417238 0.0637013948137032 1.169397881566799
