# total energy = -340866.4095419354 ev
CRYSTAL
PRIMVEC
9.31308232090496 0.00000000000000 0.00000000000000
0.00000000000000 9.31308232090496 0.00000000000000
0.00000000000000 0.00000000000000 13.63063735743220
PRIMCOORD
 96 1
Ni 5.208806928055166 7.3895023999518745 5.339774941764899 -0.8391633346487097 0.26935519493421356 0.297446553853791
Ni 4.146417065158879 7.950745991427499 13.266739977550008 0.19555913488866963 0.7955072885216558 0.4779071425381253
Ni 0.4486167620392887 3.2646916857193102 7.941645247408018 1.3836098556699654 0.9230000667597071 0.016761792839371133
Ni 1.0181154696619323 1.343104789457057 0.8173784999330223 -2.8492592423411898 0.8876060035311294 -0.5161939539334659
Ni 6.385598693873372 5.839125650918927 10.38928532238289 0.09670510343323345 -0.0037185865021677894 0.21971387775800222
Ni 6.6413731860459215 2.5528183011910057 9.037971050882064 -0.8186418176565903 2.6711900367071677 -0.08879998965354384
Ni 3.7537588894022873 8.491240035548023 2.6223032082001594 1.411917187255091 0.09115923391433976 -1.1101558080760299
Ni 5.7994705465033025 5.595551296553909 3.6522341853708054 0.7592519057340472 0.014511563352613718 -1.3247326217177828
Ni 6.725814903222171 3.462603997587897 11.792845985563298 0.3760269226618556 -1.1368837109891776 -1.2907529223382286
Ni 0.6356513937863508 5.301332400664192 0.0894689189995358 1.2956292765939235 -1.4231580502762329 -0.030161611185044828
Ni 6.179807514382517 0.1535038102491723 2.0543821367184285 0.9923442616814845 0.18943810959259633 -0.13365956917039562
Ni 7.093085616640343 0.858224747574283 10.436528726253153 0.4639892469054525 0.8020116652990767 1.679380307372914
Ni 3.15586831909259 3.9978827156227594 9.00386747482298 -0.39819445989783037 0.7903938785544904 -1.003934023401613
Ni 7.539992496770118 3.405943204900095 6.655608232335091 0.39516441482225495 1.024159092199236 0.26496400784505336
Ni 6.232323985448677 2.5520918807719317 4.691188607977877 -0.39296457895745873 3.4799845292560323 -1.1813504259429848
Ni 3.313836820994381 0.051922296415685965 4.707395233789072 0.5377529110511642 -1.439182450728947 2.1122314381126652
Ni 5.768141337660145 8.341997891757421 10.870187746817116 -1.624690629139518 0.8447477707150226 -1.442691235213154
Ni 8.74891439650892 2.6219586241552135 10.360374721011958 0.04931658684694087 -0.41316419383378516 -1.3818645908440845
Ni 8.190110832594804 6.603310618702883 13.160107979187496 -1.0987190269939981 -0.031186195794817257 -0.7459767858916959
Ni 0.9569657713075426 5.502308716608104 3.7170336806769293 0.565809045857432 0.7409153122083885 0.4598250882254339
Ni 2.164155437739323 7.287943237515899 0.9743244253987317 -0.12812629805699224 -0.21228698916631183 -0.11592898465985195
Ni 4.186528510606999 6.314763389931324 11.600081014279613 -0.06281976353969826 -0.1667905473964095 -1.5050368873299111
Ni 9.153353621369732 4.875631408922011 11.48787420485482 -2.8979741910483896 -1.1685877269606777 -1.6823591874955799
Ni 5.839637870445197 5.171591851201048 12.925142638096737 -1.002716348944428 -0.7128589202918045 -0.7366663071240475
P 0.6287708885861951 6.7282735569482695 11.685995129766832 0.2966150590914311 2.534586040196467 -0.21934235335119642
P 4.738459019786799 1.8519343537717752 3.0802516786998653 0.20149092699207233 -0.27473394274762364 -1.511294695314165
P 2.8219663795403607 7.054548082100218 4.886392675514837 0.19493744214427072 -0.5139280407174246 1.0765170369756623
P 2.595313895706857 0.07236358074679321 0.9444610957089378 1.1089877559098578 -1.20502617229337 0.515856368088389
P 3.509271852972278 0.021549541124310474 10.949545452368074 -0.3403778059996783 0.10693732268420292 0.26757264911249407
P 7.655400212579987 1.3891021029161386 5.66945898634535 0.5896238888888425 -0.4232760854568065 0.6592956423533677
P 5.041907180231679 3.9793962472655457 10.284083813461015 1.202899098648038 -0.38665406335839864 0.2364661575156766
P 4.507429387274256 6.49851050362796 2.117833097708117 -2.4179386893133517 -1.0908794763449212 -0.25712959940229907
Ni 5.694642492181491 0.6085652252371723 8.557286552573558 -0.08185518290459451 -1.3020362085615318 -0.23362817384624926
Ni 3.891033722442754 1.9418614764202655 9.777678444467902 1.0410337564673877 0.5163096535757237 1.056504341299161
Ni 3.528102905374437 2.340154066965832 4.855559853958048 -0.24130394522395215 0.9405144214943867 0.15246924567773096
Ni 2.6172927699250055 7.536975058106271 7.437203076162863 0.8143498751494556 0.35545449782714267 -0.14823001078540277
Ni 1.6690906090578344 1.4969103435726139 10.976847684426517 -1.033194205818311 0.2929496944247019 -2.3906726545085473
Ni 2.1474198288537245 8.051038574671242 9.95981160100267 -0.3103390935457429 -1.1475347629451205 -0.1534506357543938
Ni 7.174081493367137 8.55225935075027 6.426913389554113 0.15759216872659312 1.0183679394387557 0.6779695646137872
Ni 0.32313135987710717 2.4346073476100933 5.492396803120657 -0.19779830863183356 -0.7622593251018034 -0.5871427743382017
Ni 5.020840988078521 4.032005849154664 1.5692683364700295 1.2884278737494779 0.5088056318891947 1.7461001772979672
Ni 5.922878200005285 0.4107572198902992 4.321361453469501 -0.593375899732107 -1.8506034366193806 1.7701114526108999
Ni 3.2713132872316426 5.280117199194302 0.22231165617541937 2.211594805104353 0.9596519136547861 -2.263470410927721
Ni 8.876671259443055 6.788557138649146 9.615746294741006 -0.3432805814687701 -2.425304899870436 1.7811695101972747
Ni 7.796996315805717 6.299899710587186 7.349175822302721 -0.08644588759907047 -0.830334680613486 -0.36703937445126467
Ni 0.027173711522759453 2.8240525099746256 12.540090456651148 0.9164548094420217 0.3595523220456001 2.246950816006143
Ni 7.565203010544917 6.706322621977008 4.840116900895111 0.37082995184194845 0.6424315196081773 1.197638107359415
Ni 4.889908364081512 1.3001435408264141 11.885275533424677 2.211249505949792 -0.2828030929090033 -0.22958974211081748
Ni 3.3342604104691262 0.7171287568678388 7.985154105277655 -0.9676449591625915 -1.0354212953766169 -0.9643480335788747
Ni 1.148731448860884 8.672826514152028 12.489371410468081 0.29762653107508097 0.2630593346231727 -0.41028250141061606
Ni 7.93191493902534 4.525012486648775 9.07422874287617 0.3699748029305048 0.19626233160328135 -0.15107236533020432
Ni 8.170236714975513 4.786961552383457 3.874549566779143 -0.8118785307908276 -1.5969954772170947 0.143041781716244
Ni 2.144691095741048 4.667679594338525 1.9157177917994244 -0.7425546475840245 1.1059373991193082 0.7841630671534301
Ni 5.501619548518213 5.146735234553489 8.088065527262986 0.25519587271469596 -0.7724146683682505 0.49380144517087854
Ni 9.150205799553744 8.970304988845283 10.17670211197369 3.0260932900165303 2.630255503276335 1.531357527502311
Ni 3.561825576367621 4.9426762883696576 4.107796644186321 0.32525611986689146 0.6945603790929328 -0.5911241275834529
P 1.0742919820703514 1.080075406176059 8.522556206075965 1.6098934162256857 -0.7784451908330464 1.3405410495049492
P 7.4703772066088225 8.36867987253496 9.313610347591608 -3.0468060970838495 -0.8211123906842698 -2.0891115642657505
P 5.6909265723454565 5.169971374881574 5.7071071215262235 0.29278257271921837 -0.6235861047669002 1.353614594859456
P 0.2858538853716067 6.49000765949187 1.7805290891932224 -0.4173756608119715 0.815870168448724 1.1337060845921443
P 3.1832767202892045 2.6447849888622823 7.053282434216214 -2.2785563587265663 0.5329161517841532 0.34906839179514076
P 0.6004702941056408 0.16992463695317173 4.550370147123848 -0.055039091153014884 0.12117943442551388 0.05691342535759231
P 9.264263118430717 5.099964935263854 5.985485395738972 -1.4464450458286313 -0.6775743860578977 0.7062642977934224
P 6.213669881610138 7.112531332474026 12.372447524860453 0.3128706017183451 -0.16729962582234414 1.1822896499278024
Ni 1.893722154033144 4.286513762134981 5.735880820587406 -0.4858747341246342 -1.61867553329369 0.3280791911379834
Ni 0.036185981260429725 8.102567859014044 7.825022174358544 -0.6853020937194584 0.48852734125613284 0.3259541743751806
Ni 8.591970333659672 8.398649371362927 2.793421782303656 0.041209127248458065 -0.2934009230295076 0.936316067142323
Ni 4.627642653548771 1.0816958824955327 0.6702364562001282 0.43988901142313913 -0.08244242286663221 0.5415244622784544
Ni 2.7811657660023497 1.2685442525966784 12.861282832794265 0.43802444741057467 0.6465008045815447 -0.3507545212483121
Ni 1.5807746496465218 7.947207020155085 3.332459260353114 -0.4919911314350172 -1.175712510930917 -0.12751848926966425
Ni 8.47620872072256 1.3140572857763773 7.879271810039957 -2.3380437154589218 -0.884615810554554 -0.7350411128157986
Ni 4.575312444128528 3.280840570420272 13.131101453068919 -0.9284978566494847 -0.9934693764248631 -1.2272698141829188
Ni 0.5892657247955332 7.111106430882765 5.519413123552617 0.11387415901335227 1.2226647113107396 0.5960513896817412
Ni 6.247895459047298 6.3354663718749435 1.05923645323092 1.2459123689847704 1.6565414551015278 1.3657512302219899
Ni 3.5691735982990274 5.560692429520634 6.5228465189751805 1.4941966021812976 0.4455037865067553 0.25253555227371344
Ni 6.487912215975309 9.005247673619222 13.464262071270399 0.33512632779275187 -0.12447944533302431 -1.3343020105737728
Ni 1.4055955716620454 9.250256242657796 6.61478433609134 0.3813275089391626 2.2850183123018257 -1.862303241554812
Ni 1.032224789340108 5.925150592085466 8.060913235829506 0.2548875974456578 -1.6697440698347308 -0.5679901126691508
Ni 7.225871544014222 2.0533018191721126 0.2278426957509101 -0.5737375566758893 -0.4758759710407095 0.6295662336097352
Ni 2.1287098465214114 5.16096562430151 11.515326377538225 1.6215148025146977 0.24651762821440765 0.6178504878347036
Ni 0.09715779974296926 3.3272010940888905 2.2333255625668778 2.422216233642783 0.8558839898375001 -0.8279088447808128
Ni 3.0128845666047823 2.6439095591264743 1.3729867453114422 0.17753827283121681 -0.5376433820564934 0.46391622757567197
Ni 8.802418054298439 8.514289914230192 0.5502290090443513 0.23904471687613021 1.3061008655492088 -0.052417337259451656
Ni 5.089040689730851 3.250181903502414 6.798866720750625 1.1963944647603009 -0.0727359942121457 -0.39450955484707545
Ni 5.635532358849887 7.397530276890876 8.38608602334586 -0.12770540846948975 1.1437976645001915 -0.20631405941232855
Ni 8.476199407640266 1.5597084574933648 3.30413445185859 -0.7916454915734044 -1.5768012616574072 1.0166141899724426
Ni 7.662049753339206 4.347542390419525 0.4309246996019091 0.616373646178861 -0.3776017233481433 0.8523132417671062
Ni 1.9824013236539937 0.9179737583513806 2.979152582529302 -0.20310249445356637 1.89931247178931 0.037218003811193966
P 3.51662918798598 6.153535309225994 8.853848619968906 0.2508177982516584 1.1944561100870075 0.1589625667115585
P 2.1328634812253493 3.50382369982922 13.121506184379529 0.18890332013504885 -0.2036933339600298 0.48115084628640364
P 6.577122231287022 7.858322962723728 3.33121875779131 -0.35933917759352957 -1.2505354695790787 0.09602710352960236
P 1.2444885610265612 3.876477374814379 10.066048724675841 -1.116823964124825 -1.228765939112471 -0.9795743636103259
P 2.0084127625062345 3.409249349115113 3.6003146828798083 -0.7537284048126568 -0.9720364033620678 0.48023553356098586
P 8.35991626209459 0.9790564025132404 12.330288132615479 0.016505968074823185 -1.5565705364328288 -0.04354368891890566
P 7.388850484191167 3.289203718321923 2.5071236629065385 -2.230795289292203 0.24891595324325516 -0.8818665299441909
P 5.031327518743621 9.287964912873594 6.615738927026662 -0.48054432305065625 -0.9884811791816525 -0.719169950111497
