# total energy = -340863.0753747447 ev
CRYSTAL
PRIMVEC
9.32448649183771 0.00000000000000 0.00000000000000
0.00000000000000 9.32448649183771 0.00000000000000
0.00000000000000 0.00000000000000 13.64732851434289
PRIMCOORD
 96 1
Ni 6.230360856381041 4.753212988130861 4.581081100711207 0.25119009398941256 -1.8156652299812988 2.1845113186239993
Ni 2.21164700173376 2.0937388687546195 6.081440413439439 -0.2181871567008307 -0.10320510933528032 -0.7764870386654111
Ni 8.13332072942564 6.966864754482297 9.804117670359425 -1.1675454017390925 1.9768325176536599 0.2820885833404819
Ni 7.382680909648117 2.804302045151806 7.241245232095393 -0.7017183302939528 1.22892406195689 0.7039029966500975
Ni 5.476187056184452 1.3634823766712374 7.494812523182373 -0.015970664396643464 -0.5697991408534316 -1.5244507730801489
Ni 6.842037852450525 7.565823150837781 0.46788595320315596 -0.36773228675323116 -0.8207668344193929 0.7870478449003929
Ni 3.7605561188101526 6.8244518707345385 5.6205161219272455 0.2850407239902704 0.689058218327781 -0.4592123943420995
Ni 7.302816681971854 3.263160030434803 10.01260852835445 1.5213893605460056 -3.9004483420750247 0.6007292547733848
Ni 0.9817192465461311 5.030821603002745 3.387758482545026 -4.071814681767574 1.313325922542738 3.2973793834248695
Ni 5.8088660888795705 5.922867261975891 6.903610234775647 0.4906443875991357 2.5761854609048087 -1.6131985693395186
Ni 4.894562880406922 2.5613059245162657 9.251646501917543 0.16023731965892402 0.3531129941781596 2.0945340208329024
Ni 0.1006018858609685 4.028858896061381 6.964272547209209 1.3112811241985676 -0.13798339335673013 2.409856940746482
Ni 2.6744212713861715 0.30997017804447413 4.251415742083218 -0.560978200127692 -0.8835529165076782 0.2328041352830571
Ni 1.4271779445937767 9.199762261163425 13.652104837716742 0.3789836912973344 -0.08559716644553 -2.1733835841419538
Ni 0.32575373650187167 1.894875543167737 7.93716336984829 0.5044265289848925 -0.42694067879258735 0.5321797878387609
Ni 8.827957682720543 0.36581452825499783 10.214397877834479 -0.6995444625710856 -0.03729436557508416 -1.2695307797346587
Ni 4.890208345167598 9.190698860194209 5.249254228604125 0.2680133361943384 -0.2659500259074065 0.01620951988032692
Ni 8.406108584728507 5.314761544271848 5.5083071151542615 -0.08170914424503348 1.4808595187527593 -1.025176477720157
Ni 7.855469677902315 1.389115390317711 3.1567228808634082 0.038887678204133025 -0.018795535439948278 0.12532328139055837
Ni 5.98704770320131 6.787135275385979 4.225704402749357 -1.046950379062139 2.5916298204843367 -0.9685528156888418
Ni 3.640876333378182 4.611173083846856 4.700522179286375 -0.6300092346844247 -0.7070127459236727 1.0286844908734154
Ni 1.1175770162184187 4.177761622478455 0.054922158486392675 0.21665863587144624 -0.25908235225329573 -0.18106042705186237
Ni 0.09508085734875427 5.795354907805092 8.724573370059971 2.754797169305862 -2.8259987291513524 -1.9320996935226598
Ni 4.728773508768399 8.567198415123732 1.8419795956181864 -0.46942713009157216 -0.8377263450918669 -0.004952716019585019
P 5.037535233350312 0.9219763284907218 11.056288055868006 -0.05520878396165976 1.143356720308031 -0.5439112173430762
P 3.2737060247724394 2.264330350988971 3.722923423366063 1.0554422185832337 1.1489056751507183 -0.18407375995688943
P 7.686286193143634 0.983854553976121 8.293603991730498 0.0010824344309013616 -0.4382699877624775 0.3803268355887901
P 2.495213963539109 4.54632127958668 11.867840084319806 -0.9884930062561943 -0.9929304732022579 0.8659516584861473
P 5.326957972736594 3.940677226343411 6.44718873783962 -1.0403896951254856 -1.2172736222021554 0.4850036443735906
P 1.3563771178867294 7.462852845381977 8.883360052266518 -0.026274874536128943 -0.15775157712259283 -1.989634811624651
P 1.4642800767506767 4.538759120959074 5.4374372872464205 0.48028181341788906 0.34959058284719796 0.644330022182471
P 6.354525719864649 4.836508626873657 10.723060743361168 -1.7186179127172982 1.451170990549391 -0.8049216398570203
Ni 1.2031944521230822 7.229041344041372 4.737642960416463 0.5640748367751447 -0.32653241547615375 0.04465671947742632
Ni 3.3259604476443334 8.437261694438535 11.331472304225489 1.1406321222880162 1.8272796742917756 -0.6291448298016002
Ni 5.467468661219209 1.6997047142720163 2.796638249620327 -0.9936974332752692 -0.03655620185747897 0.45844543426908785
Ni 2.7005671317953066 1.466144974069445 1.1208825467159358 0.37507432894059917 1.257320610821712 1.4953286589032118
Ni 7.982907436180363 7.461360927526961 3.003217587863614 -0.4777816727038545 0.05404870221528756 -0.24710795350023895
Ni 0.9857847227010464 2.0655975682144025 3.7298011646776814 0.47775313345876436 1.1975851426342923 -0.9705677892363413
Ni 9.069508507934037 8.62159746991221 7.523799554656651 0.9687623605964866 0.26732196655426865 0.2668902783334887
Ni 6.123847246019576 6.015580632178469 12.361681678405581 1.0514212703492989 0.2530659708558867 0.6895027620643673
Ni 5.827626955906382 8.316295129856615 11.947717366277299 -2.2125011189687056 0.7925947428605511 1.585682880417753
Ni 4.382499374619458 0.7008852917614371 13.049275846976155 0.8174475402381729 -0.9921264892437238 1.2021658200264393
Ni 6.498607686712706 0.6433681286559779 0.7974655265544812 -1.219734682148138 1.2368983384116183 -0.18606250825214404
Ni 9.031576496470285 6.470168002601486 12.875258548367226 -0.8645388372990208 1.1392059313644511 1.143966843088204
Ni 7.359257799324385 0.5792100661983842 6.093682531888495 2.2568747599880745 0.5735704349704057 -1.9366916837687163
Ni 2.087677952468622 6.4780005713403135 13.138870176413091 0.7637780757391749 -0.16417007905442693 0.8173547234140504
Ni 0.2838028713161735 9.075112524376935 3.3356252779988513 -0.02068503915317728 0.2636440034820492 1.1766604766664832
Ni 5.957022856369137 2.1163414242580942 5.325474446919514 -0.8535856807216267 2.035819794821146 -1.773672687599597
Ni 8.037782039785128 2.9370920587347196 13.1125993678836 0.28395211891178196 3.0168455461660173 0.6027079757663105
Ni 6.596468173515086 8.443210716885407 7.562666812125765 -1.6492287234901981 -1.8745956857689199 1.0349014183174048
Ni 6.6116204642300795 4.004018463775385 1.3447112527091727 -0.03921343697466795 -0.023147127540424653 -3.069015800411669
Ni 8.047675320061193 7.606738998011562 5.3969857995050114 -0.07169598298340556 1.1935562239805573 -0.4469875701411334
Ni 4.92302121349133 4.201305951127908 2.782131213377626 -1.9862836357642308 0.06659234320825305 -0.5693430271526194
Ni 4.341844613070305 0.1255103868991004 9.061048401247444 -1.0027610861394343 -1.5598702902300234 0.36746592046572196
Ni 2.128425958883714 5.954645112287707 7.071772688252302 -0.7269717055441028 0.19301785652405468 0.3335520413270965
Ni 1.3949711678986443 7.398476589938086 10.990016132299587 -1.7285367144929071 -1.4823314753125953 0.12001858134819332
P 0.48826928089729604 0.8049055344077083 5.386245855846224 -0.5124139180657433 -1.0472455417050546 0.8900017574568155
P 0.6846466983582602 6.875410189969888 1.9152383569913705 0.6002137485895469 1.3757422799964305 -0.08799549147437749
P 4.344548714182518 8.204391966243907 7.241572521574836 0.9118008556097781 -0.7189660616308069 -0.3163040528799262
P 3.129959739441761 1.7524719839065719 8.170191614315012 -0.9345618034553775 -0.3325143440912015 -0.6220562983859351
P 4.77453808897098 2.4990183540693973 0.8210583425342219 0.2779892164601277 0.03341534223565213 -0.670968964926238
P 6.746433891403857 9.042943045628178 3.9348251785571158 -0.5828968545776542 -0.15543141362984844 0.4765781393140566
P 7.9227271997037025 6.740773928041394 7.321764971179202 -0.22418476904516232 -1.443097212402321 0.3124515119030555
P 1.2957399815669706 0.2194172913856899 11.357388782264417 1.5119824654098089 -0.24950242187434452 1.6432426811100926
Ni 4.910004230206326 4.736531481614476 8.595756520214694 -1.2811310829777485 0.47187379185985184 1.6700299765062658
Ni 2.553081727340497 4.814400269159657 9.622663161243246 -1.1242711644314896 -0.23709222113544973 0.4865946430097943
Ni 4.481721236464538 5.089202213566794 0.01536861880397148 -1.0940604451760643 -0.40169887350666306 1.0195033385947798
Ni 2.919990950321612 1.6226471570605006 10.381454447201104 1.3507670981083317 2.5145085527203013 2.510972257432269
Ni 3.8127079723295143 6.064888517286708 11.27236624860444 0.715690990423961 0.13552747561706982 0.9239164079263895
Ni 8.389604243457404 5.6685885125618025 1.7065983072108442 -0.8064182790072046 -1.3600058430977804 -1.305331848593668
Ni 2.0658773028122175 8.620254743842697 2.010729491750254 1.231745590566085 -1.480804754255424 0.8721058510130013
Ni 2.6406759544030547 5.840587992271823 2.1885269372243275 2.7021440618865205 1.3700038348507566 -1.094444053767728
Ni 0.41855009463513443 2.0677235511577985 11.662569903994294 0.28966536724647535 1.7592454564306734 0.18403673607136695
Ni 3.4562421743335037 6.990371785185374 9.122720555579118 0.2976728109319841 0.4375629343931239 -1.2015009327489308
Ni 9.34378828109192 4.811537651775347 11.417600721995496 0.7754133459852581 -1.2242472253065109 -1.2226176601228878
Ni 8.46585989482185 9.088633029938007 1.1748191069693594 2.1372852957574997 0.2766499288234139 1.1556867026282935
Ni 8.480005140984709 3.0054778434139617 5.129771189839284 -0.17905393814479487 -1.178945416045918 -1.2913144512686534
Ni 8.913798906303459 3.2565676184129564 1.8369714138686333 0.9535406585507255 -0.3598192025537416 0.07073593306298141
Ni 2.2351820058966188 8.95648640593007 7.269031269696384 0.8096025902724573 -0.41207121787992257 -2.3380663411667415
Ni 7.099244490655082 5.051643181566796 8.675552679138821 1.7321437151178751 0.76678755198946 -1.006749124252905
Ni 7.003752423447539 1.3082814160356888 12.158268935809563 -1.4943300424353683 -1.1166573566399736 -1.785971302461292
Ni 3.0967365937078997 3.7899562250405383 7.579139450142447 0.02396962344172001 -0.043324630929564095 -1.4002361513727368
Ni 8.741939293892344 9.125567321336218 12.537309315849267 1.043045387580778 1.3817925999555687 1.0853739731456598
Ni 5.92291388440886 3.4875817737754087 12.336052394553747 -1.0978440805882126 -0.46278982728071266 0.1526260829705694
Ni 5.7306802687902 6.919002164796104 10.026050708228134 -0.04090368019289729 -0.5208553639648772 -0.9161879289338801
Ni 3.1617748876999525 2.505424276359367 12.708091950058794 -1.050212080532546 2.75108218234812 -0.5640090165342158
Ni 1.7739556010187854 0.17213748211161065 9.351245073021014 -1.500486034734435 -1.2241623789021887 -1.3989197465541585
Ni 6.586528270806049 9.266003413926082 9.846533827426155 -0.03945872021625462 0.16166890989912802 0.2794262060169704
P 0.04936942671975937 1.6547047419701315 0.27191042111438657 1.1905246362430852 -0.8166026757393743 1.5025544872276897
P 7.209030995810985 3.50658507745366 3.2555838850773062 0.751477661105267 -1.243398087203349 0.507064737938688
P 3.8341636159819465 7.881988517775205 13.288567349087963 0.18974947018542804 -0.7085183839349216 1.453448473729658
P 0.08257672082641125 3.6504339321368704 9.433456273972949 0.4955150854278756 0.12787073040276045 -0.49482937221476075
P 7.742410277951974 7.770905908982757 11.58102726873114 -0.9045261763252357 -2.19973764865545 0.03301193614964637
P 5.414421656986839 6.171998894790179 1.741016852126036 0.6691236841873831 0.27821727331053375 -0.0008500067051211167
P 1.9755510011776638 3.821463665241133 2.2367559792336595 1.1462067881623161 -3.7689731821504573 -2.6327942105377886
P 3.3123373727307297 7.5843788791595275 3.60299001189874 0.3491434680074503 0.15456649452639187 0.39086064524057845
