# total energy = -340894.71244923916 ev
CRYSTAL
PRIMVEC
9.02407298632839 0.00000000000000 0.00000000000000

0.00000000000000 9.02407298632839 0.00000000000000

0.00000000000000 0.00000000000000 13.20764298277087

PRIMCOORD
 96 1
Ni 6.269429382862318 2.023242218057915 11.292125369168376 0.8533519674442659 0.8709642812093904 1.355978209995626
Ni 4.522612559525975 0.4077094090689334 6.059045761734713 1.056358559749916 -0.15239391235510527 -0.5113877907940741
Ni 2.7216964203971337 1.4874108297131285 4.904314591094662 -0.341230898028593 1.0628498239012147 0.3008946603033915
Ni 3.5030728267092086 4.340669205896558 5.041515689906601 -0.6314827339061576 -0.5978663314032929 -1.6591925195711297
Ni 5.017231007883383 4.622175153544098 2.5537106000014536 -0.8023901316844182 -0.5116724119140285 0.3392228664596287
Ni 7.187872429303212 5.943768647529593 2.4602798633779948 0.5199282241649174 1.2885078350577939 1.2642304505676678
Ni 4.939551790144962 4.470985839651266 11.551377953555816 1.38187153282262 1.4566399840837623 0.05407544168816494
Ni 5.85896041236397 7.839735344330226 12.292062108874878 -1.2689450824345179 0.36172438999625445 0.3916463743666675
Ni 1.8342149673647585 6.3803893806912715 0.4934371972419376 0.5302941407802738 0.6264063478245147 -0.5989284541192201
Ni 2.678543304780832 1.5403099438375036 0.19390927401988572 0.44576372503636136 0.21236257959925361 1.3960046297898925
Ni 0.38073284616149455 9.077043999366273 4.785208562846046 0.8494387484327885 0.007898686021786398 0.6932403747299286
Ni 8.53556354151588 2.1079782606419957 1.484143212991116 0.3274981218235328 1.2416625925694809 -0.2734306505551678
Ni 6.904516546753677 0.803520578292594 4.8126931810460825 -0.8261226994146676 -0.9291532308452966 0.6077208555998694
Ni 0.4969177820794966 7.354249257537791 2.3098314258532304 0.8306072175485824 -0.1600714835050211 0.6137197534957818
Ni 7.45536399205905 3.879142032103137 3.905275746621081 1.3908156293897853 -0.6352864239229639 -0.3664464780622721
Ni 7.802005696402213 3.7912836603673954 12.587781873420628 -0.5886962348682506 0.06092923138520475 -0.28915628882054073
Ni 7.928117112282141 9.048798651838245 7.146893212798572 -0.06811289361783754 -0.2724844845918146 -0.43900249505312783
Ni 6.9762579246603265 0.5738822932606583 0.5045819270173731 -0.8166425278383742 -0.11939894548632342 -0.9918549807498918
Ni 1.9256468718867934 6.488597036348962 9.130892445937915 0.13909179592956045 0.7218073877343439 -0.15067692966399857
Ni 0.00537203047394071 4.721530193890288 1.3911474366714436 0.6257859406316963 -0.2259032943981658 0.18905810054535827
Ni 6.457256431887351 2.107897043987762 7.116964875713364 -0.35752140765850043 -0.11723433373483681 0.12548654644130003
Ni 3.327247794365414 4.297091958863701 0.09755112821492772 0.10962901058375314 -0.5231966105035442 1.8272585912458528
Ni 5.8748157080849746 5.532866521541996 4.825015552307909 0.060732799103682504 0.566872711235256 -0.5728541256296714
Ni 5.292077189883739 2.8476995474047504 9.174147533575644 -0.46924740998059833 0.995426500151234 -0.028410689932209136
P 0.2999854437075697 5.551519279797724 12.348353371924423 0.048703635853290315 -1.1661261527940627 0.12806947667712784
P 3.9506397600470846 6.3874913259003945 12.7158298553004 0.746972831256378 -2.127448512172736 -0.22266473285621005
P 2.3764083269578706 8.529075233249857 1.5264336272579997 0.06874178545108806 -0.39071177836754 -0.26855275363757614
P 6.373946192788711 7.765061142798461 5.696047023228835 0.14942223132129107 0.17908376294146577 -0.22484708521950955
P 4.72034804036755 1.066780753362844 12.602904414438987 0.4383967431483288 -0.141360280248763 0.5567284237124024
P 4.069468749264036 6.270169356823117 8.156221304956324 -0.4863593870705365 -0.16412791296258183 -1.2287258299031547
P 4.87424457606818 1.1114589372642054 3.8957788125193256 -1.2275536639719247 -1.721424786038474 0.31635547494315197
P 0.24259504860405762 5.543966130953968 3.6090145377137723 -0.005156090279642733 -0.7434229091215907 -0.7099098649658097
Ni 1.3543328297144661 1.0791076366610182 2.754507046300378 0.9411505124164888 -0.13487364408315483 -0.9638420404767336
Ni 1.8767454219652668 6.522157562692965 4.749877513439742 -0.20626469423163188 -0.5396737822229609 -0.24517165570947455
Ni 6.039071879236778 5.504621174013969 9.065937170696145 -1.0894054629025562 1.8939337239758995 -0.6812335800770397
Ni 8.49024464845334 2.5722938728974496 10.300891445166679 0.43216901707106214 -0.3006774020862628 0.577708111287863
Ni 2.3282288028517573 5.145020901284146 7.010088270777842 0.2308518966526928 1.104954980601381 0.15413146387150228
Ni 0.47208533884383386 -0.1718201488827917 9.244821363682753 0.5957017196518063 1.058013578854836 -0.38377442781775845
Ni 1.5945987651565483 1.071031091601087 11.244683111801253 -0.8698201403026181 -0.47599732710992215 0.4816121021935383
Ni 4.009864749129015 6.863664569674004 1.7682787754212972 0.45034800197293406 0.6879217907304926 -0.792538692811635
Ni 5.788301923180439 7.829547166260212 7.8186469888547485 -0.652322039249012 0.14333051660125637 0.4165606211098439
Ni 5.462081695340768 2.833152742224182 4.943197515512797 -0.8976693013044024 0.8978112261989054 0.043685099592776375
Ni 0.6230219787012711 7.4780053904449355 6.691678377853667 0.20864707842087937 -0.29146565368000765 0.6747736833843089
Ni 4.825036307675102 4.544189117334127 6.852046076082203 1.3900766943412317 0.29878918392461445 1.5866534718611385
Ni 8.05162057115389 7.065632340608435 9.020952168323234 0.0142613950150206 0.19628290042857163 -0.25089595978776147
Ni 4.704456648355775 0.4368598710880342 10.543555076723198 -0.9396271337934268 -1.840574848738785 -1.0084283117275408
Ni 8.206645115941104 7.208501459478633 4.471011107054806 -1.2261827517663269 -0.8861456169355191 0.7192475974269678
Ni 7.307278959172494 6.090292515840319 6.701808801858447 0.48952235817955053 -0.20922686218374933 1.1930474026649387
Ni 2.4971143232948956 5.04886940674385 2.4500312240209405 -0.8691269708903354 -0.197169416798583 0.6882917724754016
Ni 2.4053304799378474 5.204841479163791 11.397350568801143 -1.4096505027081014 0.2549493039215287 -0.029810141382897042
Ni 1.1689332562437593 3.3472361153796575 3.8578867312828447 -0.6859636385628574 0.26122408118664686 -0.34909975925370845
Ni 3.5331861572846166 2.4579949681722133 2.9128398161367195 0.13009704863011787 1.3795601110806242 -1.0694189924783
Ni 1.2649674378390507 3.335468724588428 8.145127109987968 -1.1083771189090525 0.16961259022623693 0.7497334247206507
Ni 3.47092005570526 2.5583787528053668 7.320851164502256 0.49018184614042026 1.2118200552867517 -1.322071529945852
Ni 4.059686654465192 6.975942082116084 5.897079900232306 0.24650065893354323 0.12565418236741585 0.5777592762407727
Ni 0.719397270244345 7.486867029829128 11.449520537851951 0.8097709975295216 -0.07060532102238809 -0.7743887613754857
P 0.2839668122708283 5.69566981699028 7.918747417605352 0.3666326259311492 -0.7704860838869698 -0.4639604505500461
P 8.608784867344127 1.8198305954926581 8.27622613084513 -0.5300637699370225 -1.1713285229306085 -0.6525290130534955
P 1.862108376057772 3.262879083848668 10.28574183193024 0.2552886895388184 -0.381114364487092 0.13849427155487762
P 3.95208361167791 6.126876106536363 3.860567783279834 -0.4784308762520792 -0.11356305553083666 -0.5703768677337725
P 6.739348944259914 4.0917762569602925 10.347765185954163 1.4181068610055707 -1.2160634039441378 1.7813302041448549
P 6.269348166208085 7.73262862554104 10.071949818546614 -0.6009251728342747 -0.03173255521659051 0.16851575761763238
P 2.316966760131317 8.550299852222995 5.688187958320796 0.003045985915175399 -0.6130255556422345 1.8779172939429851
P 6.863511160438228 3.9553052056291897 1.7283914717124693 0.58724716112655 -0.8327067803900885 -1.8101702683049985
Ni 5.237797392637387 2.8222697105568337 0.5782084337095197 -0.1550730018491652 0.5757607577535051 -0.9919555108834981
Ni 1.375277702434131 1.0953870637985774 7.039501333312298 0.013954662407879194 -0.28666077609219665 0.04625748830564291
Ni 6.708053460161768 0.809829307512033 9.212978118372162 0.6610164816992163 -0.5722231769138918 -0.3649495818017715
Ni 2.749283010618597 1.437579900304258 9.22582930029378 -0.13709250611134452 -0.04807988622636236 0.15434357988230835
Ni 6.166473737511757 1.9514196234970314 2.49026144249209 1.9237852601196932 0.6416504184677788 0.781139706946074
Ni 4.0523230111479815 6.560500847564079 10.392592267054953 1.2364558515575608 2.3275325315149527 0.6676057048809599
Ni 8.239971016395097 7.071967239638682 0.22748062925112078 -0.9386218324573641 0.35152533797606555 0.7336190356572914
Ni 7.784535091669222 4.061202698677559 8.265805131699645 0.2665776321890764 -0.8361721132308697 -0.6351820371346157
Ni 3.1804983242373717 8.355388906134223 12.457475166145882 -0.10822544536800716 0.19120214347155456 -0.18177082285532567
Ni 0.2769921064866711 4.938387684767609 10.111309214002924 -0.4687568434974249 -0.20472177522454418 0.2731048917846329
Ni 8.547980665540981 2.261062629800286 5.9199162185883525 0.7326610426193962 0.9107703574627347 -0.41250624853481216
Ni 3.7779280327822584 2.6099332800985358 11.213829807265048 -1.1768054868847797 -0.44652374313083737 0.47320999417277215
Ni 1.2071502040971758 3.1324180649308775 12.416095280813686 -0.5543748358785614 1.248420737228921 0.5804373372935681
Ni 3.1899555524192795 8.490966574268752 7.933368220182 -0.15880212987429426 -1.3838142583712878 -0.12673224592294302
Ni 5.42579589904358 7.9050967028431645 3.6083936815125175 0.9099995407349811 -0.053430609015314434 0.46993055209055196
Ni 3.056615854312531 8.413088826931094 3.6883929883402202 0.41156188234367186 -0.08521201519196937 -1.072456236642727
Ni 3.5699863257252855 4.513498246106389 9.35782621638386 -0.40669144162524795 -1.2433021850554329 -0.7474672543942934
Ni 7.398981585875308 6.261370885947773 11.307142328536234 -0.19123839602612872 -1.4739697336114614 -0.2630390229081986
Ni 0.6727590577541378 8.95316152944143 0.2478082553986075 -0.11825994678587375 0.22666356960295805 0.322519951882651
Ni 4.5225042706536644 0.4545596872674182 1.6423045254462971 -0.36690284887340036 -1.0208197434133581 -0.40166390650366957
Ni 6.0834612928119745 5.645387683946778 0.33969677799889086 -0.8994091668136446 0.03875372372943003 -0.2743806731732629
Ni 7.822183522943001 8.945418875071129 11.201388318243676 0.37784854925162664 -0.13401361007570467 0.32591329383491613
Ni 0.18757257017509962 4.729742100040609 5.753737919953012 -0.4732143650481463 0.4620475497980494 0.21115081867933955
Ni 7.714896322699962 8.802937791326714 2.6987175216925436 0.0346561566212887 0.16870241970714173 -0.24992871077848575
P 8.543793495811586 1.6184764615013276 3.690083197155556 -0.881062803095973 1.5001132247760487 -0.40239487113242306
P 1.782768728943902 3.098848514514181 1.6569253280229455 0.06182680349880965 -0.04635210490197823 -1.2428704968346531
P 4.733830004970384 1.0449244493012206 8.168596918247038 0.6130306978485571 -0.9076372111503916 0.17221737483893565
P 8.622826324453907 1.5312768470721505 12.41371834006644 -0.4349324387488122 0.859968701429835 -0.09525397280900369
P 6.21841629993071 7.684033994091064 1.4516782090720013 0.30239361344642113 0.012436425991139873 -0.44389299037620966
P 1.7903128537149662 3.2151958837406514 5.959843228217029 0.29211074346317434 -0.5943464911754925 0.2464924314034271
P 6.988900650502743 3.957100996095029 6.0972554903299745 -0.3860359701584255 0.7418928456303094 0.05571863371854274
P 2.4840203938178456 8.349469114447839 10.177162384477612 -0.1620931419207402 0.5185588546212166 0.3073851531237416
