# total energy = -340895.03503366414 ev
CRYSTAL
PRIMVEC
9.02711137897965 0.00000000000000 0.00000000000000

0.00000000000000 9.02711137897965 0.00000000000000

0.00000000000000 0.00000000000000 13.21208997754454

PRIMCOORD
 96 1
Ni 6.177983409460396 2.084775229705735 11.651279824270047 0.7907648887406639 0.3560543361946707 -1.8167157827330003
Ni 4.746130107778467 0.38486005468043766 5.880080614529996 0.08372566045442999 -0.5379611704072284 -0.30678402920463294
Ni 2.649818229923105 1.3836395006121611 4.836801121087784 0.40686267709578955 -0.011090196375890577 -0.05561527537145906
Ni 3.410334296675717 4.2749961456679655 4.8408967214520136 0.7327098935794607 0.6914619426732672 -0.36896975870475807
Ni 5.177138560479661 4.391951398740404 2.758274457774202 -0.6214508035914522 0.22234977271895254 0.14020045561270691
Ni 7.137429926348646 6.104926998290647 2.5238530171338085 0.11926524812193653 -1.0014174276273462 -0.021102843416886237
Ni 4.95137953577384 4.4754882860460805 11.173636412252895 1.2234632959526348 0.7865081703468391 1.3353492208913647
Ni 5.609726757645789 7.785034885859049 12.583471686938145 -0.43467867086679335 -0.09688148111009766 -0.07573441471883731
Ni 1.7561432454434514 6.605760156341897 0.36019076511603804 0.7879356468219849 -0.5299753239882743 -0.14161739056489156
Ni 2.755940949521715 1.7379897247635598 0.3521891337233698 -0.30274816857236253 -1.864342126361712 0.2947091003179699
Ni 0.44856528132890244 -0.12146790597541154 4.757911390642379 0.18125994465717815 0.02066112789377732 0.14514854364660162
Ni 8.555932130524079 2.118545652810396 1.435215900614429 0.31836582050496137 1.109319942438296 -0.3135791977495955
Ni 7.119420839448406 0.8276010438449114 4.9233133442542725 -0.9087129607130738 -0.3820337909775679 -0.31181027877463074
Ni 0.8976604540868995 7.574233784458339 2.5543330581957946 -0.36626033019339505 -0.6872733585132164 -0.0037489255194709625
Ni 7.562642973641342 3.723358405624458 3.8000482290635524 1.3249005147542152 0.6582916265688856 0.33771388601427
Ni 7.50273003641984 3.7705160346805267 12.699248901995304 0.9390681759661633 -0.19618751250128794 -0.12507542704581037
Ni 7.850201601815357 9.010555506198221 7.105990303363103 -0.10004805176353737 -0.9595963778265021 -0.44721974075659754
Ni 6.7599251618969385 0.8971287572355592 0.41464139733336164 0.4837381473976056 -0.8018622842054061 -0.3380908097377145
Ni 1.9083493678619752 6.230566332364606 9.164830642510246 -0.054545439346048 1.0616015533164103 -0.3341804189397148
Ni 0.022549723848020425 4.819339979839094 1.396108649351661 0.17853868907127315 -0.29570103191759395 0.7749214939505041
Ni 6.379558803185894 2.0653669405651245 6.900516100298149 1.012373669528534 -0.06738372876129686 1.2414363354912878
Ni 3.0137010835314726 4.183000855141474 0.2888296454349447 0.4288024145916744 0.6164926882552285 -0.027107397739753313
Ni 5.885857063004916 5.679777140776548 4.762852831328691 -0.07459284491522637 0.11045639158105493 0.4064250753377387
Ni 5.397020935775931 2.7882941161635504 9.210557474436646 0.21008972440467688 -0.041252321781567666 0.052750552229154306
P 0.17369967425284588 5.549849928869199 12.502534607666187 0.27536977655940964 -0.998427748871403 -1.724515766258972
P 4.003009284362578 5.992846385281432 12.664263429719329 -0.49410303557169744 0.21032292346140552 -0.5584328079980189
P 2.463724331953953 8.534889934251167 1.2263484064387975 0.11756189227758462 0.41953358769523874 0.8843921245795221
P 6.3870151970603795 7.8266679228434635 5.877028548223745 -0.7764060489158305 -0.01116810080167754 -0.2518989471309791
P 4.694792926223747 0.828840466216542 12.544548588744432 -0.5454027142869381 0.49590949265281686 0.23460005084121535
P 4.113483071573177 6.1530415011369035 8.149639908365673 -0.25710903057700885 0.9085170426521838 -0.46449652555917414
P 4.645784739365899 1.1053517156694976 3.709439502821711 -0.8234371821627045 -0.12717807521111 0.8010665277769882
P 0.05663699855679142 5.675760076280005 3.6627873919944216 0.21712040599921317 -1.3808968276141766 -1.4737049099858492
Ni 1.4665444901318647 0.9768056517800617 2.688580645536956 0.31364090422546625 0.4641764232155942 -0.8328471626226948
Ni 1.772130259428577 6.377004130708316 4.625434019813066 1.0941771732595866 0.714147300085925 0.8318364619699933
Ni 6.033197572471444 5.564537038837466 9.108811098361464 0.10450968707931678 0.5459732420784275 0.7682222275534577
Ni 8.748381114797878 2.362367927083828 10.205559977030495 -0.36688510826158754 0.2585951282042321 0.06887162616073302
Ni 2.4538667264927687 5.378605628870422 6.926160317875193 -0.6181135116881031 -0.5373281648089198 -0.31072424479930355
Ni 0.3672896853858872 0.10702543072142921 9.364887676127163 0.5118192219045379 0.16761021508422747 -0.5833902492743049
Ni 1.570536811480622 1.1646598364387106 11.47296910160184 0.3051570351241712 -0.4139923461620354 -1.5544429485668647
Ni 4.001718407456948 6.920770229760841 1.5586562303932003 0.6594051713480386 -0.2277444613719626 -0.4886466404428165
Ni 5.7014060992792945 7.883376235578958 8.00270832703778 -0.739170818713456 -0.19487727833029664 0.30423915129559215
Ni 5.394899564637306 2.9212634645548 4.910814406047718 0.041279575475077296 -0.14237072379114837 -1.0809655596653192
Ni 0.6062039192845513 7.541627858702114 6.983223396081955 0.3315110996376678 -0.8392096145056127 0.27158716958852586
Ni 5.229613158049134 4.677289357552285 7.011761705518757 -0.3544941907964024 -0.47744614374130684 -0.34852177526305145
Ni 7.974811845209302 7.2372788036436635 9.17211010500466 0.7288326700122415 0.11960797617333593 0.508320207612344
Ni 4.534146454806864 0.3659383268350271 10.169107599179938 -0.039145302740893874 -0.9744534974439927 0.8185292033381257
Ni 7.878646029295386 7.185075019411037 4.4684606799549345 0.8555903698564814 0.9028863267289676 1.1008489288528072
Ni 7.374391596088652 6.2737700867027275 7.099304824787505 -1.2536318491162153 -0.555917754885649 -1.2386446316787636
Ni 2.5078398245261213 5.108189484918741 2.5602918543175233 -1.3174877672299117 -0.3175106715935177 -0.7522232810220401
Ni 2.224894050189711 5.225081548212582 11.269806741722427 0.4209970596146426 0.2399934539426448 1.6027472920992074
Ni 1.2624505323737008 3.3271946022640804 3.9511015893782364 -0.981656185840019 0.448434329889989 -0.17886059118706615
Ni 3.4075358921949777 2.706264756432981 2.69900515358327 0.03332432518374261 -0.202048085047123 0.6070665098453223
Ni 1.2258094878984747 3.5058050250250616 8.137379285895543 -0.429151570400977 0.03960861553055759 -0.21916546145369997
Ni 4.055104743260467 2.601884269301412 6.8120477021285115 -1.7906237136316387 -0.12216056739186057 0.762634706163351
Ni 4.035199963002307 6.984826611036082 5.949126280181058 0.44202971191522583 -0.1074875387607181 -0.6956050183073632
Ni 0.727611343614734 7.326078496795375 11.144160185959485 0.09278957042891116 -0.2514011815589542 0.39310084742500684
P 0.1286507783796829 5.664783109026525 8.083275294749383 0.9779347711243739 -0.6839928879897317 0.1447831898873829
P 8.567947215568802 1.6762442839627352 8.087661568095161 0.1477777537393326 1.3941256675996248 -0.18610338879240854
P 2.074908597133322 3.321453359522951 10.281714492773757 -1.403559302208699 -0.6177779827255553 0.538276387654802
P 3.947582821421488 6.134824790678415 3.687295998978959 1.0111660223736778 0.15280811707438846 0.7996174540352874
P 7.0347916716841175 4.051782766328493 10.401230737301633 -1.0809313639932738 -1.3791003978353862 -0.18807053982110836
P 6.281957676586696 7.629028349613456 10.392761501547346 -1.2954223027894398 0.5437831764056441 -0.5695003786660902
P 2.217374466536628 8.375444068627635 5.838224607898244 1.56225935928749 -0.1621065116571789 -0.8767654612721997
P 6.9637121978733445 3.827323645639531 1.644773066087894 -0.8191156719692151 0.1934821977549829 -0.6014118826627062
Ni 4.875145581451769 2.7405497248776496 0.8602313428014523 1.7718757436001742 0.3160610836311847 -1.0620214144626485
Ni 1.4858986166051058 1.0422883166293573 6.99928984864589 -0.2546122322970841 0.39176850176682854 0.7868506412879223
Ni 6.902770169971828 0.7411086803231247 9.236730680731663 -0.8407995847005519 0.008978035128894214 0.25039202356814944
Ni 2.8030624701328706 1.7602325268298218 8.98222572303079 0.31671902893015774 -0.9816728980105673 0.18110053626117842
Ni 6.336508509738652 1.9422371434126031 2.765025834261766 0.5416499321127253 -0.04064142767044614 -0.5919707918544643
Ni 4.102822053212684 6.719871869377456 10.425567829172836 0.514060709640547 0.7782844968854661 -0.03224009098062835
Ni 8.194188702276792 7.074213066417626 0.3414522876285598 -0.7281168748921395 0.5713734273190869 0.3994332174009379
Ni 7.6980406149529745 3.8072834587129476 8.185153466648497 0.1604347803817108 0.04605565670748197 -0.09177321334925484
Ni 2.9604411272851476 8.28720405637207 12.054525396388941 0.6489852615662953 -0.13839528408316812 0.5116094198865769
Ni 0.10099712584324345 4.7180648189700225 10.154310358454689 0.0817543956606721 0.9132296176365046 0.38203713341167755
Ni 8.74497789386485 2.38785146208101 5.907812802934121 0.26417416495390633 1.0374676363826842 0.23549453763102668
Ni 3.7868912144484645 2.581582296149211 11.473220055293984 -1.0876049193587076 -0.6430172169083184 -0.09996063425605364
Ni 0.9899491257283074 3.242448082053826 12.468328175089203 0.0003874652464057843 1.4048836774470772 0.1960684704249204
Ni 3.0843562831145217 8.131585685909291 7.90183396990724 0.3531538747184241 0.5242975568772068 0.1296206232143316
Ni 5.780889813643513 8.054990647138093 3.73018290171297 -0.9718248015718941 0.09038121809773467 -0.6701333563988201
Ni 3.2992466659016015 8.21456289231882 3.651689461450484 -0.7166047604874819 0.5449054629355454 0.05876153430992461
Ni 3.642231757016708 4.423031742699065 9.253946284554944 -0.31867435288431567 -0.9588669558596453 -0.7801189789910435
Ni 7.0893695861697585 5.923391791491732 11.48060603770089 0.9043302582643458 0.35093424135928597 0.24696551438510367
Ni 0.6043669021496145 8.910914252461453 0.18305627504086558 -0.2633264722416304 0.8663422090563466 -0.04187967095292142
Ni 4.740397892148565 0.2833194967412571 1.6130247158983473 -0.9285621342285169 -0.10328969862928665 -0.09185497442978374
Ni 5.909318525086983 5.4241112965717315 0.46431939584434084 -0.4096368974068171 0.19859715038404507 -0.19295897826166122
Ni 7.881778436891568 8.816806617907563 11.290998788041726 -0.07013660891608565 0.3965247855048913 1.0601226547780387
Ni 9.037492406103143 5.098774207907738 5.873936762628089 0.5658460697429545 -1.0865055156469416 -0.3913041605359003
Ni 7.863399238430972 9.033249663825893 2.547291008726683 0.9746944098102052 -0.7553217174417055 0.06309512868827198
P 8.695400998999627 1.6608350050962137 3.7430772273913178 -0.11850548713777656 0.7664967602219186 -0.041970173784198685
P 1.5191093588136193 3.120293212913949 1.607118277021742 0.8744800076721325 0.10749988005589228 0.06600201792242182
P 4.749370840709388 0.8531161737313925 8.055397769854483 0.39865185915022305 1.5913369933797368 0.1374221215366214
P 8.593936268794764 1.654642406793675 12.300587296958085 -1.3796593556626497 -1.1488108014440666 0.9499668251565382
P 6.465514956300726 7.846265781319866 1.44948505533283 -1.0807544720957776 -0.29252391974119296 -0.22870682528523192
P 2.0531081235172417 3.2146987421383675 6.067387756248217 -0.932387164401562 -0.34703156387077005 0.7168017069896364
P 7.031171800081613 4.065007484277793 5.976435999779704 0.04752247106099558 0.023863436881158905 -0.07723645318566054
P 2.3019494716335474 8.484726277156112 9.872681639646471 0.4652514014473278 -0.08836315922644136 1.7192802288916456
