# total energy = -340889.58436598873 ev
CRYSTAL
PRIMVEC
9.06963729220061 0.00000000000000 0.00000000000000

0.00000000000000 9.06963729220061 0.00000000000000

0.00000000000000 0.00000000000000 13.27433095012393

PRIMCOORD
 96 1
Ni 6.3186622597551 2.222478389890306 11.347362675920209 0.06896392876422316 -0.8272496139302591 1.0024512682084994
Ni 4.744517836642127 0.2302898865568984 5.788723340852972 0.688970286599665 1.0126945432030623 -0.27318073932789083
Ni 2.911997580537819 1.4743239928299527 4.667812284481887 0.18197214023285435 -0.03250208639276338 -0.11719062498109493
Ni 3.4345266056055626 4.371284114399096 4.420697313405815 0.36988789964365326 -0.46854909836199304 0.5960722156173476
Ni 3.7877708468070006 2.48171583844378 2.628967751940601 -0.38433827074102844 1.7805663293956369 0.00026148119150277543
Ni 5.150175512934022 4.779308966077496 2.580928603014555 -0.17785966072637754 0.17504147455129207 -0.21035660491281838
Ni 4.9977421155356305 4.726569024037176 11.02876535691795 -0.07093750755082621 0.21784185754626997 0.46230286034196505
Ni 5.488772289579121 7.747148304679329 12.172335995609506 1.7170564817674492 0.8839684067785422 0.2003069339863002
Ni 1.8870287774563839 6.443043268377789 0.25530031891637994 0.046315595237087975 1.768314508611477 -0.6511753272390784
Ni 2.5046982998591143 1.5563407247079595 0.2537113184270482 1.207941546167952 0.4119035819538068 -0.6567124550072239
Ni 7.998041686736313 8.994495549529741 6.732528864944792 0.334004812593799 0.0728223832783649 1.504682846424602
Ni 8.942535596314093 2.575813327466706 1.0624989630406514 0.42234380345052425 -0.2747038608406366 0.6583201658139759
Ni 7.156587928752698 0.5892126277946985 4.763600353934103 -1.4404268646590097 0.35344595203754614 -1.273954362723651
Ni 0.8980464820323142 7.82506556040906 2.654415340827399 -0.8832757515868918 -0.43392893718496234 -0.8458610583838593
Ni 7.746150644554749 4.068866121726282 3.809878995167703 0.8926397093002949 -0.1615447256164379 -1.407936605340788
Ni 7.687216140104535 3.8622960581131576 12.615141093158277 0.33383640533673475 0.052647450992386755 -0.14540899639683988
Ni 8.382712221862034 7.412469611432583 8.909279956506829 0.6019826675645117 -0.47870726984191747 0.54585420000206
Ni 6.9936791000462115 1.2812404801736565 0.3915226462540897 -0.5912405985566592 -0.9880492338505564 -1.3305589985915731
Ni 2.2671463545590202 6.2894126788299 9.255116117801382 -0.5246014612708707 0.7944708768373414 -2.3679297043850767
Ni 0.05725934240466879 5.1126544226123025 1.0685747131993462 0.318460951321929 0.04303589604455169 0.3723543589062749
Ni 6.399762958245991 2.4295110050157356 7.079307361575199 1.1025509991455786 -1.0313095872010885 -0.10681416684277732
Ni 3.5212958275315707 4.763455239734164 0.5088338724485029 -0.46058304943738093 -1.1510540889522884 0.6422913944858873
Ni 6.059161791714235 5.535961613471775 4.685705772298112 -0.08019810691714575 1.9563644796072952 0.5524994732327195
Ni 5.402855613577755 2.8541060843996666 9.336700227970821 -0.3133907358878732 -0.2927249800084055 -1.1622589565291723
P 0.24105736019237 5.832175974097197 12.13411926409183 -0.2522177639229785 -1.066726790358118 2.2304273644298234
P 3.9921551277835436 6.197528181356044 12.36061894913907 0.24109902830199764 0.999655193520601 -0.42010771503115396
P 2.4957012194628985 8.621406941486647 1.1936821997854805 0.08821943455972549 -0.8760185558038462 0.5868188153398797
P 6.487493561746595 7.692757688614705 5.734059728699712 -0.005667225588106369 -0.21254358526180817 -0.7713589734102264
P 4.6634352774262275 1.5189194003986974 12.842184956455291 0.6556984119204127 0.07713232350762844 -1.580094587696698
P 4.276814770238826 6.015736367382498 8.031965758827047 -1.171027446750422 1.478249849044054 2.021273521575855
P 5.193337917778369 1.0875311625301238 3.7206092741839965 -1.013347860516345 -0.13337366249886062 0.1997718874184366
P 0.36938819594464867 5.801720131385006 3.5020337314171712 -0.8775059389826501 -0.494518011621929 -0.6592889574851484
Ni 0.6574825101197366 9.456820320897803 4.80524178057034 0.30872032699539736 -0.4943233791126196 -0.8089006791094262
Ni 2.024578899723535 6.621869310890082 4.608940360530396 -0.183327111598852 1.6190329166331086 0.9194915393858164
Ni 6.27590798859808 5.762938361451317 9.140784267524467 -1.078961898971729 0.5738902802036697 -0.32107859145043416
Ni 8.732219772415045 2.380417057248883 10.03802264485587 0.1548500872050817 0.04024496356297585 -0.3159960347212042
Ni 2.6216422057349322 5.6235289634974475 6.486542156773245 -1.5732613668249487 -2.4342536244232913 2.666065570996409
Ni 0.9108092759169466 -0.07860382728819207 8.954505703881559 -0.21117755815221695 1.0181586516414274 0.20738286699647512
Ni 1.5696096043648788 0.9982768599301609 11.363278982762267 -0.9565257093209786 0.5127491899179749 -0.762796428552196
Ni 4.296550301430527 7.13254431975031 1.1987784290945873 -0.5291119475467145 0.4557352344267764 0.1274197589082709
Ni 5.901604049130499 7.876454126462448 7.852152032791419 -1.2804281433734528 0.4586452089847198 0.4150444415756336
Ni 5.740980769073051 3.0087071251596464 4.630564190248802 -1.1645904328758265 -0.28314916339451235 0.5082762417482859
Ni 0.8102850417642234 7.602278984952756 6.764439477511372 0.7686094356895473 -0.8935717341962611 0.28063256762024574
Ni 5.1822366814830385 4.628934376390737 6.835457459997754 0.6722061797674488 -0.4616048058336759 -0.34920723136585025
Ni 1.1099059582332136 7.373261568536574 11.051664377668319 -0.2835625967828471 1.2545276214576073 0.05837432617383495
Ni 4.837771849377908 0.3117887421338729 10.083778966024127 -0.3589157169028658 1.0522198549911943 0.2258367028262885
Ni 8.434590548340216 7.418818357679914 4.611914294665396 -0.5727345693326716 -0.35657087081977296 0.42291407413169746
Ni 7.560767254132715 6.294183308152895 7.108868938030267 -0.10723737042312499 -1.6006096769309142 -2.348099557033027
Ni 2.357289481633609 5.659109151394984 2.5516980683280983 0.1757953219981811 -1.040584841855427 -1.3408015022551876
Ni 2.3721001996648807 5.177574887809999 11.281150694343056 0.6677939096323661 0.07311163238400957 0.5548594888244637
Ni 1.144424998543696 3.2944188455644867 3.7233301654328517 0.3473670928333179 -0.057941352401474404 -1.0236649261716368
Ni 1.576602294874438 1.2363911227550186 2.362313153842747 -0.8472533107456958 -0.15917776804615813 1.4069536726022287
Ni 1.0882113853423376 3.444648321051306 8.092523728389077 0.1349114392996257 0.45782039909057926 -0.946885615128053
Ni 3.965980153969552 2.620499431410413 6.660289202287673 -0.9586291288172264 0.6371425032950963 -0.7059922750789583
Ni 4.318099760121464 7.059524668268519 6.102833910185868 0.6454114281721078 -0.39750643269187025 -1.2380712756737968
Ni 0.6337599662847134 8.935198259579678 0.2410482905548738 -0.5314436810036847 0.7857972603227434 -0.4386870206952381
P 0.4356564092742786 5.6580207948954415 7.917700116903852 0.9015344406867635 0.04339070828080914 0.051437232734369474
P 8.731412574677885 1.6405432392225467 7.858655869839934 -0.7559693783280335 -0.12309722027351701 1.4199559983991674
P 1.906093155473366 3.2346590041021193 10.1675406961564 -0.9582018114718207 -0.2032449335687016 0.6381634883604429
P 4.160251789137849 6.424795157735464 3.831622544101058 -0.5451060089821258 -0.5416604736356865 -0.7386527414264569
P 6.993561194758761 4.077192048947781 10.319571401649961 0.06972883195470571 -0.37206819512442374 1.2837024432493505
P 6.695460349534131 7.722270289027293 10.098261363178036 -2.6265338314503737 0.3207839430281508 0.4579443262629532
P 2.5598416958359236 8.648779107450137 5.906439979843466 -0.17741408854852672 -0.6937353120884762 -1.784046317524437
P 7.190372328425989 4.313193086236027 1.6634857942328982 -0.9182270708510959 0.5674959466415517 -1.5005932497362608
Ni 5.311016464291379 3.3918176826360242 0.5913503413525494 0.5262330833370227 -0.9494292074855133 -1.1392925775409861
Ni 1.6580295003151928 1.2089645389665533 6.997218979560973 -0.514368984909585 0.9543179030363823 -1.1557489233247966
Ni 6.95492453902501 0.6298183018288712 9.023253556102647 0.7883601359539132 1.067087516131646 -0.5965383566204888
Ni 2.8711932814424803 1.7593464207850824 8.880169141035323 0.8091845288984322 -0.36848099199379764 1.3289091216929758
Ni 6.5126164576110295 2.3852058258468687 2.3786403152633797 0.7745509979849629 -0.6098762113799755 1.132583798062243
Ni 4.337291113063392 7.11078625939696 10.215725866246135 -0.11015094452549418 -1.1002138663719696 -0.6402926188883037
Ni 8.016824905990914 7.363157992365822 0.04040251415425816 1.147609582047114 -0.4490467666630073 -0.13859788701227743
Ni 7.733534778797555 4.092809964716213 8.35397507545537 1.0102501954276277 -0.7546069507628682 -1.5660859321224319
Ni 3.2358471266141198 8.546500805405651 12.373813457768522 0.24348218382219358 -0.31910886931857296 -0.4219571095350668
Ni 0.18270059165066274 4.920232993493228 10.215301407211314 -0.2927972280072377 -0.28260691773779717 -0.9621854787099172
Ni 8.643663831902288 2.3628763783312596 5.806232276039359 0.13729896569519578 0.1463541339189286 -0.008825825821746092
Ni 3.669457425669259 2.8758732143905115 11.437814170669668 0.05814575510279663 -0.755988147381111 0.1252343212211779
Ni 1.3150520887594368 3.299389006912396 12.301946557212498 -1.3862670907871544 0.18645871524929825 0.7080694693229612
Ni 3.2442909591230684 8.589971577924869 7.962793447571137 1.048682531261897 -1.1219134628325902 0.18339910248736802
Ni 5.589490613974262 8.017505128803126 3.1269543379436664 0.367439952323793 0.027907525043545486 1.024040307233185
Ni 3.0717138968456483 8.407281869839201 3.2922203654354116 1.4532630971917293 0.24386219286943164 0.44181708168378747
Ni 3.426962527933744 4.162120134462063 8.990757951917562 0.7672647487361947 0.5784491032189457 -0.7436368249046097
Ni 7.151064519517521 6.000599142401366 11.492677314847846 0.8984421749146849 0.19688762389210607 -1.4118369688364587
Ni 7.811397616702308 8.970851004577185 2.4643928308260654 0.49003760725307216 0.4628669603755512 -0.6062458137162399
Ni 4.687678418453532 0.6790782239619043 1.5273713955813928 0.31936495119343705 -1.3069141054791233 -0.28920205445681163
Ni 6.137459972218806 5.792550727876363 0.2629696043831545 -0.7014815316927984 -0.8078969204352603 1.221784622698631
Ni 8.177611439523293 -0.21790257566460808 11.045597697147121 0.8589993955380303 0.8746167903603131 1.199781893175295
Ni 0.2068630129042509 4.651490564843751 5.476511046648028 1.307847158816354 1.8938334509526091 1.8397076156424834
Ni 7.378757768859262 6.4506889727870735 2.5052642452388767 0.5128355789841942 -0.7239722565961466 -0.218955659435739
P 8.460928775629139 1.8530629850331688 3.4861310290313594 0.8724123265098266 -0.22338027086599596 -0.6023799030029303
P 2.0332857517198737 3.338950765670758 1.426366470641372 -0.7358502389806553 0.600021944293715 0.4118986968578003
P 4.845027559374857 1.1345118847603655 7.84872733767286 0.680644283232473 -0.9875131588414284 1.9516385348865357
P 8.483738913932047 1.7486351789020873 12.091375876499805 0.43507487786394755 -0.40675160543922206 1.4440258948641775
P 6.368173410846777 8.211722346146447 0.9164850550620595 -0.9645416376469195 -0.1779941294217128 1.3648228048704494
P 2.0179943429013045 3.1668725334556282 5.768891671503813 -0.3653373041584934 0.7071485001705886 0.4605609379501939
P 7.185438445628064 4.103820504636582 5.955714413396492 -0.44314299958406267 0.7326538435305446 0.5678926678593381
P 2.669330359689876 8.66793418184208 10.103119967984744 0.7528714561290001 -0.23907094212837535 0.47913510140795545
