# total energy = -340886.46511226683 ev
CRYSTAL
PRIMVEC
9.13724908770217 0.00000000000000 0.00000000000000
0.00000000000000 9.13724908770217 0.00000000000000
0.00000000000000 0.00000000000000 13.37328764714752
PRIMCOORD
 96 1
Ni 6.58012582059697 2.0075997750422956 11.21598853421706 0.9695570885836399 0.2673150245757332 1.1266023836678274
Ni 4.783331514478198 0.6536102555490406 5.760075094339103 0.00618633131636999 -1.4381828058198391 0.3696981522303504
Ni 2.700879396606311 1.6691560765061553 4.735119734484782 -0.05674733209337324 -0.38600665958238684 -1.7725252042587152
Ni 3.3131847185907555 4.170295212583308 4.2665597844396155 2.1491475944127245 0.7125694140758437 1.0902562409386256
Ni 3.698210111920018 2.5890394703081907 2.2546426593012527 1.1818919002687516 0.3444483765246261 1.8507517892717869
Ni 5.366370228298192 4.533564816327944 2.79929670429888 -0.44132908630377543 0.6792862265426818 -2.0293853520497116
Ni 5.041422246358646 4.2524756290151124 11.437638090112037 2.0684108413832893 2.6548506761171957 0.33876778120008105
Ni 5.805524683995923 7.868231207036909 12.500319323144438 -1.2174443434520645 0.7081987958119739 0.21946422364104137
Ni 2.0266418017093937 6.372564075026048 0.3457836505618986 0.34799392778403937 1.658875245441027 -2.3402384091173953
Ni 3.1340032680428695 1.7493445726819967 0.1940486682014543 -1.1438799398013524 -0.38786685271957716 -0.7811242803271062
Ni 7.86566364010147 8.834202884192516 7.072703943049591 0.6098271033095949 1.1495708195385426 -0.10139865225416086
Ni 8.786086131587458 2.728282005999126 1.4035801103427472 -0.054399914907119214 -0.7531807598393028 -0.23367933879915884
Ni 7.268169798552422 0.6148043595532796 4.983141218098848 -2.007503207264639 -0.03489398366370765 -0.9939784548507978
Ni 1.2963745966768503 7.479624012146465 2.7587081310465207 -1.093892552139632 0.1388161736706706 -0.3582408023230282
Ni 7.816998652563579 4.011005552848411 3.7300369772208035 0.574598619124604 -0.10912687413635398 -0.35392366300491307
Ni 7.567250228911087 3.9756992231739074 12.425589419449844 1.30407586469938 0.345971755147688 1.0607407479780118
Ni 8.138465342679629 7.599404207721795 9.099532144636148 -0.649264740479927 -1.22769610308706 1.106806689098139
Ni 7.040341634964405 0.6767348050159754 0.42061954634350485 0.1295568598559317 1.1570419311046074 -1.0029037823648856
Ni 1.8059863784926213 7.019262001796941 9.402263819647487 0.3439814641905366 -0.5027329433325535 -0.8629002732543333
Ni 0.15562014058446064 5.083444453960367 1.1666430233456955 -0.14232572948582584 -0.16364685956110525 0.9353562743322149
Ni 6.473996674849205 2.1935427897618003 6.936109382084243 -0.5327742268896503 -0.5330827592690045 0.4376590936513559
Ni 3.6302015685019704 4.310506296655583 0.40648239487549415 1.069664532830203 0.8016532535183936 -1.3635177129057807
Ni 5.8647980174841505 5.678105748356439 4.81943826715464 0.875232312457125 1.2838970757586599 -0.7673583368912655
Ni 5.6564778802561415 2.856934470237486 9.2403800949554 -0.29104553542345357 1.0646215710896567 -0.3829647874322695
P 0.08139826792762833 5.975678532649812 12.604417258466054 0.9009996512292161 -0.17165970256325275 -1.6689814806370935
P 3.9601659000769462 6.230242286462362 12.424746965103058 1.1600740330627117 -0.006996485922491176 1.091860609311268
P 2.4295213793512813 8.590503319298957 1.10484872289132 -0.2640160421094872 0.6240134221123059 0.20626803666574153
P 6.254145329533921 7.870798773972347 5.7659731884915075 0.4817499133229832 -0.3757009067810046 0.5523750318397133
P 5.128692110416926 1.1221638095199913 12.583554178097058 -0.6584649189219564 -0.5946869052340468 0.05342032460266929
P 4.132905590164034 6.034842219151472 8.114255288045683 0.2693019730987749 0.994786809684706 0.5534664651316791
P 4.950095443797396 1.202078188229416 3.6744313354332347 -0.4688260061724635 -0.1267204188484011 -0.9806948503680142
P 0.16931139430709974 5.852563241233074 3.7341962529112367 0.49893285286017297 -0.9999305586691746 -0.11486377662013122
Ni 0.515476068147318 9.197371978199467 4.9231350772504 -0.4882632889614688 0.11305397710490207 -0.729957270534988
Ni 2.0637755811600114 6.333209944097453 4.9534387631627945 -0.5873057822786273 0.017536209111550443 -0.856069366375429
Ni 6.187205844234899 5.868315858303168 9.151354051662276 0.4961838293601261 -2.609541667767751 1.0279769232834295
Ni 8.904349543848616 2.7087008816480744 10.129355830694035 -0.33093208720574613 -1.6503931761119446 0.7322262690748228
Ni 2.3674429104567203 5.191857911928275 7.219288258216062 0.48229884384791777 0.57802178587354 -0.01730763804051213
Ni 0.591859813889292 9.134809235114234 9.189106422862109 1.3256335362654974 2.1176742063947915 -0.44818210466986685
Ni 1.776920789803543 1.2807133520955614 11.289367952527103 -1.138684254533026 -0.39264447661387863 -0.08720641991417885
Ni 4.370812139267314 7.115696526482428 1.4433792252918258 -0.08664129143932821 -0.39793554980948886 -0.31638761373266805
Ni 5.821012320848482 7.6665721242428315 8.063690666465522 -0.8015709782172324 2.460385545623653 -1.7542742284683273
Ni 5.641447105847611 3.1308966034234773 4.576673442821563 -0.024916303625705474 -0.9022607773298268 0.9081712292769907
Ni 1.1178236163017228 7.885847822878639 6.977071668815818 -1.3766748191130291 -0.9103679798179933 0.7918763766372878
Ni 5.348415534247882 4.811437692034817 6.8120986402772115 -0.176788796259702 -0.7162378640663665 1.3979203587553666
Ni 1.1206653007035785 7.929834538989681 11.55038808639866 0.8623048057621795 -1.2713994575122811 0.8446747513852421
Ni 4.7208692811306525 0.772862318139075 10.218395579860479 0.6256694696584902 -1.771297502499201 0.7160738276846765
Ni 8.007866644429708 7.409806293450065 4.431238593564269 0.5107830673305397 0.7160676570370893 1.4914136401195217
Ni 7.769293076158148 6.486085255118192 6.99556637427497 -0.6973415413824957 -1.2187538062921077 -0.8370190346121972
Ni 2.4939846702036697 5.366032150089611 2.2541876243070007 0.5707111111447397 0.015474698596831414 1.8279147367726132
Ni 2.4874880862495874 5.491285557744401 11.061300393018415 -0.5811371915740701 -0.34433036288952307 1.139505979103373
Ni 1.2579341906363117 3.7966091451148265 3.6305396467105515 -2.348716878902052 -0.419909997198051 -0.008547632459694957
Ni 1.4927523496179604 1.4577566864053952 2.6052233655254486 -0.3822633904898707 -0.9183116601451023 -0.7365984300005896
Ni 1.105689349788332 3.177094533763616 8.081597846821655 0.3298378257003029 1.1741834758809004 -0.02614606226774852
Ni 3.975087027498909 2.876351124108688 6.293562507479792 0.1226282510568985 0.4121210972812515 1.6308178250831784
Ni 4.095762673464536 7.2031125865227965 5.784066768724804 1.1025715679708687 -0.09359895370408396 -0.24755943921536075
Ni 0.5375388692943309 0.5626535115674529 13.46770270525209 0.8225144132381189 -0.39954711727098285 0.6772208593732209
P 0.47405874642149126 6.046062760776806 8.02136418847608 -0.7731811142206297 -1.076094604726263 0.3201239408466487
P 8.753073251381977 1.7068015418940843 7.9485065070771155 -1.042444263661669 -1.4506508563798628 0.4914450291235601
P 1.9236284578299 3.4347649521955583 10.290129379647135 -1.779887043940425 0.3207875425725766 0.27444469364197893
P 4.056015640834077 6.326731634641132 3.5498723586933685 -0.03295331499756906 -0.4378215873711492 0.5122635085308082
P 7.065121853928498 4.333157536630504 10.401248377008578 -0.403246420499441 -0.8347207254963238 -1.395161822173623
P 6.249001058414162 7.942973902879933 10.37958304618787 2.667410000839445 1.460834224670768 -1.2394851253021881
P 2.4161353097412532 8.601879194155261 5.528182682449011 2.0967958202838854 0.24809474289354044 -0.5855373775242949
P 7.111666999726098 4.260799662745307 1.4009184297438386 0.20898697825880136 -0.44700711052515923 0.8369904953671069
Ni 5.6647014042486505 2.9724018843411906 0.2459372771444088 -0.6138763336783041 0.009456003206577263 -0.4053200151990181
Ni 1.8323838905085745 1.1184632237233625 6.85740751630127 -0.37910119071180515 0.6403882639259035 1.2229192505237068
Ni 6.916979637827893 0.7877596887139489 9.078536574158386 0.5597846940402229 -0.5639087435109256 0.04444023259124605
Ni 3.018435344201479 1.9277767688216767 9.107931103807164 -1.8996531429581802 -1.2303893336485068 -0.2815584218686248
Ni 6.434934935884787 2.180074484911847 2.343160671556618 0.7319555319119394 -0.3555655694837102 0.9811185681689942
Ni 4.383823581673239 7.066876205713568 10.217418807955147 -1.9378340249032755 0.03734758741052277 0.3920446382463506
Ni 8.189094838726842 7.727992711217992 13.274364915013546 1.3814087342535886 -0.2886544094834577 -0.24266277324469177
Ni 7.756619711960803 3.9375329345997856 8.221602429069229 0.26401321389600985 0.5338276078548291 -0.308427735455643
Ni 3.429072446142966 8.654683355436049 12.500118303669064 -0.14355703078976567 -0.39908586136384816 -0.4643867394541874
Ni 0.0527502515123918 5.01916390808559 10.341509957552331 0.7995714312887003 1.3054668315096356 -0.15602302446726035
Ni 8.563813415318826 2.3506212352675995 5.8049965510106265 2.0129989402718875 0.22071249422584568 -0.3166442098281643
Ni 3.6790584382663534 2.645516805638965 11.373299065844426 -0.2848386352817933 -1.0103615241945116 0.51727818813658
Ni 1.5373878103995222 3.509398001052016 12.589505268292971 -1.3887983418494405 0.11032989330551966 -0.6020266334285697
Ni 3.413411201561677 8.229088577077077 7.840665040889132 -0.06011059213865132 0.8611100141231298 0.720267811161366
Ni 5.742943666412931 8.028434591659861 3.5471311840291984 -0.4864601743144589 0.5154565615468091 -0.3001384988636573
Ni 3.282026699908028 8.674036048565085 3.1608302307562095 0.3338124940773348 0.5648806205058917 1.3509987545031636
Ni 3.652743161490325 4.2051995033070675 9.396873756532843 0.9288927780950584 1.5458243536599183 -1.4726695267427992
Ni 7.334341754945476 6.312377016649764 11.444498336571566 0.3012209332945586 -0.30776156262655385 -0.5246528833340964
Ni 8.332796351871492 8.864721295453604 2.3093930545936003 0.45948338861529897 0.16000797725693733 0.2809992069310451
Ni 4.7514516531339055 0.4441909072806993 1.3824100184113655 0.541035695567494 -0.3885553941461695 0.21193500514353178
Ni 6.045943976541358 5.692268484121317 0.16249866154175024 -0.6991127743503057 0.10782409616453043 0.3871351167598752
Ni 8.373283501661279 9.03967219976979 11.178544088304502 -1.84372445011136 1.5058084753886132 0.026929220290676206
Ni 0.21294724006112764 4.848681118472001 5.99039041707241 -0.2793061354993383 -0.16909194183607654 -0.42702861052070323
Ni 7.356782838196144 6.2802595868345765 2.5857518881609636 -0.08084268247968013 -1.6203858311165773 -1.0897782728609426
P 8.629610744507778 1.4880192546978277 3.573663013603696 0.29945587097433585 1.6500347643312616 -0.9328540767356516
P 1.9117226225385233 3.4318775815492994 1.3293947866814373 -1.254635093569749 -0.8095959054042379 1.2565693344779842
P 4.574728122534891 1.4110013838835425 7.892687053665742 1.774526808069776 -0.7393137720492234 -0.9792707163269782
P 8.551121776623722 2.024348352240372 12.394202055820216 0.400555246820523 -0.9138371693135166 -0.42853656252479744
P 6.666280940291821 7.805741561942722 1.2907725493881756 -2.288620170720471 0.454772613403191 0.7819642597298985
P 1.9236832813231834 3.435230951888467 5.980854784140652 -0.3318317162018801 -0.8792499182569503 -0.9442350648790835
P 7.222657161878326 4.040564552977041 5.912905632840327 -0.42829205061415915 1.2087663560620925 0.16240655939610096
P 2.8174432805756826 8.835189707071617 10.087390274035375 -1.4787712687651628 0.09852775846426903 0.3187715405838123
