# total energy = -340866.7490288476 ev
CRYSTAL
PRIMVEC
9.30606174394696 0.00000000000000 0.00000000000000
0.00000000000000 9.30606174394696 0.00000000000000
0.00000000000000 0.00000000000000 13.62036203339834
PRIMCOORD
 96 1
Ni 1.971814883686361 3.9929053640837644 2.927178900418056 -0.2534179548786668 -1.8595184797208233 -0.43625424288402936
Ni 4.5921692073713185 3.8835498330258873 7.94579187103127 -2.1599845371272286 -1.1247828139605853 -0.9436277703123879
Ni 1.0197024049132752 6.383269678870382 8.4809090310083 -1.4074316406799117 0.9352038079147506 0.2595798607150046
Ni 3.4690020084574056 4.894588294494785 4.5679697245219515 -0.04222805543127566 0.011280715120141864 -0.6605932781188688
Ni 8.735609425543435 5.11702178129126 6.0590585870598055 -1.0000197759488711 0.4708831458118084 0.5034212276488297
Ni 5.865247754239562 5.619214094967315 8.480418601556615 -0.1770914151017853 2.121362453879656 -0.15144363262669402
Ni 1.6091669652288307 4.7858748816943315 11.507598579809898 -0.6860970788169279 0.579315564984299 0.3767308907074157
Ni 3.6447283715725374 0.7939996986409558 9.492125238255701 0.3332823326054776 0.2301492141587133 -0.09248618025587943
Ni 3.373093736558632 6.199214390532138 8.862306802582621 2.235592967791163 0.9133365755280142 2.346738415019442
Ni 8.476156425297189 6.668649367017848 2.583878284238573 -3.3504222700834623 0.18625816920271793 -0.6604354123847658
Ni 3.1076569386381276 6.143080226346867 13.149859761662677 -0.9966516308075868 -0.5854946972118175 -0.43610794711415213
Ni 6.2124755284572055 4.227473955339391 5.922432572790966 -0.38837541692487954 0.5244204556083162 -0.38096086962836323
Ni 7.932170588518341 7.679715746671851 8.018225602287247 1.2193672715063901 -1.5956397345201487 0.12708577260761986
Ni 0.19181561319137694 4.220205921150284 9.376393193719748 -0.6256920953663095 0.5882735455085353 0.09165417127288732
Ni 0.528096667029191 2.5152795810099087 0.48456477160050065 -0.20889184744183378 1.3916288693197 2.2216349629491736
Ni 5.415560240685076 2.792562995476807 12.228197647384059 -0.7454782489887226 -0.8434583624796377 -0.7741869297773247
Ni 3.43210347380976 8.127532741824275 7.434238589889373 -1.092418281586951 1.326505911568122 0.7272946361011604
Ni 6.257879803500299 7.2499059809124144 3.573574223800557 -1.1954462419144187 0.4381437465972583 -0.42876899025057774
Ni 5.065187017612223 9.2042906110313 11.459042341668406 -1.5490744851661 0.31543630556299224 0.41609139478290924
Ni 4.932975799014719 6.728719995302982 1.1501836266404142 -0.7755586133138708 1.1298538007255896 0.7934496346616787
Ni 3.95172604105329 4.460023131205727 1.3971767408741167 -4.43887719614729 0.9737253610287167 1.4142404360716287
Ni 6.30880257313256 4.333823628467587 10.495551341252526 -1.9749836373703793 -0.1300775082460921 -2.9188492347251858
Ni 5.840028327027678 0.425406137362144 2.7757069259163325 0.23271029001767018 -0.32979231717434815 0.44652374313083737
Ni 2.9937786615931743 7.622157755046205 10.812810804971857 0.2784047067309915 0.08959420342006505 0.3370970783658775
P 8.621116948426163 3.1721107219848097 11.073816986916132 0.436505696773203 -0.24778981005861195 -0.15076666116432744
P 3.2213490944490455 1.373425810198777 11.721765491996663 0.9287012309095424 0.5000656809130355 0.15853807757963018
P 2.2109992815460813 4.572533417180516 8.471578773546073 -0.36570677168277016 -2.201897889531563 0.47030464760051904
P 1.1279598206903403 5.383324042950033 4.660941933953806 1.4086827394781931 0.04517582520568994 -0.1963322656092683
P 7.148637417473403 -0.2532142164813574 4.513065821693659 -0.3204651262361513 1.072733915784146 -1.1516261594056747
P 3.8829170208301647 6.837610223275769 3.2189136981016837 0.5612340248922398 -0.09090983690769504 -0.2861493836734169
P 7.153699915039184 0.04045531143007456 8.876049063897673 -0.49264367741735154 2.621611711558408 -0.2112588050121136
P 4.742117779572458 6.209069509874347 10.67408720439543 0.5896894520194554 0.9099360344868974 -0.7131494549490299
Ni 1.6964857421768407 1.1077563607357277 2.7982489991766077 -1.0384300002959534 1.0190626515129353 -0.12376082199944491
Ni 0.44295457791323245 1.61060940479261 6.7692516164390115 0.5068194546971013 -0.6608570733032166 -0.7288892342817899
Ni 6.901943027820328 6.998521336161631 6.015732355594725 -0.8131699959087415 -1.3125047121930233 0.24433707562332116
Ni 1.4818693472098783 3.803657293315915 6.534844950656996 0.1391596730530184 -0.28459360915052273 -0.26006142833711343
Ni 7.869819975116267 0.12608689939154794 6.45761766701842 0.30108877859206856 -0.30446258016030786 1.0887786279518346
Ni 5.148364597102931 1.1987975623644587 7.471926278569331 0.23015384214440363 0.6153742583800693 0.8499920498330974
Ni 9.100267453328556 0.5563024094411834 13.02842124009118 0.01872534432364517 -0.8564002673522864 -0.4107609837089313
Ni 5.557310172526927 4.857717678032244 2.946479672387594 -0.601793434371841 0.9850762672651616 0.39743007092798005
Ni 1.2412611219097822 2.290929045502861 11.982731657875622 -0.2494977938886542 1.1829900184289368 -0.6393839910311053
Ni 8.270343564700132 9.295666830881295 2.430335711008198 -0.4941647420475682 0.8496606346356076 1.37369748165226
Ni 7.877785963933009 6.2638449890511545 10.149158320769532 0.7328068241686412 0.5833786793100791 1.5133112115235614
Ni 7.683940698684469 4.5690901743508485 1.4365944264244406 2.269315042633956 -0.17969594260416796 1.3039452526587865
Ni 9.23304634168987 5.348770635851241 13.415920065717204 1.3182932938503424 -1.6416282854351212 1.20315929428796
Ni 1.6059191496949017 2.415220805592131 8.697881720798158 1.482930542349175 -0.4321541046727267 0.35432552642902204
Ni 5.387707198011581 8.945181935068021 5.658266052292758 -1.2482104209903278 -0.6731631443640793 0.35594917807537413
Ni 1.5187958000426294 0.4141895411929618 10.687857383895587 -0.5595954608475524 -1.188196502330541 -1.227786605918337
Ni 0.7524565085979404 7.950224348219838 6.52614192175347 0.7661866851806676 0.942520653291138 0.6846325784562597
Ni 8.6775954368944 7.627964737548129 4.687992794108605 0.14190663967053624 -0.5921427986559544 0.7772460283186227
Ni 7.63995094502005 2.46297951424578 12.902882467733868 0.3833643368635333 -0.4827387595988137 0.19764018578741446
Ni 8.33271279022561 8.779943503490822 10.606244153376952 1.161398151190774 -0.42962388205170526 -1.0012683036439918
Ni 1.102805535910369 6.002335349168811 2.425786908048357 2.7577814487451664 -1.2402903948123025 -0.9958579312616979
Ni 2.6949889385334105 7.7216488607001725 1.3037448119941928 -1.5625501510550315 -1.1208739658244826 4.080371055978017
Ni 2.8316019243158674 1.0571127729545202 6.604731612825191 0.7956435569892039 -0.7387206185499148 0.9783134946200313
Ni 5.4436552409628165 8.042828968214472 9.027112502290688 -0.715275243042781 -0.10713529762762194 0.4962311376582938
P 7.189444498035805 5.32464932392017 4.104890788178572 1.902760835349226 0.14899080021082728 1.0278208573215395
P 1.482734810948146 0.28376415583603365 4.857402202540553 -0.1331232370509514 -1.3547718483923505 0.9762807804607188
P 7.0989616601091825 0.01407169589929512 12.200643329291193 -0.06686308037113646 2.3120146383850115 1.3909261868257208
P 7.926921969718524 5.497918886746025 8.26336494902995 1.3671604518646905 -1.2485081547364045 -1.968796534723061
P 7.96887369587025 2.771056686883942 6.5916426370416055 3.1617117826855097 1.950457627204557 1.6884686428274278
P 4.060495290223954 2.866797449672083 5.983547341199041 0.9528603446542493 0.506386738035057 -0.14688146717730832
P 1.7310298432139308 0.09479712813157838 8.237213985041716 -0.6976477597690051 0.48611873181464016 0.971718872121649
P 6.663251851230803 6.044175402580112 0.3272793003536608 2.27454080980927 0.17877523056211148 -0.7636312657486655
Ni 0.9607112797855509 8.13214854842837 3.204925756757705 1.8386820025914463 0.7484239618806078 0.022934497308986307
Ni 6.830667901246225 1.6559578434654922 10.739668882420371 0.21602511605250535 -0.3802569015828032 -1.5933226563511977
Ni 7.02898007611163 1.986444012681594 1.4501459134746049 0.978896877927327 -0.7210003184520163 -1.0268816333367217
Ni 6.588263606037681 7.336424436554069 12.124355957884498 -2.691848079277151 -2.4210623225439982 -1.328971342389479
Ni 3.7138631039552252 4.199797727838232 10.503859793139894 -0.5630970462429076 -0.05134390168961479 -0.37801130008173606
Ni 9.404333713373239 3.359599947091019 4.46474130448854 -0.49783859135472963 -0.2595361519612627 0.2805919441902974
Ni 6.942675659889116 3.3604840229526904 8.448900831784952 -0.07354614881826688 0.380600400965151 -0.8986884865975361
Ni 7.164225070823922 8.45984289913393 0.5458498409377192 -0.39901695579912566 -0.47560112011276806 0.7335740413519689
Ni 2.4238568308514035 2.1884879182894217 4.692664437082909 -0.14938777853892982 2.601216949952139 -0.2041785011265645
Ni 3.3754202519840826 3.4405440717732945 13.027821929717584 -1.5093470846694907 -0.3812164372825951 -0.6365910016670004
Ni 4.759054811869737 2.812236009914417 3.77533243331414 -1.608580353841217 -0.998041826286894 0.28071175759761335
Ni 3.633030652013372 0.08973649177813835 4.0398125680916985 0.7268236100020128 1.1031428670933068 -1.0867513131091606
Ni 7.318435819284486 4.634697909348554 12.219984117326048 2.8704834418272887 1.113150629038296 3.043070027080185
Ni 5.119525111889045 5.172858151502074 12.513367018537066 -0.7163232246913211 0.733626234746143 -0.05204581285264585
Ni 2.971257992274813 5.694611806875317 6.717589945507626 -0.1647236375650518 0.34110748507685124 -1.2396530183386198
Ni 1.5495058036585767 8.082519321372658 12.862742631795486 0.5370479145643395 0.10623258330769446 -0.9984300628642483
Ni 8.763583447019052 7.192431743842084 12.512590892991135 0.13091774475920034 1.1095803951885344 -0.29403598551034527
Ni 8.626328342979171 1.9561248636571225 9.031798104357545 0.2577914013560141 -1.6710766726032253 0.4374456920889692
Ni 6.96443323214793 2.8992662989496707 3.43391164159842 1.3829981902278956 1.6341348052715536 1.1488162007607055
Ni 5.182210743512385 0.9360316041523716 0.25944369418454377 -0.7584741470277583 -0.4527476125533622 0.12348648529213573
Ni 2.1215959467768677 0.6850536342979573 0.6635175463076466 1.7947747596855346 1.1488534817565441 -2.167585746513254
Ni 2.8983449988411922 7.579545298513652 5.0425714264645025 -0.7347585485783732 -1.693849961743999 0.612666629640919
Ni 6.635687296470064 1.8913918984593865 5.585057126097021 -3.811724199964738 -1.9500984440929254 -2.96518565589788
Ni 5.781604871663763 3.909225257261159 0.7179961621161669 0.9162761177723122 -2.44367106108245 -1.6575948360667065
P 8.955641948420848 2.2689574338249057 2.605139843408681 0.5052001739261234 -0.3016158547401322 -0.4979596903136263
P 0.5295539962916933 8.700897815395713 1.1475313990554006 -0.06384126282567715 -1.1543890668627925 -0.4139977454786741
P 5.044797436423574 2.689163343908082 9.67026652438245 0.4076862014383495 -1.7064709929421191 0.022515664604012834
P 4.874757077008244 6.830398025456873 6.785365062275682 0.7678180501365034 -0.5824096305285904 -0.2660703535353547
P 3.829155902378853 8.367349951879717 13.454588613300531 1.5851874288385732 0.8984542590995429 -2.771496227228098
P 3.984576438860652 1.3600343874098837 2.227923285356979 -0.976883447041724 0.4332046574244281 -0.2654098371332203
P 1.7103238559274208 4.455239815491001 0.6316433543728038 0.721685517444499 -0.032306682552505656 0.24187627278765436
P 0.7363933154944597 7.116680401589414 10.771826909237118 0.6195949813296362 0.04708666907515762 0.01028595530704035
