# total energy = -340889.22305717936 ev
CRYSTAL
PRIMVEC
9.08784146767227 0.00000000000000 0.00000000000000

0.00000000000000 9.08784146767227 0.00000000000000

0.00000000000000 0.00000000000000 13.30097460103051

PRIMCOORD
 96 1
Ni 6.521298521871111 2.273814217641449 11.9878885497204 0.1049002376495161 -0.01190112231296015 -1.2592553659505796
Ni 4.787292983202358 0.46326724531590663 6.130671299988202 -0.817131808769967 -1.0895306756265106 -0.1997744585215979
Ni 2.6009310613529966 1.4377328279633734 4.871934409713713 0.5213582717432247 -0.20426566152373204 -1.3194652026712566
Ni 3.335592143326645 4.027313175667371 4.703570337435528 -0.12721535620694865 -0.4766652997112242 0.8357388823481928
Ni 5.255607615516387 4.6176684273508215 2.4064521686250417 -0.7031028693463052 -1.396661289537285 0.9922560728430525
Ni 7.174514371080685 5.963886694509214 2.295256070150215 0.9276460501721507 0.41670485999719203 0.8056073530701352
Ni 4.760338446226432 4.793245519183218 11.277350233407205 1.315131094072277 0.16975194401757862 0.251686831120173
Ni 5.722331875621788 7.979851594005706 12.305076926929521 0.03380769257806436 -0.2010145015762861 0.8136903871885857
Ni 1.9084102989873613 6.58785787076244 0.49653237921566346 -0.2412358109901781 0.8897153365646483 -0.15544324070439033
Ni 2.8087063745291907 1.6016956587521978 0.38869696441369517 0.43404412260658803 -0.3286018964106728 0.6756658561812751
Ni 0.7468060729428417 8.994954367328004 4.3139982139150295 0.1854762967313709 0.03066606162528912 0.4382432482896001
Ni 8.541462003998378 2.105834561045693 1.322984292366534 0.5939885936154415 1.198470116342407 0.037900117479883116
Ni 6.853086515955425 0.7856475061981038 4.904934178650659 0.6738537426732008 -0.2516714045012053 -0.646377648740119
Ni 0.9361294333624884 7.129774928891715 2.649142058877368 0.6138717056926138 -0.14953561697070378 -0.31183547558561137
Ni 7.55810305996027 3.8067058307278567 3.6999055210376746 1.028861125660596 -0.48963163006390514 -0.2960342468872966
Ni 8.153129462016487 4.120418108680978 12.517160785614916 -0.4611576909939284 -0.12719221627849708 0.9396273909037429
Ni 8.600114931052532 0.10888687802790038 6.5723440170633145 -0.8774218639092761 -0.31059851785471665 0.30819222240606925
Ni 6.946454996363605 0.5968685074658672 0.48602956114989226 -0.6986605173042355 -0.41394272387102254 -0.3309580553476752
Ni 2.1446578186185707 6.608105580938556 9.129109987790686 0.5970656898788684 -1.6266963467156372 -1.258516430902026
Ni 0.3839803748349678 4.802187954916296 1.2854433291858693 -0.9337693894610691 0.4003657565175363 0.6289764225445361
Ni 6.281679413157613 2.037157745156593 7.006980018703344 1.6586150498011047 -0.541569456583777 1.042611899587785
Ni 3.410067001896339 4.745916042254485 0.44472168779508 0.16749580099355024 -2.201350501668525 0.2646341353094604
Ni 6.105584314377264 5.433592985264703 4.5962847370256865 -0.41898799960441396 0.3424192619097393 1.0411155175479165
Ni 5.189838908808775 2.7201817134764283 9.743601636896376 0.3942832977688822 0.47428060152913154 -0.4405161034841768
P 0.2805525630111937 6.193781813147108 12.399261495476756 -0.1975370845506469 -0.7815672814017959 0.24036215013597315
P 3.973086027273794 6.5267421387452105 12.820117603517124 1.125455671657894 -0.9886575568585166 -1.8668309542218366
P 2.489250580942628 8.467659645676903 1.6295026352319473 0.08860330026170547 0.7995770877156552 -0.5428799478650844
P 6.433173725830803 7.908593831218035 6.16375104192764 0.9469002704160725 -0.12020704320991556 0.5106689103501786
P 4.816946609012353 1.0913224974008853 12.67342076220927 -0.445718987841355 -0.6715577475501725 0.011680778772037947
P 4.0510051776553135 5.921637320806894 7.997237542990414 -0.7113465974123362 0.9776712330503421 0.5181266521798045
P 4.770535004044027 0.9767066442854515 3.9905183242485815 -0.3923611410455049 -0.36936956524633807 -0.40630500482010673
P 9.073736862622779 5.566057358481525 3.7345947196522418 -0.7355928715542106 0.1706546583375061 -0.8393975621467028
Ni 1.5624270969609044 1.248887487990434 2.4594960800954 -0.4665202408574224 0.09519792276008765 0.3323377093040212
Ni 1.7845066721735474 6.347366329294495 4.9912841193061395 0.2674119551649137 -0.19626053183106842 -0.3896902790815611
Ni 5.860685169931125 5.793217036920581 9.116540594637819 0.9312401952813123 -1.0432315354496549 0.8223130958605902
Ni 8.450365483888236 2.498029435534248 10.445547399362393 0.899034042862413 -0.08921522281409151 -0.15223630373131844
Ni 2.3292500489135826 4.901663464605603 7.0559543948878565 0.24941911813191886 2.0920428789799326 0.17719888721392707
Ni 0.3760157908141649 0.32369072758210554 9.432013187429861 0.08547735303821408 -0.21751866987889634 -0.4436713612837068
Ni 1.8069627277593576 0.9961455365954668 11.629015153746995 -1.3963776968585953 0.6568320113042236 -0.9139644389200001
Ni 4.340243899277967 6.662369080696902 1.6988001506744717 0.05525609225982742 1.9583200606717692 0.6537711129907127
Ni 5.342850890961055 8.054471858034475 8.059698275504083 0.05491722086316993 -0.009806444567460531 0.5050423081920206
Ni 5.420215683029853 2.8818544082848296 4.930484644162397 -0.0919696456307771 0.37014295307725287 -0.304136821389773
Ni 0.9091112814982175 7.277007044045786 7.016236893741671 -1.2488848213495332 -1.084992421436525 1.364749785540669
Ni 5.202071143053412 4.201199929038026 7.433448777463984 -0.4798650375954446 -0.537768594780448 -0.7279574664961398
Ni 7.920226267943991 7.551414408842845 8.433030426814204 -0.12428584126497949 0.7550077857457126 0.4603845602733297
Ni 4.900163970808898 0.35841355120908375 10.514765850586546 -0.9922442457685106 0.2269685024378865 -0.24369944203932223
Ni 8.228967496765003 7.283559377545328 5.056990119909525 -0.5040753162930609 -0.5880578299533034 -0.39935377031325414
Ni 7.084444777025256 5.805676467195022 7.0282083069440935 -0.0097881897350154 0.7831721639950705 -0.6755833237697978
Ni 2.481853078212216 5.342332884013102 2.8620638165206786 -0.49222561604332643 -0.35597720309983205 -2.4298251563382927
Ni 2.3800238176541413 5.400922196178913 11.502257036014724 -0.44374206662064225 0.8933470197799647 -0.09661537193290456
Ni 1.0858879683679776 3.6892091319545104 3.681004628926235 -0.5183217989097461 -1.5169680915498582 0.523868182649272
Ni 3.768291526008626 2.4314519109605355 2.7294531290606625 -0.6934555760645283 1.4850864123499135 0.0641870762008701
Ni 0.9686275534656276 3.4693742535163294 8.485755355058718 -0.7480526945841182 -0.06916113237669379 -0.5004400335333187
Ni 3.5302537016625624 2.4883236211410287 6.810977095007464 1.4096384185232431 1.0647935778911468 0.8127923008543486
Ni 3.9347444252841 7.115316173555 6.167568844012463 0.47079187164958275 -0.5906415315200796 -0.7278307111102885
Ni 0.3845365507159275 7.171188221204356 10.484293410285137 0.20851698060091833 0.7294852159945759 -0.06072894244894058
P 9.054479727136608 5.618457850795479 8.238636959793455 0.48313702347849696 -0.12699218445254906 0.46093966144585136
P 8.570461305242539 1.7715019714275764 8.000669111824571 -0.4705833551832025 -0.34392927079636254 0.5847184811674252
P 1.7850246791215003 3.4426105612054387 10.620628295065698 0.3570796921353915 -1.219900775412357 -0.8277401804134326
P 4.050532609913322 5.902171164973303 4.005043420826 1.9232041908052429 1.328375617787009 1.104569315127188
P 6.8649825000759535 4.150135349379318 10.600025250298968 -0.43340314658847934 -0.1763617360246124 0.039440979604441755
P 6.370013229545339 7.622581293218596 10.057372077033127 0.6233513630482748 1.9678801935563786 1.2639031491352362
P 2.119902539211146 8.442931629793055 5.840883672757542 1.176774633646844 1.0578829668142427 -0.8307398864717047
P 7.150840544775125 3.8760733225475605 1.2833722101781777 -0.40851666775944484 0.07647514953960377 0.2802924106720076
Ni 5.08108471326228 3.0016957700857514 0.4604663726604851 0.09698226835402007 -0.40880411709287656 0.7465971930845141
Ni 1.5321554979498428 1.3595046909813202 6.970894018897543 -1.6797649444058425 -0.2775305316561543 1.2946378592149315
Ni 6.960077670310642 0.8870850808007963 9.421864795170585 0.1154039653943174 -0.5507637214885354 -1.0364595068331441
Ni 2.5462767844233887 1.6270416478371124 9.45208459348685 1.123276147508072 0.2672252930754043 -0.8243054437002706
Ni 6.200343234487843 2.096319591317509 2.5924266595653798 1.4057115726650113 0.2291017467308054 -0.06317740398943313
Ni 4.2307990278008685 6.985741733837282 10.459579934947197 -0.9039091115665272 0.8026652397226758 0.18458283838282405
Ni 8.098502448610457 7.368894206339645 0.4940713918208285 -0.3654679161990867 -0.7054032353447077 -0.7619613342454103
Ni 7.4987412812931264 3.7211074545389673 8.37502455405293 0.3538843251265454 0.36438291066502404 0.7231479609226383
Ni 3.2077080420706676 8.422020507209911 12.486435703328365 0.16081941741463918 0.8846806023542183 0.10389005121744688
Ni 0.17314791188173345 4.837721413977615 10.42408010089829 -0.6976755276831469 0.19111549729501925 -0.511193672505397
Ni 8.858945736046243 2.281684288113854 5.496348163832995 -0.7646257684514508 0.4487060954941369 -0.3732928115601442
Ni 3.6199143428643437 2.8555632837159313 11.667986543131304 0.1208485334486564 -0.8660046232112698 0.15395097242958
Ni 1.3721822294443735 3.4575964113312994 12.723379351594893 -0.2279033555473301 -0.7051111580255857 0.5883753611937221
Ni 2.8223926633645733 8.732788324616774 7.871263705953028 1.1119308976985818 -0.07532972308125091 0.7414794122419747
Ni 5.591812300420086 7.8807759493288545 4.182119097670982 -0.09125487895193961 -0.3177068467647238 -1.1951217686954643
Ni 3.148246297150411 7.938165666457301 3.825360442342989 0.0889390863345694 1.1943416959963302 -0.7957746832504294
Ni 3.217322978051966 4.149153862530566 9.14733292694919 1.1174590266056625 0.07796484671125282 0.790938952424683
Ni 7.2986179304007255 6.159938692547532 11.506260230059869 -0.44640418683383765 0.4013494605870443 -0.4659918791577781
Ni 0.6432973793324576 9.016692483459634 0.20447279168696567 0.7149327721016977 -0.0270919711207856 0.7346765303875283
Ni 4.678965916191894 0.4797962108761945 1.7603975382748847 -0.7416791869576066 -1.8346875367200726 -0.5913529557648074
Ni 5.919029110384748 5.314860340089224 0.15655533143310052 0.2850263258125672 0.7347292380023347 -0.550790975182045
Ni 8.000026601452285 8.70714243677252 11.418088177245362 -0.6160401740988423 0.3725441063195778 0.45243753751211113
Ni 0.032363620053495266 5.044478888940287 5.846177340251971 -0.37106289378836094 -1.5570482474001959 0.7371365618922465
Ni 8.257412439696443 8.40631671762987 2.6872891810655495 -2.599720567912271 0.9981187022714164 -0.415835055797729
P 8.417949154355826 1.331514140109489 3.424841105322422 0.056940164830469674 1.4743816243378993 0.08067941742893847
P 2.0538793729501545 3.4133658882490905 1.6212027098711541 -0.05652081790486395 -1.040376325389047 0.09730751290392274
P 4.657327766313378 1.210991190219156 8.218206584009376 -0.42335039033816774 -0.3416322472320697 1.4199266878231287
P 8.696373344959818 1.5008751485664522 12.395350997411773 -0.024993179610227925 0.1914458840512445 0.3693281704854413
P 6.237921457817396 7.96462946000885 1.699611694892931 0.659264017784484 -0.7608706722843928 -0.086420947898406
P 1.628377560492359 3.3108277760780283 6.0304351379911125 -0.2516554636616053 -0.9049501512365318 -1.7925350717217388
P 7.0890523125096765 3.8340057056690844 6.1116250024176875 -0.24807365984761795 0.4940855520702007 -1.3730521347587772
P 2.3816959804334976 8.488143639724017 10.063836258473106 -0.22437348801720067 0.7541570077096431 1.408682225257561
