# total energy = -381163.35359713034 ev
CRYSTAL
PRIMVEC
9.27710583869358 0.00000000000000 0.00000000000000
0.00000000000000 9.27710583869358 0.00000000000000
0.00000000000000 0.00000000000000 13.57798213916179
PRIMCOORD
 96 1
Ni 0.7685284203367335 7.827270305403922 9.798740606280333 1.3145286846015876 -0.7321655910402165 -0.652531841266973
Ni 6.612470428417127 5.620998315842403 11.964768511514198 0.05107316452673139 1.7772053833432038 -0.6469880286306084
Ni 7.708875883045809 4.1702352565425995 3.9962310797618854 1.4386993404449417 -1.7079686605335682 1.3094397001144544
Ni 0.8442305301850676 2.0099034941803735 0.34352194526708757 0.47993600004269604 -0.02989087402216142 -0.9011078946723061
Ni 5.211107956725611 5.060874507762494 0.11920802452398108 1.2990429302611626 -0.6314835052371061 -0.19574862519165645
Ni 4.009667111880774 3.17204651947428 9.399968858290025 -0.4807217291687851 0.4776790856877192 0.48154088263597067
Ni 1.8315975235078352 8.667061740533486 6.037653540402194 1.1033079319162613 -0.44250665155164437 1.2706412391900181
Ni 8.307870763816558 4.170689834719653 13.52699692295904 1.6925960347322397 -1.0078595837082642 -1.2648336313693056
Ni 5.667235410422628 3.0217666849828935 3.889670533376191 -0.6274324750961839 0.8429837368360643 0.017597658477105177
Ni 0.16596370931027274 8.56339008484849 7.509356882584519 -1.366165177830957 0.17931721910851053 1.9480130223188066
Ni 0.9524340519821098 0.32205657820454237 2.4259102490549402 0.6277937150903447 1.6453113907136634 -0.49459771581992884
Ni 4.205664523035754 5.593927721543628 9.518790027508228 1.5028648193792569 -2.91329025258017 -0.06539729445888738
Ni 3.0820771488404466 4.585302240614402 13.132963920536865 -0.912104502893126 0.09569671677337713 0.42419859727107595
Ni 1.363344892720858 2.6346145118243935 8.948609836899232 2.2534986444269896 0.5220498984936106 0.774243494046873
Ni 6.589212724542202 8.6826751093494 1.237667014713681 -0.30978424948353744 -0.9757781297926874 -1.3067662670473494
Ni 9.082945109902852 0.2746904598662084 5.397356057548656 -1.2855729207991862 -0.19077199791267146 -1.6288871837193688
Ni 4.482317090747813 7.825136571103471 2.5946979093263325 0.4731431454905787 1.0545055657015776 -0.4043651074849165
Ni 1.0857089518094607 5.9249626826002455 13.51557773360936 -0.3999782912711305 0.03662793563567886 1.6339599702565861
Ni 2.4106651813334947 0.18041001823489694 9.29503829936776 -0.4655627620401595 1.6010174538922943 -0.6188182510646117
Ni 2.587588863263566 5.590272541915898 5.819332629911661 1.7825000560832396 0.9461842181856543 -0.2975177734113586
Ni 3.6780569702736 1.6062937355914322 3.5956669949591977 2.2979620169466872 -0.8103608085947205 -0.556053766242881
Ni 7.037742228708481 3.3768386267893833 11.50822266035218 -0.5969972985347783 0.042697795978842594 1.8294268025417655
Ni 7.1779935119877445 8.586443692399023 8.593355136111356 0.6882920295857179 -0.8972846642714739 2.007098001406421
Ni 1.6658156454683837 1.8181457203093345 4.29538062868523 -2.8975229624435843 -0.43760175805085927 0.8139955771338304
P 3.2483878219021842 0.9623141695037671 5.816196040489996 0.8179949281012105 0.29491324590897594 -0.2887881068478446
Ni 5.473724263582958 9.20633061510289 7.24677304559696 -1.2725232867040794 -0.18583933649774445 -0.391537616702945
P 3.8049306671995957 3.965573028706655 4.343283891440938 -0.6217935316428517 0.8766266217014903 0.31574818037645624
Ni 4.332222798369509 3.019187649611043 1.564753639603897 2.139934560454889 0.8018103479215483 1.8741444571641144
P 1.706959609044487 6.918837565539391 11.665550312009014 0.4178364024984739 0.5258186215074235 -1.2054645453823691
P 8.298120525774058 7.163938696921726 13.45826470258866 0.009964824522195742 -1.097385395784239 -0.7356262958953073
P 1.0127166845227005 3.7172991271906053 12.307530661828213 -0.3546661975978924 -1.1869163500665367 0.9907635474579258
Ni 4.902022627646684 7.427816690148035 0.03435590536897041 1.2696261676619423 1.594020453749171 -1.0804433686132617
Ni 8.974848274820832 5.474030408069544 11.692000267939529 0.13310678199071915 0.29655798060125055 -1.3911619569856104
Ni 6.20945440459005 4.017283615622821 8.22915359463063 0.7550517516097707 0.6199585353166419 0.727077892104664
Ni 4.349997732802838 4.460859145369791 7.091630152321675 0.3337839548322445 1.883751384126259 -1.0871534336435857
Ni 1.5050155731652044 7.4063030821360885 2.0860805918381993 0.5560691928618489 -0.38106679907860824 -0.8953036292857033
Ni 2.92883791764539 6.144820809497668 3.405696919347711 0.5211194162595413 -1.3149377471145482 1.013437077796042
Ni 8.755249906881724 9.224495187973694 13.55382631251081 0.8909173272925496 -0.3820232494546066 -0.5465905639474522
Ni 8.32560858982727 7.927463046468617 11.125513293091446 -1.9423679082178869 0.22405518544583353 1.347658377276021
Ni 0.8608727300180263 0.3116263283175946 11.42580392601025 -0.46340072139183414 -0.6252534651669942 0.8246114049764638
Ni 2.5967360894385467 3.0722805252696768 6.0368789020800735 0.24588950771210558 0.5305108847767702 0.836356975548166
Ni 3.4390880057286513 7.471882942005192 9.081361507967689 -0.10756518607618894 1.892363551275302 -0.44696340177141736
Ni 7.462346077392738 5.608325789518851 1.1944227144174806 -1.6697774941758274 3.612064926864766 0.35095943817026654
Ni 4.538861049709786 2.2148811436085594 7.4161711394203955 0.5352622834188265 -0.8541351254671935 -3.0028119508910867
Ni 7.900856307452548 2.03771625693148 0.2830370718232366 -2.867013481000817 -1.2181061454057798 0.5927356950449469
Ni 4.4520366178927056 7.595862181967097 5.090235619447276 0.7552155308811445 -0.058255284097467414 -0.011002521758090729
Ni 5.417505003318879 5.523579429368297 2.5528099218767673 -0.7812147831583836 0.19538378565306996 0.10044991518764634
Ni 0.6430036145728498 4.64255125960609 6.695818728745603 -0.008973407143203901 1.3508390889968478 -0.1588800343000812
Ni 7.659039271471778 1.1454720664334197 7.482255673837084 -0.43942955528821737 1.117437172228792 -2.421088033575611
Ni 4.015270483695874 6.719240637390604 11.429999033187052 -0.9038036963369145 -1.7666273507170411 1.706390774523487
Ni 6.17011019951085 1.2917998539161435 2.3875791039131715 -1.1240649619579546 0.39388066301382485 -0.09135695174744267
Ni 1.2790438336417032 4.311850274353021 4.441099838037041 -0.48583025403994395 -0.7223961703582784 -1.923220388755159
Ni 8.933546600448608 0.8151143340895545 9.27847309951173 0.8056266363438449 -0.27639641805171106 1.4405867872756415
Ni 9.099244984537172 2.9688779056486507 2.314584053494715 -0.066920158861317 -0.3648457092340555 0.7835177202599474
Ni 7.3932594715863695 7.8549531886758714 6.366933273069048 -0.8431045786846448 0.6481285699929547 -0.6681145261965784
Ni 1.0706800406497567 1.424991259792607 7.163145504388296 0.24472068421498497 -0.48106599988208115 -0.9097254611379881
P 9.271734209964565 6.827625062747902 6.26384885817196 0.006633189045801479 -1.4443226001689902 0.005963930892918761
Ni 3.0371666803687627 2.34961254902361 13.433620999129007 0.2338642011164553 -1.660788917523972 -1.6929593316089295
P 5.8850618511817965 8.98648176531112 12.4340638889767 0.7668428307074278 -0.8672076423804354 -2.352581761174097
Ni 2.2989317208350526 8.092465647633121 13.547051242251591 -0.37110377432862535 -0.8169484891145673 -1.4997134182344687
P 2.8471993878889728 0.428667220960769 1.0934386362404889 0.2366746739820569 1.7236729586427024 1.1846884891772824
P 7.347115148062686 6.104363351739972 3.4551485310370955 -1.937282780385496 2.642928470758313 0.14906176265807877
P 1.6064236150705902 4.857854327627331 1.9879111875166735 3.1876868665930322 -0.21641746639491763 -1.1886518447004044
Ni 5.798339467526912 5.198899285684765 4.849185800104104 -1.2275914591883954 0.6643352616598043 1.222843660090765
Ni 5.0339245158372234 0.8994534293018913 0.25641363401699047 -1.715844206626903 0.9461001431122803 0.7083132099026511
Ni 2.481588654059382 4.605869583849627 8.39085354618226 -0.9641372031196492 0.04249082217435908 -0.9535319167999773
Ni 6.587394411833991 3.063059082249463 6.147703206224409 0.042341698191004494 -0.14301838467747627 -0.5017996328850067
Ni 9.003857784201323 2.868536730893491 10.4875657011001 0.5214678007378954 0.5966034055304693 0.8274020803477233
Ni 6.698042450970899 2.209129338102994 9.532598999274413 -0.2775600993425091 -1.2430936685890526 -0.5271028875364858
Ni 8.84356795270912 2.507212019876112 5.659357292301134 0.12343917699396806 1.4839548698486313 -0.7170773292485264
Ni 1.7834493451628575 6.846503972754074 7.567552166352928 -0.21743588035710293 -0.59318178144343 1.0015791500161912
Ni 3.592215911655858 6.181103569711003 1.1131849556253222 -3.035413538976192 -0.44882282357765924 1.7571345807352576
Ni 5.544517856829687 7.961278096577951 10.235422318815711 0.5563869812125838 1.4601323135077369 1.0626001697842538
Ni 8.47004384775655 8.082205168779643 2.2295593801745373 2.803867701580268 -2.2620341927018273 -2.3655118389722034
Ni 0.6273605590188418 5.472815107228852 9.445998145703596 -0.9662395941746327 -0.5947496401511821 -0.32857361427589865
Ni 6.693329681298597 3.5537808629307635 1.8624513214923684 0.9191578101954815 -0.11169823440795602 -0.31535994379910204
Ni 2.506061658774999 4.397329525850251 10.980731071410702 -0.7518157611709761 1.0411972786284456 -2.113034650740251
Ni 5.894747149484717 0.9410324891331738 4.646358583766548 -0.2196758254312152 -1.2240417941639243 2.1485924932402027
Ni 4.805234584357058 4.066953239295078 11.378960108720243 0.0021728392816027092 1.1627320395108491 1.3039113140970575
Ni 6.064527460061102 6.490958898559224 8.493448129900809 0.5918499500058839 -0.31697793901849924 -1.3437839819222792
Ni 2.2996646121817297 1.9413456833962914 10.98185823974768 0.5713469449565257 1.0099619747632476 0.7038127509291362
Ni 3.463774383874313 8.921773953373506 11.474494815035994 -0.22237702641246218 1.0436421406245122 0.12728040511692917
Ni 2.5580969443890607 8.57136839571105 4.056816145946801 1.2003570489524746 0.920592485759479 -2.5470906004213814
Ni 8.773971106091775 3.29843780690626 7.942019752950525 -2.577440416357832 -0.2180935685457599 1.1898744042535958
Ni 7.170414116668313 8.392774834763232 3.8101583162357024 -2.4410220534953764 -0.5176646249417214 2.869600267891387
Ni 7.500150282933352 1.0859316023451602 11.595990573814285 0.19031974086660128 -1.3527206222902768 -0.2491728064490676
Ni 7.4198662106024384 5.467879687020851 6.548022375437828 0.5797850484215499 -0.7649150175570956 0.2736535651992513
Ni 9.211748444804908 5.5935380831061545 2.654509264899693 -0.6816197597718647 0.6452419924737791 0.9620906050032656
P 8.12972250394014 0.901589019023474 2.8670180686979085 1.133637179027422 0.5619472489091806 0.4169321455166497
Ni 0.5850152102605273 7.373805381029642 4.268183865749558 -0.6229425576456304 -0.5123576109065112 0.545064614221229
P 7.553985327044316 4.672488479551994 9.813024565856008 0.9777792193831161 0.31112328000993517 0.11603928498547113
Ni 2.2762491975106847 2.868824321168769 2.104111574387583 -2.1335407411134026 -0.5681220102613248 0.7490939913644389
P 4.344821107847829 6.919728167682188 7.100076029309202 -0.4923767969092101 -0.4601850426680139 0.5999173003950508
P 5.746434061392008 2.9904471762945226 13.61504964356473 1.0122777673806178 -0.38186564083081975 -2.48438859340647
P 4.483439620531963 1.1182344842328698 9.116840870831377 0.24305718046963304 -2.2940925066889526 1.6501712899091259
Ni 4.769248691524656 1.796520787029538 11.237775548612174 0.81140750469168 -1.6305203484474178 0.4789659228199428
