# total energy = -340862.46172225557 ev
CRYSTAL
PRIMVEC
9.33886691587504 0.00000000000000 0.00000000000000

0.00000000000000 9.33886691587504 0.00000000000000

0.00000000000000 0.00000000000000 13.66837571851548

PRIMCOORD
 96 1
Ni 5.604907798075164 8.303672256984068 9.313343861011088 -0.9176763405539485 0.5562360574570162 0.17667155395554734
Ni 7.506702687395557 8.752656964996897 12.529266756919522 0.2729917632455363 -1.1286883196625788 -0.8454849059913632
Ni 5.489815601358436 3.830354971418306 9.357452263665483 0.7374538360223493 -0.4843706387752819 -0.23937176119824582
Ni 4.190377632536982 3.7284772714846173 -0.02591722365532798 -0.17507129934796298 -0.8126467764154197 0.7985473608995602
Ni 4.642817721334068 2.267458226097695 10.800367915402992 -0.41407205036003525 -1.214236120927412 0.49158489713553394
Ni 5.155138625235638 1.21453832906555 4.526788836258797 -0.7240743293916497 0.08385858648786848 -1.0391211128257072
Ni 5.994861527879097 2.5623796454675634 6.184954165348181 1.123721976796239 0.15896462359408753 2.458960126031036
Ni -0.04544386063317653 2.471017509758399 8.827542537685344 -1.2318895723431171 -0.06290229595117554 0.6734559930141499
Ni 0.9175941111068439 7.7989064964729415 9.31886593305901 -0.45200430662943447 -1.2553616873231284 -0.559178685025108
Ni 0.7101274454998341 8.059386174404048 4.11102341199646 0.9389421919112604 -0.46270318110417735 0.6115420291181726
Ni 6.081479519160146 4.934237065584757 0.9988824109998503 -0.7931439304958018 1.3052845402955002 -0.4142512562503769
Ni 3.7078570531828863 2.6744740658822725 7.910668453223003 1.0699851493944152 -1.192915762183081 0.9525142741687403
Ni -0.17726103423240863 0.9915728798110979 13.47730557439577 1.3674957237169223 -0.8936761209846094 1.0304467249801608
Ni 7.46080215616684 2.620607481115794 10.887134394669093 -0.2122589641418538 0.4884507223819265 -1.4218035931308675
Ni 7.973786119624308 2.1098648457346005 3.9083083619111547 -0.10202702986677913 1.822767902464351 1.060285405608148
Ni 8.145359783863169 7.237005547750769 10.466640702052516 -0.7163975295726823 -1.0565313378823546 -0.1765723093735217
Ni 0.14818447187623118 0.21986774707570023 7.259178819632019 0.001277581160842961 -0.008263011339740608 1.3251427126720081
Ni 6.444901527861172 3.4966212208609404 12.884958985417494 -0.12449461484167594 -0.44830680317318927 0.133194456608519
Ni 6.644426420984581 6.729783665222724 6.6808694816181164 -2.16146677809971 -1.1383250714213944 0.23085960996217664
Ni 5.19602418489369 8.598080038669789 11.721602316860386 -0.021693682923349736 0.2581315583042522 0.3267877260200695
Ni 2.3891623406394342 -0.13676583921430788 8.133490083925894 1.2709474575765274 0.89143797568271 -0.6569734219780944
Ni 6.09362004623997 3.842290043424471 4.364367261664727 0.2010021602811119 1.1187440639656732 -1.262485185741787
Ni 9.453081327699856 4.596226113948499 10.595533876398907 -0.6144458330285288 -0.4179796129445576 -0.38155093780387833
Ni 4.600139099214997 6.653783965703029 4.7190069998535495 -0.0033210939534329903 0.7693578838197975 1.28792033798544
P 5.486808486189434 9.52984681431228 2.6734794765484255 -1.62633819204527 -0.5018891072750195 -0.6804841035055249
P 3.15839547528404 5.312209029047602 1.0948953024672858 0.5874160826042463 -0.3004693998405148 1.4275014148465932
P 1.7791849046811599 4.4559750095755835 6.312876097528187 0.6201007173214611 2.069203512487914 -0.41334468527570745
P 0.5372622159570202 7.260632881221503 1.9443128829273324 0.9009145477145775 -0.36862780198430706 -0.007586039877374031
P 8.023898479863027 2.2529456268038137 6.6202910531498915 1.8645321308853309 -1.1831699956502268 0.10656862649087454
P 4.431049573594008 3.1033895487454553 3.0716943680868294 -0.6326777826555233 0.8565617326308153 0.7033414677196725
P 2.4477170366321217 2.584615487757609 10.36142155551178 0.18266119588007895 0.12886549021586197 -0.7499008035364504
P 7.357430237515635 5.74299228530768 4.750826387443068 -0.3452711295362376 0.014462455282233156 0.9249137388426523
Ni 7.276677054700839 0.09595499049213173 3.9120672558724077 0.7486923850506461 -1.8533781711510404 -0.7160365466888379
Ni 8.021927978929302 7.032661799263369 0.771745289863431 0.735775676988978 0.9818611027619734 1.4201028083896767
Ni 0.5835549795990859 1.8999084381895288 11.225741166018961 -0.1104579342429517 0.6434784728154531 0.9814767228393612
Ni 1.7131217596329507 8.640048906898041 0.8636322698971234 -1.1031433813139389 2.1473606777156307 1.4652061284862186
Ni 3.53216494860387 0.9523122830083454 1.2737953078554705 0.07017311858097591 0.2046189310980928 1.174186561204694
Ni 0.29097761584232223 5.845738499870926 5.324501779659273 0.15382293149214799 -0.1524515050659181 0.5055719554432454
Ni 4.871003597232845 1.411093462487894 13.176424090116408 2.224960170667665 -0.5819977398021525 -0.8962608509926501
Ni 8.973782657455406 3.4637390702085873 12.812106484071569 -1.7048427133100768 -0.3412756352235993 -0.43494298027177347
Ni 0.2647223252021561 0.955730308324665 5.078594469770748 0.24711978057478085 0.2623216851261998 -0.37380831774398204
Ni 4.840540213129471 5.615329973629843 2.848079867576956 -0.6976739850212501 -1.7781520635271892 -1.4892719111861707
Ni 6.709471629531482 0.25439353831732153 0.9180311700817175 2.3010524829465533 -0.7935671340761494 -1.3503559787128423
Ni 6.4910168530305326 5.194483271841252 11.098584087044983 -0.9056785447621241 0.21318301861801997 0.30213984556440227
Ni 1.490688625796614 2.9603834786121177 3.3217023744682392 -0.11445137167306095 -0.20259444446889624 0.15834550195284988
Ni 6.138960245449619 7.6085897261962305 1.9872996876568927 0.45727892476481247 -1.792951333323551 2.5184567387347725
Ni 2.119334456856863 4.028348290356259 8.620576435348703 -1.3882211291897317 -1.0395476588401644 0.15603330887990546
Ni 0.4587933200066281 8.53464111524422 11.760707888471197 1.0626654758045504 -0.26835734979731846 0.2674687765447781
Ni 3.427046661826567 7.05409449899275 11.323252011750705 -1.4040341849625886 2.3206759136044357 -2.061721859398888
Ni 7.786579192053429 0.2710820936185867 10.1462951512041 0.09895687558188763 -0.3087545226674424 0.3746462402642451
Ni 2.792909576979444 2.1435408000806344 12.584541642827261 -0.5073303328952489 -1.8148751299798358 -1.0381394656387282
Ni 0.38795427838255603 5.486042699096707 7.877631277378709 -0.5701948336299535 0.24037757675494087 0.8097882239207023
Ni 4.384532677144314 5.874707665256781 12.736479405344554 2.27494061635085 -0.34961912209228824 2.209199822509615
Ni 4.480414824473967 7.5735222806695095 6.916362087045548 -0.5370384014826429 0.2534408376968022 0.5074776571063906
Ni 2.5043759426269596 0.13338610325262468 3.857584305884953 0.8677357469697637 1.1409967047162866 -0.407813213934517
Ni 2.1871159534302165 6.742101630775253 13.599637260798866 1.3604545005994246 0.18983431658975047 -2.174489415611623
P 1.5782965369780175 1.2224576882683889 2.029152753934537 -1.6907615526266624 0.31555431919809523 0.5566890858340348
P 6.433396043736294 6.8602102815279675 13.090941705060672 -2.858632970246606 0.633197145494103 -1.2665202750431093
P 5.883747688497758 8.496295727405945 5.132406889108716 -1.213468132413136 -0.8452491358314734 2.2966515256653803
P 8.158910479857648 7.640556667884105 8.172513473507241 0.2773932347473416 -0.10396769853291772 0.20442918368478985
P 0.7262369910480616 6.194629231544102 12.024767154117454 0.22666485515453866 0.6512306059570462 -0.8925175819001339
P 5.09560334820958 4.701092251317221 6.202025614195809 0.7774573729984804 0.5652557444571232 -0.2261668324721976
P 3.9798141986379183 4.295776085323819 11.3419092002123 2.3809451428081383 0.6186133341426572 -0.709090711498624
P 3.261010945709503 7.176032085209101 8.620248641117547 -0.4124208879098574 0.5582271197451161 1.0949883563069722
Ni 8.118772029558356 7.899710226703415 5.763393974121975 2.154323482186709 2.0225734713342 -1.239569457485878
Ni 8.663965745245294 4.432207593100083 3.7525024406888896 0.17230170702262584 -0.9198970023543512 -2.009459302549746
Ni 9.016265163367805 9.29644051176918 2.259519255274189 0.06691964464068476 0.7742440082675053 -0.2865643597236484
Ni 3.3280173163231446 7.536110779529683 2.42651967635075 -0.026174087292206532 -0.5129299384702134 0.27689341229278763
Ni 8.223189901311823 6.980747037696647 3.2283613328450635 -1.4513111156716814 -0.14494002718022134 0.666048387696169
Ni 8.575517336035286 2.6294794047510495 1.8035556119638583 -0.01030215325695645 -1.0319150819955711 -0.1370806790368026
Ni 2.045267902802955 5.83040408028241 9.89448287572129 0.6740429758658714 0.3982325122246174 1.0394908374603
Ni 5.8507067771066685 2.073807480307525 1.6907785203725831 -1.0002529750055997 3.1094538538220577 1.0713383209882
Ni 7.679144866263974 4.682694683357796 6.94846911173819 -0.17779949691240346 -2.0156656884707735 -0.09370514026464508
Ni 8.106650180212501 5.591329085479731 12.697046039502588 0.48964628535192445 -0.7218940339108794 -0.7775756437438995
Ni 2.0832117193608957 4.276715457808496 12.162311854838267 -1.7454558588457487 1.4713523505932724 0.29449184210084123
Ni 4.631695130755553 0.703758338216419 6.819221060446387 -0.5679145222362091 -0.5745412835241074 0.06205666012142862
Ni 4.1049083218950235 5.146388106871181 8.025769988806715 -0.45700895893287746 0.9925018703052713 -0.13595556429342395
Ni 3.7546541156421136 3.093098117328558 5.649973434595469 -0.4001361570052334 -2.732695452310816 0.6137660333526849
Ni 1.5491219165185033 5.492626600320764 2.8404658893245096 0.15022364417666387 0.43748220175385943 0.38291002293493404
Ni 6.183366557960819 6.1461511730276674 8.886945202800222 0.576442100091246 -0.45722210338494806 0.03294637301903358
Ni 1.52118002650094 7.312108716039955 6.93246322761349 0.572709115411375 0.3440159169728979 -0.67554398589143
Ni 7.1072606687353925 0.17777560580325347 7.681107896104113 -0.9805328708688534 0.9105726396296318 -0.32629304577183804
Ni 3.0335441625685315 4.701437789395647 4.476283309720033 -0.041252836002199915 1.315099212393077 -1.5222712489303267
Ni 2.7264635383848708 0.21334828403383496 10.706588880918245 -0.00939995315766123 0.3558221655792066 0.25813438651772963
Ni 1.1779579870873431 2.756646756478709 0.45471783845460123 2.965647426025647 0.24594452931975708 1.9883268914465049
Ni 0.5782252882110432 5.34652002634858 0.6808753124443485 0.06613340129396353 -0.7790828244170452 -0.4664199678341322
Ni 1.1105780617943224 2.7011085145220086 6.875288816161109 -0.5325932212270956 -3.0974683993254075 -0.7275694870291017
Ni 4.727988188232523 8.233033067113464 0.5134583779002799 -2.048200684984002 0.035699510284138515 -2.4902684492260145
P 7.368291339818584 1.5264191308792332 12.773834873282473 -1.9089433100108544 1.0804479965989522 -0.3586760900882339
P 5.921523405449978 1.1677972998082293 9.408790817139264 -0.01995381741410757 0.14775384247993265 -0.7520109079009177
P 8.061739568884137 4.554135840449449 1.267204869424523 0.19618057052275245 -0.019413114419289147 0.05701652659435988
P 2.8729436670364343 9.211568888614229 12.92257500774428 1.9853256427263357 0.016734024925229248 -1.9124883470496352
P 2.368616833273579 0.8800191797947898 5.941465622008636 0.357086634113927 0.15779554298665083 1.0636268112765552
P 7.703752780768078 4.50591927020858 9.339983912971014 -0.39226472467695667 -0.08344669576143049 -0.5558239096202621
P 0.6117069941237998 0.43032191623104493 9.782401529720358 0.3825163870409412 0.5789545821004545 -1.53729754713583
P 2.3643863265296092 6.70104797151148 4.963657298245963 0.04114176434563237 1.3916779773900805 -0.6403242434571875
