# total energy = -381171.31442707457 ev
CRYSTAL
PRIMVEC
9.26108643106253 0.00000000000000 0.00000000000000
0.00000000000000 9.26108643106253 0.00000000000000
0.00000000000000 0.00000000000000 13.55453611681956
PRIMCOORD
 96 1
Ni 1.3015438218066941 0.41288516282913273 8.93794209219889 -1.168308505157362 0.4213246181573905 -0.06839082986957255
Ni 5.7660264823815615 6.881255767959116 7.124372251524362 -0.9691264288041245 0.29522100695738185 -0.5772627962203284
Ni 8.50322391817778 2.876743485696838 1.9557293691577031 -0.5158352850424665 -1.165103110846187 0.05247672974247737
Ni 6.09824943486928 7.854068066851527 10.804158430741087 -0.5055380168815164 0.015174907968225479 0.26410937315424193
Ni 6.2343688828012755 3.0484903330161246 7.062739721521136 -0.11562250916302667 1.1224030008744992 -0.8710103039559773
Ni 6.789691406705636 1.2802803674284207 0.2062962562494197 0.7022860298719648 0.10015063877967267 -0.8129745920684837
Ni 6.615240322157057 2.98731159624658 10.722288574732891 1.8527842463207833 1.1204497338028703 3.108601790234408
Ni 3.20842929517326 8.475209131812676 10.01654470716641 -0.19158806605606357 0.7355779591558752 1.1412239902357442
Ni 2.608912866960049 5.403825393211581 13.27195086311223 1.119191435915737 -0.9661496055639877 -0.2536177295942987
Ni 3.0293661895966406 8.446749813300292 0.9878300766013869 0.4193153010368456 -0.040379175147994974 -1.003712137198794
Ni 4.6830350385682795 2.281200063549952 12.749654299424925 1.6029105571499491 -1.9472859143447945 0.44143013065801395
Ni 6.867725320726251 7.24178060049039 1.3148983083979269 0.8367902064308427 -0.863711713412035 0.25219899486990116
Ni 0.34993200190502494 8.820897703928448 13.533079233620116 -0.7084124544846767 0.47356763462250706 -0.4665523796469384
Ni 3.497736373275561 0.6659869497526787 3.4296368266380353 0.3794770859939851 -0.5164173827981815 0.40204314421995924
Ni 4.274750783463505 4.215887318294382 11.7549136001506 -0.2837867969785113 1.161386067005916 -0.9554499597582964
Ni 1.4232437582112636 2.217131867823081 3.2842099868723444 -0.15422916579163115 -1.5418761676454478 0.578787460394971
Ni 4.173767897339509 9.088117090962726 12.264821608558366 1.3359220626756994 -0.5624051623822056 0.2590016196140314
Ni 7.1610702324996875 4.262655804622901 3.8138941191822733 -0.441788028218065 -0.6080795244908689 0.2509116435170453
Ni 3.8692541153656377 3.816604839172047 3.638390049109823 -0.49942110535050116 -0.7238778971101276 -0.6169485448457246
Ni 5.432840376908067 9.088654233974022 1.373291310377844 -1.4034885968717634 0.11978923894620659 0.2630832458825727
Ni 7.0251360062957255 8.33287549490515 8.537852972450967 1.0713496338421096 1.1143186812044679 0.5785578608826681
Ni 0.6878079215323337 7.394468131995004 8.614097644578777 -0.8468110810019545 0.2119702292568414 -0.7190334245336326
Ni 4.469529952663787 4.995513354847602 7.781361129729162 0.12679472372976228 0.11763928248273935 0.7659213473344227
Ni 7.198735070895348 6.637957767100396 4.123507055328914 0.46071340436765823 -0.2300916214479005 -0.7374898314666073
P 8.593825126445484 0.8643714598891372 7.439881721382958 -0.765723886611636 -0.2693150857248975 0.3128963127499579
Ni 4.773358414243933 8.925186797897846 5.493531054424242 0.1489046682549242 0.532075915271045 0.7789455275082326
P 1.6277841124789234 5.080511605842285 6.934568137939068 -0.24586971021776366 -0.03104041424557235 0.27760406520656705
Ni 7.891455072655138 9.242082652390772 1.8517532999086825 0.9030814734589092 1.0016064037097008 0.9102517659551034
P 2.0635460109375034 5.885633413259349 10.702065140357528 -0.3265200741809796 0.43915213325711466 0.4431350291642626
P 0.6027457690414784 1.0723226722785384 1.4314129625261918 0.09052160033034087 1.1030189399209325 0.2678423578341129
P 2.819852631931275 3.1388322308645815 13.230989077957567 -0.787354063286902 -0.15454386881857257 0.7768927587442621
Ni 5.328949509653941 0.9069085558407258 7.553441162840444 0.11650696865050901 -0.39709788439954197 -0.2861866646692555
Ni 5.33833099017885 5.504447096965911 2.734654341470315 0.2441252167228312 0.854650374540715 0.39627538849824656
Ni 5.3824600668828895 1.0651823746628375 10.515839510557845 -0.5500497261406462 -0.9809252212112655 -0.184910654035888
Ni 1.0428075899163618 1.087955386124586 6.239126302885823 -0.01842066859903279 0.7524209988551428 0.5389543875584331
Ni 0.102687852130546 7.67315274399457 10.644715862815083 -0.2547006782458323 0.23952577027760683 1.7357214051668042
Ni 0.7360535511419223 4.896058547979885 8.980652370466188 -0.037144213150465066 0.24358914171370308 -0.25316418699664783
Ni 3.2785357192340303 7.493987766467533 3.073355423896014 1.5174434885243802 0.012727989089629693 0.5972649503738682
Ni 1.8806025101585777 2.6327045979259833 8.17774951935097 -2.553725332129079 0.8566589203303118 0.1861285856033891
Ni 2.5197286049118035 5.7633315062386705 4.3343745838262056 -1.0981384719001797 -1.4999191064873716 -1.0529343645597156
Ni 5.902479329424017 2.611292966165283 2.1479876706394454 0.4651503570930892 -0.06248089214304079 -0.500046654749642
Ni 1.9496624314559579 3.293158974662294 5.640624889742237 -1.542394759153079 1.1091391938860575 -1.7993644359387462
Ni 6.356411479402708 8.796485480173601 3.789373540716527 0.23166925034766553 0.6660995526490786 -0.5613715789113687
Ni 7.218100002561276 4.531394009827056 8.737565522377428 0.23821065101060906 -0.6900084980561924 0.8269025150034855
Ni 2.2914057807646113 8.768998575733393 5.135949395151425 1.9320539278863884 0.4833103158315676 -2.7670371630154795
Ni 7.111264109831415 1.7143011816434834 8.8136064506044 1.4095116631373918 -0.038940900039571645 0.27667204031060094
Ni 9.237035360301853 2.0235936842006255 12.592977091898465 -0.4302039229248914 -0.5992377578295228 -0.20353855354972045
Ni 1.8726842812851352 7.524049252927409 12.371943668858039 0.8672670348634612 1.1288053048564173 -2.3433975235716673
Ni 2.389545513363289 0.9082578961294517 13.137015908131009 -1.5455333047820607 1.1186725872977896 -0.6253205709595037
Ni 0.3970070301934403 2.6421509060557042 10.033541579039428 -1.1321073726464566 -0.9993996258663693 -0.1686520260851805
Ni 2.9684189799871383 1.9796127848790137 10.840619327904529 -0.6450879833944181 -0.04307986190860968 2.213154950502621
Ni 5.299230683390928 2.13028139954806 4.398623370737909 -0.04245379828883657 -0.15829896498563062 0.687444336873442
Ni 5.489879408056058 5.550743267887944 10.089983270114509 -0.01768456176395664 -0.31031543939665907 -0.2873086940888407
Ni 9.010148004546922 3.318682528785344 7.1963336711913914 -0.4989307959776439 -0.271949438023951 0.5525434390967774
Ni 3.069364821765527 4.222610867022007 9.58418162741725 -0.5370152615541913 0.6779813916883292 0.1270433494054586
Ni 4.759346390518181 6.587947900531286 0.48516608997701965 -0.7162712884074632 0.2899787847218361 0.2226315656254295
P 7.412934738279969 1.6534743661572031 3.596479002598988 -0.4019001908841917 -0.061930161845893346 -0.34765299950485284
Ni 1.0373157656801613 7.8154956419885 6.457963922340407 -2.267252246567656 -1.5543997540337553 1.2082837599987188
P 3.200538849559022 5.605948603928401 2.0432244090462817 0.035846320274647944 1.515134123664913 0.2882222070420456
Ni 7.044111972332782 1.1842892068749344 5.736130769368275 0.5921692810185156 0.16788506601216893 0.32110481670267926
P 6.962651456343543 3.3099308021357494 13.17880470830134 0.32093178145992474 -0.1885045420347334 -1.6592719666588134
P 8.742011769958877 6.2907133324691396 2.155686411765168 -0.3948229723224362 0.18060996977800509 0.4811441614181842
P 0.6512294085715904 0.5478395660917965 11.027957214181056 0.5032026838801206 0.4223872550939499 0.8268037846420921
Ni 5.054182337202289 3.156039329398916 9.243204169954018 -0.054808977420079806 0.07085368958776829 -1.0964050341488407
Ni 1.3216681625575601 8.588675962406146 2.5455957453403553 -0.6539845145530995 0.011991368033921283 0.03129469634822352
Ni 3.479306811336204 1.78015676704588 1.5252379549703232 0.5902347829999641 0.3580250867677963 -0.7895515851588532
Ni 5.016684198361858 6.793238402797482 4.815655648057718 -0.39110875669564255 0.23976256887876124 -1.078498071961433
Ni 3.1475098688229624 6.516906106743944 6.25892928393855 0.42948658514289256 0.97370787752722 1.6671667960258578
Ni 6.843377924576216 4.845002178647384 0.9751322010360337 0.8261196140908739 0.0016966709761325617 2.515180896196978
Ni 8.204387182168142 7.0201905861572245 12.695558441535391 -0.8596563123957389 0.4805103844889273 0.4151719682924334
Ni 3.61021226762405 2.9113429044935413 6.968766551694578 3.954722272927241 0.7832061025567995 1.3203000398677263
Ni 3.5630270324074544 1.413704839217526 8.925309970346987 0.9838591070286088 0.08379970822547504 -0.20087231957146698
Ni 7.682219347581823 8.283726909371396 5.993260202767915 0.6207105829913181 -0.6274039358510937 0.2195472702731509
Ni 8.854654363862597 2.8219641596308596 4.88401080067993 -0.13266815179140376 -0.31858924936967714 -0.6785107818292379
Ni 1.0509758681226498 6.6458482127146326 0.5835095664765343 -2.2314077260652216 -0.3495738706766496 3.1782894845385328
Ni 4.774423439180127 4.669393458298594 5.535944051818048 1.2497384275990797 -0.7015170129164241 0.10523088151605749
Ni 2.7405869934192357 6.693348324868886 8.623965332139774 1.340464173520427 -1.4890605665063128 0.03131217984972027
Ni 3.966208428904899 6.78295859689161 11.628463652530606 0.48560631095459594 -1.0089517883311785 -0.17159593920485286
Ni 6.232322182706503 5.441110527064773 12.47273485049352 0.07992248465825591 0.04762557229776314 -1.6789306214300055
Ni 0.37630942819430996 4.5410070175120065 3.165892199221671 -0.3720982770314108 1.1787122169891895 0.6591699154087809
Ni 8.997275094448577 5.1245758549415115 11.44558590546513 -0.47457576417204717 0.3134516710327957 -0.7112203562471171
Ni -0.0060965731782305745 0.4189928493110453 4.108108646968828 -1.1118946451440075 -0.19913682493759896 0.9187749729347661
Ni 2.2032402382205505 3.7524069882355526 1.9862548360463037 -0.6753982043421851 0.991449517781357 -2.190540041316582
Ni 7.709687729849226 0.482044177751011 11.18279053940494 -0.11430687567539667 0.10097647711507772 0.2591443158394827
Ni 0.1835315797654328 7.187316151362069 4.324859743657113 0.8923707719096244 0.6027133750829491 -1.6270712135565528
Ni 0.3662074351473497 3.9901668594260635 0.17562168586975188 0.1424874518746707 1.4522986763959311 0.1866931998576075
Ni 1.6516499321360707 3.800981386412401 11.57539762744894 0.09608701023326031 0.6080021342857141 0.20471329058411195
Ni 9.022233722301124 5.336099068356043 5.561033260988859 1.0145747909449108 -0.8228607408339442 0.039453320899615923
P 7.1464654992442265 4.962608714862408 6.438621217281844 -2.0416361443926063 -1.3788196333701739 -0.6475680695037944
Ni 3.148574893759156 9.129643802387891 7.502530192564449 -0.5002963088666029 -2.232466763457355 -2.0967436268897113
P 7.619364354173572 6.415284205658232 10.085902835445927 -0.11784188541184867 -0.7063465730945835 -0.5155120973750928
Ni 8.015498063919333 6.415321250003839 7.6129325296676 1.8453146774166154 0.6528614566922498 0.5512704859216248
P 3.4966991315985716 1.4697344119477325 5.565316513449639 -0.6351149313421062 -1.4690545556980315 -1.2962018612679418
P 4.888649678858535 8.287079422648805 8.754467931169147 -0.129299492429487 -0.05931432148960107 -0.24223776989213122
P 6.4206278525120055 8.521912790536383 12.899228253681292 -0.09562858253960305 -0.302427294897834 0.39583033054102795
Ni 4.3540349441483475 4.121414975910772 1.024687348262821 1.129156774658565 -0.61376037692573 -1.1666938523720745
