# total energy = -381172.0705434034 ev
CRYSTAL
PRIMVEC
9.22055009334981 0.00000000000000 0.00000000000000

0.00000000000000 9.22055009334981 0.00000000000000

0.00000000000000 0.00000000000000 13.49520708909916

PRIMCOORD
 96 1
Ni 5.924074184499365 2.2108204556855675 7.327964675322613 0.3536513831801329 0.5986291777112465 -0.47942049385885827
Ni 1.6118166558800977 8.05653840764465 6.4491835758321265 -0.008303120549056669 -0.3066793853059686 0.5835519716631499
Ni 4.968585486779989 2.7527674930811443 11.347984253203093 0.04639889897951364 -0.7447035756062271 0.29062464583595105
Ni 2.353194965764938 7.79037801596334 9.395363166466986 -1.6983951579125203 1.657496105705313 -2.255204314264187
Ni 0.3007217786465661 0.07823359922741004 8.428741576870799 0.9077053453841658 -1.5959348971630642 -0.6571176608654425
Ni 4.939042845092644 3.0255390189977316 2.308206981040616 -0.32286036594120526 0.6364477912209168 -1.6606426217540948
Ni 8.280837503052382 1.721006407085325 4.2943641295997725 -0.1366322786454744 -0.9412965510760498 0.5629738904014822
Ni 4.612533954708562 4.5809720126062565 9.39297412200344 0.9283983549571431 0.37149535334008926 0.584784044298038
Ni 0.05088729251195131 6.837120691305242 8.458930579101928 -0.21446651331613387 0.33998545565726607 -0.4574267631965864
Ni 2.2638662789150614 4.672725704064053 12.414942022048145 -0.6723720159213518 -0.073894276186305 -1.7437887555559712
Ni 0.539964619179978 1.0570899364062871 6.275108815402851 0.37795987801851033 -1.3724304420143782 -0.10293848593745497
Ni 8.96090837705109 5.703527852876512 2.933506866934769 0.44269099964830855 0.628130272494157 0.07120875893434188
Ni 0.554508192442603 3.0261844574865315 13.522467444024223 0.28301443758886097 1.4759926775787613 0.10527381893885095
Ni 5.974713444220622 2.3259666820874316 4.181503677503243 0.5572205328574726 -0.6804851319467893 0.1888498411892941
Ni 0.2973332265803677 0.8770752977700864 12.414388789057742 -0.252008733235966 1.1817754292955451 1.1687198816631679
Ni 6.30773204279174 7.202005510123386 6.914458053088205 -0.2307158852954607 -0.07593907453047567 -0.9693580851989563
Ni 1.180977244056467 6.3455362971357205 11.000118725279615 -1.1898250390728993 -0.03465744217286935 0.34890101297934106
Ni 9.142682296596764 3.2181470846053988 6.478347252921048 -0.15857330169293982 1.051133306795235 0.16394922129287248
Ni 0.40618273949649886 1.3920264093441244 1.4865776156233745 -1.0653363377684943 -0.769920698301803 1.1417317831100982
Ni 4.2693727513134485 0.882094043047996 5.41465448077434 0.24746405128807702 0.31634930429556485 1.037998826295806
Ni 8.524887016217383 0.760410446809575 10.340095170743023 0.7144548040240147 0.6303506771842434 -0.4580091180626177
Ni 0.8455032130629576 6.641285433253577 0.2546300941063965 -1.139234213499225 -1.082593325076729 -0.5016106568026523
Ni 9.174862015538347 8.569210199298242 4.387049096591407 -1.3883401712660992 1.4137694099724814 1.5986574383005498
Ni 2.238952353247394 2.685162421654297 6.2321539619182476 1.8365073635376308 -0.6304180400870691 1.0851356318826086
P 8.903418248798719 4.828488452511096 11.939789569748479 0.17520371116076922 -0.4967749259769057 -0.12281311337419494
Ni 7.91356456182568 4.872064771054916 7.668192821813623 1.230992000229512 -0.4314825325269988 -1.088983544873789
P 8.330388737892518 7.685042454591231 6.393191786928753 1.49551274988956 -0.38430741750309294 -0.09176010072313229
Ni 4.605231279235285 0.3154128807066309 3.145975996897785 0.6984185764967584 0.6944590776283782 -0.900077653635579
P 7.507048960479957 1.8250695325795143 0.38440933310433345 0.6379194906704367 -0.051727510281278664 -0.1161074192192452
P 3.7166561117047565 9.15197661083548 1.2834064881190093 -0.6457235600958879 -0.2739726391015669 -1.6064730776902267
P 4.583682854259216 3.7931774548268793 13.450524103897658 -1.1457833274716525 -1.4362431655949652 -0.31919834370858574
Ni 4.658894879304059 6.7953792621795825 8.721897894373647 -2.355895913148994 1.7635517971155115 -0.9513498215469938
Ni 4.510204292584292 3.480167449408551 5.2579752096732 -1.5512969467387154 1.2652046415554792 1.4921127230690754
Ni 2.1750078401070247 5.584112511898731 8.48030657979599 0.3923997075929242 -0.2687455863746726 0.18699041938305216
Ni 1.984538942062237 0.2217496133769724 2.981805951106633 0.4475033334352874 0.35657781279830847 0.20766388857200366
Ni 2.809058949854317 2.128582371662647 1.2124294616156757 0.040333666622040215 -0.4341348825481814 0.6350005172514289
Ni 1.2889406621329744 3.6275394975012 2.459042267653167 -0.8787884052394994 -0.09207017576438337 -0.1552144125230359
Ni 5.97615184999566 8.419090427353275 1.2380801092155593 -1.8008947565403435 -0.3940578120216375 0.9303490509256106
Ni 7.075195288173927 1.1080334742722624 2.4509318720139066 -0.19239153579396545 0.1763059430860125 -2.2320996099259234
Ni 6.580245393312807 0.22801128877331336 11.388416364251475 -0.9397680302466653 -0.07335125919864142 0.790909127628012
Ni 7.463979772177338 0.4558271018900188 6.734337378128844 0.3703982636211685 -0.6541218114619122 -0.5856096255231269
Ni 5.612106101212956 4.687580009856285 7.1687211693109685 -0.4242430773557661 0.5589591128151341 -0.45336981951839345
Ni 3.4278500496164166 8.067861242848165 4.436576358001959 0.5626231919302825 -0.7734737057603841 1.0027562010434279
Ni 8.090442369406315 6.743928594072408 10.601078223689177 0.26705277205328204 0.2586619768864255 1.1369060795866806
Ni 2.6961994198127717 1.9547381249793714 12.46877435817899 0.26392399661631316 -0.1053164992513283 -1.7756987168906901
Ni 3.408376248354346 6.536420119923308 10.792426762188699 2.637687276964032 -1.7624845321932614 1.3563376502175737
Ni 5.383482567930267 6.509551437689561 4.719328207065359 -0.82808702222989 -0.2950515712590532 0.12596811406340885
Ni 3.843466333654215 4.986325824672141 3.506742918157386 0.20430448518146752 0.14279932668813472 -0.2591517720386505
Ni 2.021043098878779 4.236639799381464 4.670501707442646 -0.8491649259461118 1.0417688348611993 -0.2562569669893587
Ni 7.06881466768465 6.767837479807516 12.837166674156267 -0.021365610159969656 0.10884688100208995 -0.4298910196701629
Ni 4.786571832938478 8.362660662332502 12.616722690636637 -0.22981522785806224 0.017775835926182287 -0.08335310760635968
Ni 7.699361968492744 5.639537236986944 5.362887547807654 -0.4156393948471552 0.7895225316931306 0.21875897004390066
Ni 3.1228342609093644 2.2288005278735583 3.5905752352476417 0.22745444093536954 0.7481609380272082 1.1313393841321806
Ni 8.59308220283399 4.961411899004472 0.7845572227305553 -0.6109313921173672 -0.5195122196734214 -0.7829186532233677
Ni 5.766743942579521 4.9189143847919325 11.476283593951711 0.24167778362360312 1.8191930406288992 -0.7499607102401084
Ni 3.206639838405084 5.789168319790392 6.048645656947673 0.8795885325432915 0.4506480497118561 0.5881185079879097
P 2.135276490846484 5.944940288787276 2.487260838383489 -1.540802732075611 1.178091809796371 1.9389324001737767
Ni 8.003013115823476 8.812835567170604 0.5396022515712662 1.9480071087815354 0.9038263220447337 -1.6914925172554158
P 1.1125515436938602 1.997014345995751 4.366927090675585 0.9593079000518059 0.20067485884868022 -0.6997527219271497
Ni 4.9864088096207 5.876025899283149 0.11864634712112643 0.3675471673256186 -0.11061040066041596 -1.4329940625300484
P 5.605725480723679 7.410583568053924 10.740916160507563 0.7026632107057253 -0.7480568083491762 0.30147650094879047
P 3.85457709621141 7.972013627261412 6.647576614409406 0.12768226854103815 -0.01580688512526955 -0.10281610142697777
P 3.4613944099343206 3.931734657272492 7.754170760851645 -0.44943423190941306 -0.19627133046434583 -1.4665757551402356
Ni 3.0148155195338173 6.957098485823264 13.334627324738818 0.24307543530207812 0.45142940796257097 -0.08132425010178898
Ni 2.7528043752805043 4.82150849628222 0.9614036804417335 1.7732535977843074 -1.4937697990565242 0.84799353134583
Ni 0.3655938791008386 8.128523240245496 2.1458054367087747 -1.5533129487274795 -1.922161351363025 0.9540168268561957
Ni 0.8012371973911072 5.568474459370098 6.398118326708262 -0.5111286235954164 0.2861043893680944 -0.2687838958117758
Ni 6.9389616642879925 3.8049428764227136 9.451165934098638 -0.47561423273889053 -1.0706739479313239 0.7249163656769709
Ni 6.724251940713858 3.828003471572542 13.293601410280742 -0.37618016041026825 0.05707283375359203 2.037153168920588
Ni 6.707590407152986 6.18244321156588 8.960371741050404 0.34951293553172713 -1.2552583289760448 0.8785356657987451
Ni 6.541380775737226 0.12902038774610539 4.36846600044388 -0.15178918889157084 -1.8321349455015479 2.2327812093739805
Ni 8.432838267164708 2.0892843882445864 8.27065893808401 -2.8208984318103094 0.6551669648969749 1.3178078695734916
Ni 1.4501435349856162 6.999079649244764 4.309613074925156 0.4557213504697054 -2.1047739533933556 -0.9604918930575781
Ni 0.22743869262824964 4.464221410532233 9.527264976038088 -0.35031974770373864 -0.03556504158880327 0.12290207354357542
Ni 8.846804072781147 3.9116338586213018 4.342096149956477 0.3843552400218929 0.5583538751309675 -0.3151827947912894
Ni 5.144117094083984 1.475463164846244 0.25356512059987696 0.37728599187993733 0.19480091656640644 -0.11307017505481817
Ni 7.228699001910172 7.258757994388557 3.6236521136886575 0.33365539967418023 0.054379603192145055 -1.2094109316246267
Ni 2.6877533961593354 3.8634196035079653 10.339176803978958 -0.20349510190629472 -0.5048260784161563 -0.746982858558707
Ni 1.537351495372294 8.745239716293597 0.37393202232114653 1.9628876254377936 2.124665035890328 0.5072316025338555
Ni 5.776277991114077 5.328804707379094 2.117033632988053 1.9842712333198922 -0.30473820241919775 1.038776327891779
Ni 7.286696260403745 3.5813814250021823 2.6114173860889967 0.9613125891866605 -0.16608118003421074 -0.8424150088167878
Ni 1.382501581359409 2.330318781611909 8.436353140763714 1.8840100371042845 0.20322513607435969 1.3562957412360448
Ni 4.231614599718666 6.94299104456807 2.0638218398614385 -1.8326831046955339 1.406437137977126 0.9827046817091915
Ni 2.3277923509557503 8.542498266411775 11.680694885409556 -0.7883146274279584 0.5675098305986227 -0.31743328138836296
Ni 4.244163768050901 2.213024167097326 9.014973071037906 -0.44782497844076424 -0.3428481219170418 0.5879416160904132
Ni 2.9853189805956712 0.6544331351686024 7.646478426940433 -0.7599507315732847 -0.6771162154745565 -0.08466771265272514
Ni 4.1140341481590434 9.19176328339506 10.249056071897826 3.0192909223827162 -0.5348118261449692 -0.5183143427105783
Ni 6.995999985598205 8.498009113433795 9.056646268094749 1.190507924072537 0.11783674320552609 0.7072873397412981
P 6.921534825090402 3.522130171730371 5.725787182245245 0.5205985107590646 0.37630280203106165 0.36287521577124604
Ni 5.326139968475335 -0.007448360160748386 7.766113217004408 -1.5499028946046662 0.45570052453409904 -0.3577204110431839
P 7.514978633342353 6.835829814327642 1.4519627494690475 0.41581063031769677 -0.7300598575511233 1.0846255250154095
Ni 0.8047705120897934 2.809409330748237 11.25511026493974 0.6901329394491985 0.02309801947004409 -1.6868087386265014
P 2.462449260819045 1.0967475212681077 10.22005467648609 -2.130049954351325 1.9334577502124508 -0.3280082286907318
P 6.4280786593033605 1.4825168854738406 9.579045739829537 -0.17226262625457428 0.6533929037156876 -0.24372309618840607
P -0.001343434111687348 8.136757191252611 12.007332863491397 -0.2982896185803766 -1.71784606754828 -0.2407429305141596
Ni 7.752509217770478 2.689791137673975 11.661909859220533 -0.34024256597339464 -0.3763259419595132 -0.7653083963407723
