# total energy = -381170.17619584023 ev
CRYSTAL
PRIMVEC
9.16962540867784 0.00000000000000 0.00000000000000
0.00000000000000 9.16962540867784 0.00000000000000
0.00000000000000 0.00000000000000 13.42067366554298
PRIMCOORD
 96 1
Ni 9.083907870252366 2.852523788282452 8.291400059783872 1.6736547177430467 -1.2391745360403046 0.7609758304036893
Ni 8.622904946746496 5.443511517206685 2.820502538970172 0.1421768626127874 1.1434019717236694 0.06134112211164275
Ni 3.401133314099115 6.290684050270511 0.5331174434842281 0.2075988396620231 -0.178178477518377 0.4949982936924572
Ni 7.558274744245739 8.11929994302962 0.20511260258629074 1.6391741674676736 -1.0803484949066104 -0.7300953387747491
Ni 6.317312642808772 0.1768774916552261 1.7968541438493206 -0.3833106008074625 0.11328537638941778 2.1592584575944813
Ni 6.762213703884482 2.473222228246244 8.696824965991652 -2.2206965102953045 1.2568794095192353 -0.5603991876957704
Ni 3.680027474585063 2.702499544990964 4.513507005845383 -0.3961419482441758 -0.29543929361577503 -0.6393341116297763
Ni 2.3110390615023686 0.4733910875965008 11.754054225486877 -0.6981352409283846 1.9026659616425745 -0.25972769914677846
Ni 3.572155999853625 8.586290632006389 13.252526003711969 -1.4644846769391617 0.7726234419449468 0.8286179550326954
Ni 8.596844870991077 1.2098954101423294 1.0529609370516566 -0.3859886618602578 -0.6324746655057817 0.9038767156666949
Ni 2.9435965090434726 8.347596109842662 10.12224783939691 3.116092185074182 -0.813341231379283 -0.9248060096201943
Ni 4.996978262786687 2.141731095721913 6.416746228127777 0.6564337474245404 1.1515091742118362 0.1938516652792597
Ni 4.6051234854003145 0.7886767409221855 11.12942942099152 -0.4233354779398322 -0.32438451589521555 -0.13996751366629445
Ni 4.513528095984101 6.7484500959643965 6.43236760218018 -0.46064758412672924 0.5356137532209744 0.7148466401457947
Ni 5.4910927040803195 4.466102792744472 0.9001839721761516 -0.5557740302189331 -1.3504025156800614 -0.6152847839900565
Ni 1.5769646897219116 2.2865194828359403 13.178162174591174 -0.8813106574407209 0.6932717421884964 0.6599474170047537
Ni 0.93630129321255 8.616807145769243 9.344949686794536 -0.7631509836781373 -0.9991291458138019 -0.8698633348357278
Ni 6.558712204503761 4.414000980484694 3.1124826720495613 0.3772937051894212 -0.7124076916869989 0.14388227533966835
Ni 7.974823323183604 4.146064522506741 13.2367304067745 0.37878185969917344 -0.347573295306853 1.0893303866902466
Ni 0.07529821396227067 2.3996726618724877 5.921698318955221 0.45569563943809266 -2.6134715989497765 0.3589385997210012
Ni 3.284633221744225 0.6371899423587101 2.58574820489656 -0.09158346593595194 3.073538370872371 0.509262002700323
Ni 5.423375019543455 7.6401870091025845 8.89491363542219 0.22513993386958 2.2464720765975117 -2.0710858171122912
Ni 0.8590866275145711 1.1072047738351738 3.061550904007373 0.18658315664230446 -0.20853369277146666 -0.06965118463923488
Ni 3.812391019106341 6.208615901779661 9.175607793399621 -0.29138260704789815 -0.6896709122111154 -0.568158519926215
P 8.165927488848165 1.9813268363308005 10.106693403610873 1.1780951522304808 -1.0366819072565951 1.0934032712080395
Ni 2.7131088017288314 4.813842501707438 5.07034443664985 -1.5193160229567446 -0.7363906848651576 -1.0858149173378204
P 3.011910219239767 4.126762460766714 0.9055518709612403 0.9337927864998369 -1.6158792014954755 -0.5206345062033227
Ni 1.948939718959886 2.9704910207220943 2.4279068558409995 4.380218248853502 0.004595846900798537 -0.09561392725158373
P 2.5305690663090132 7.972943549950015 7.971652466675432 1.6661136721709953 0.0884397781006477 1.1996165712420244
P 4.293402065518026 8.136612196029702 2.1496967494195673 0.47616522014635404 -1.392760411820982 -0.15943230725912544
P 6.655635146352732 2.296074232637892 1.0524300157334867 0.3183704484906517 0.7839931172344691 -0.856047769108874
Ni 3.6879225221661387 9.06089211017281 6.3287875121966435 0.8144087534118492 1.1536138792596649 0.031175140051223727
Ni 8.321957836861609 5.380571207570797 5.26682291983737 -0.8312142550049619 -0.42356713433466414 -1.4271915969156581
Ni 9.173293379915922 3.405745635740556 1.8858325221393568 -2.7329664465840158 0.21660130027094954 -2.5647509938156214
Ni 8.168467475119893 4.938476051907175 8.799935571148069 1.0882775199457 -1.5758543243631056 -0.03999788054917628
Ni 2.0633032885663547 3.9375380683357415 8.848572181920172 -0.04578337688270179 -1.4302689502894013 -0.4359328549888686
Ni 5.836081525384374 4.993677197595994 8.078615231516878 -0.41080983466899573 0.31388155948136265 -0.9119489511518682
Ni 1.6907047247923606 5.971645269215519 7.928800055687466 -0.7447400852711175 0.9081702008357263 1.6277746673814804
Ni 5.8406755077747565 1.2440889437425957 4.27589358253161 -0.5738208604183149 0.3307726788097464 0.43017332679727205
Ni 8.903110363683192 7.833748634409107 2.256190029433891 -1.6200392464104356 0.8073629023086611 0.5702089746973406
Ni 6.354944785982677 6.122586475059977 10.14916985995212 0.3861118177016834 0.06484296461731413 1.041338689302316
Ni 2.061863657358191 7.903437788434858 2.7301276267119623 -0.22356179074918273 -1.1860791988772217 -0.6636665177275538
Ni 8.068591913850357 0.2812635917228239 5.963248643117969 -1.1949204513179355 -0.7108449751855693 -1.4616585203442762
Ni 0.7197550845532712 4.412350447889347 6.543330157677683 0.7178247489375121 0.3022023233712215 0.6966329453512454
Ni 3.8055046303335334 4.754139069883535 2.8171877193411845 0.19819451562898768 -1.3985950162248881 0.21709906584297448
Ni 3.959444303726205 4.23162629832441 12.23266283000978 -0.479252086601794 -0.004150274722947691 1.0336999418101358
Ni 0.387159012152611 3.5110037671960286 4.061632444554332 1.1597169068336093 1.6095249771426732 1.0588674422146989
Ni 5.067318460225047 2.576297988825647 2.456050270516767 -0.4866188113795103 -0.28411332707999454 -0.10021054548333065
Ni 7.527904944491359 3.9596735443644473 10.852936785431801 0.12016564844901885 0.2523236933732235 -0.01628999540927517
Ni 2.2930024080854405 7.2846622880649 5.979648518377845 -0.6410418383495025 -0.9597591286566114 -1.3236062214228237
Ni 3.053366096259559 2.579241438620682 10.624664459645137 4.108169566247525 2.387354902989224 2.95992980681558
Ni 7.755302488002489 6.986676967226107 8.539615404135088 0.24248922378130494 2.719029010567317 -1.1281095643409733
Ni 5.409941518142438 7.505586075952059 0.28696801576485276 0.9210658258514718 -0.37203425656269473 -1.0949233073969917
Ni 4.413313258569965 1.1247187585969085 8.424586119715164 -0.44191555493486473 -0.9604543549514232 1.107992481876124
Ni 8.338178904423657 8.241301810702334 10.530250327341092 -1.7325077833255131 -0.8342278450203052 1.0971848497376588
Ni 2.5995980072966254 2.1924849730288254 6.82549970840284 -0.986724858612178 0.8833544273436271 0.665220492478235
P 0.4160240763575664 6.191266970277461 9.98629622040586 -0.3245770915219958 0.5577609787419749 0.5749657726560357
Ni 7.862266169806487 2.1099491736359592 3.483993718235732 -0.469600679554959 0.717348323521726 -0.3461481328245522
P 7.584206445243741 9.176961230127803 3.647377188961446 0.7575714327078308 -1.1557545797517512 0.35145694663197535
Ni 6.006517355104983 2.924615384196985 12.365285874933548 -0.8327528031366757 0.1739302437649843 -0.20010021729213281
P 6.1300872287432755 0.3835801073083675 6.976536278352808 -0.3834710376447267 -0.6968185789994902 1.0671178551489493
P 1.4881752057177875 0.2996175141830795 0.767874528445499 0.7756732845148641 -0.5745417977447396 0.9735528400065943
P 1.13551140784537 6.270437517100925 4.336864256603717 -0.37768759819373016 -0.29022046841899696 -0.44660190466694055
Ni 8.298822871650167 1.9970527441142432 12.348657675997982 -0.7100559036253707 0.7328998981030797 -1.5157982396114733
Ni 1.6188973872692485 4.9743109484772585 13.0019485638243 -1.4272221930432774 -0.4153303482471686 -1.4822849383453762
Ni 0.180102448954023 0.02362370625217652 12.446748828139437 -0.06349956321554226 -0.5447697086886295 0.5426968853200008
Ni 5.421403550054568 6.337284087212467 2.2166386836366185 0.27093616626808825 0.3435695734640986 1.8226835702806607
Ni 8.255147945252187 0.3705509863932111 8.21411020315655 -0.7219505981804275 0.4910354523899672 1.030595077632567
Ni 8.538984533898645 6.173551253754072 12.272589213491218 0.39966924467114395 0.6667227880553743 -1.0771443861470158
Ni 1.075569565757695 0.034545647220607004 7.014369236325813 0.2895784639596239 1.4515178323658486 -1.0309123517626697
Ni 0.08129514905869711 6.985879209805024 6.609345959716233 -1.3074861759325096 0.7426659763509079 -0.13830632391378764
Ni 0.9051713315017577 3.044205640355385 10.934332800371324 -1.7225979804109688 0.5720894795495051 0.06459562449319843
Ni 1.5973212583978547 5.472900167029387 1.9477962666563318 0.11021933586958438 -0.1924622411309008 1.8702875453118692
Ni 6.12497974732323 5.482656648592991 12.292182869323089 0.049415060098018125 0.022132827343297367 0.790149366643852
Ni 3.494874395889279 4.792541461601935 7.109964416398085 0.9300664866881853 -1.1120967338524848 0.5424611151601109
Ni 4.111797631902237 6.591346901763977 11.623605298776202 0.24594504354038935 0.9941442910047007 -0.3843169305847898
Ni 1.9351944502908596 1.496996385477363 9.40051119876667 -2.0734589453301577 -2.188230162236483 -3.379129151099851
Ni 7.449633020969805 3.5560174589213456 6.887838490603981 -0.4431134318977078 1.3578692563707517 -1.9775295437206846
Ni 6.324758378738892 0.5194354452313567 9.667555452180581 1.115978071184762 -1.652909000555263 1.4551027215036294
Ni 5.285335476819291 5.1251237795643005 4.916731201926035 -0.04451273770039431 -0.31192006487961765 0.45272652950743963
Ni 7.06376600905433 7.02717003356528 3.8026803856703846 0.2524090539981782 0.06666433409676906 0.6128995715873315
Ni 0.5013171821472144 8.505405365208869 4.452764655448965 0.018855699253922362 -1.0014243696058818 1.4899892489681694
Ni 6.6799529932575075 6.723169438379002 6.274366701640403 1.2174895948677034 0.7417488638532774 0.5846477758304899
Ni 5.151954103864215 8.322663898027397 4.4175221166881 0.0464264097833394 -1.023217040000941 -0.1794267481031813
Ni 2.334073160832985 5.284134255874899 10.65252544985459 -0.8710743244246932 -0.1413754497574146 1.0109929871309233
Ni 5.094625605052506 4.084325433815244 10.136742266471714 0.12343737722175514 0.05209055004765222 1.0580192352817908
Ni 3.590449402785384 6.648822114584162 4.128937495942361 0.2364353042777412 1.1076358698676536 -1.2514245570522513
Ni 1.5754517015095106 7.3495098798109675 11.896621729297609 0.5264130605583127 -0.6599314761651538 -2.1881697413121928
P 7.306898629974432 5.803822782770875 1.0837717957940152 0.25596488967023656 1.0380322506369026 -0.31577466273901744
Ni 5.832752951317091 0.7386967800099807 13.06609926403011 1.1670592061312934 -1.3226124900509866 -0.6632224882115997
P 6.364902999307936 8.090727389879063 11.611969960941558 -0.5559792042512038 -0.22705386306284123 -0.3388078904093971
Ni 0.9774545725898616 7.147026208864042 0.541110606058471 -0.16437422464543305 0.8321275108478507 0.11690831785398575
P 6.372412922616764 3.214228836927157 5.0656330830526874 0.41200359786678076 0.3389701270188743 -0.9519445177081994
P 2.1739806687098824 1.0496195255086325 5.020003192491774 -0.496965444721157 -0.048422100057129505 -0.44858165410113066
P 4.160149067320367 3.2325222398589166 8.47957086224148 -0.2648979304938083 -0.04098646971469071 -0.7097340015095777
Ni 3.8504082865524936 1.8393902027565117 13.317710120714976 -0.032897779169285275 1.2899869907064814 0.2382674723904735
