# total energy = -381166.2876832354 ev
CRYSTAL
PRIMVEC
9.29729931876365 0.00000000000000 0.00000000000000
0.00000000000000 9.29729931876365 0.00000000000000
0.00000000000000 0.00000000000000 13.60753733842625
PRIMCOORD
 96 1
Ni 3.1841854673342644 4.210895499432576 4.91413018384068 0.48012574745599895 0.043466555824067075 -1.1797481144528714
Ni 6.789873284689891 6.0336123848434635 2.230139405741224 0.5506364518820517 -1.5435653824224125 -0.019659683212456463
Ni 7.857035864982638 1.170288221426437 0.5750230709604115 0.06604161291110561 0.5710492112104487 -2.0534205386220443
Ni 0.6720041271477203 8.178173871690065 9.033689947072999 1.1570686705774846 0.32947632859582615 0.29740104532783623
Ni 5.616953927630491 1.2126653105255494 0.5787763905894838 -0.8112015593284609 -1.3523758373563484 1.0705595338406464
Ni 5.716342054543504 4.778839606891437 5.459016989639647 0.0903141123052251 -1.019160353433064 -0.5136040817191025
Ni 8.444532192357128 6.571489027153898 8.041346451206797 -0.05244690494580645 -1.4170971887941337 0.19053314242898797
Ni 7.638000796512697 8.885940059658262 12.257274578618608 0.5443537041971335 -1.6245754437178925 2.686415852517986
Ni 7.813245586426952 5.542436075693373 12.055189416058406 -0.06766269345429637 0.028969904869788815 -0.23542203252187843
Ni 6.542230427023379 8.573560108661974 4.6573564487708685 -0.7236891781380892 0.25629450509551344 -0.06207697183640277
Ni 5.3651458799867076 5.133810484865136 8.154207294182454 1.6914961167998417 2.2522552589381917 2.3037050900780516
Ni 2.7950284207301497 0.8858540919339025 1.6008312650502514 -0.5723674158012401 -0.53143802457673 0.997207760421373
Ni 6.196119875050438 4.115588886805326 11.601894951913653 -1.3889286967797179 -0.9795995604213065 -1.815028881948881
Ni 3.416534268052984 8.92729444586117 3.5880080734699593 0.2906567846254672 -1.0331435550860335 -0.6227641230862371
Ni 6.807036098748023 1.0625232280635992 7.605361698445268 -1.167700696370034 -0.7498714929604119 -0.3484194453572322
Ni 7.9419852864610485 4.417053808709391 3.5465188764307336 -0.8507680087671735 0.1426694859784898 0.18803428726653423
Ni 0.7627941118933662 5.752294709994637 9.920247844545472 -2.4265799099281176 0.7659349741811776 2.3694332855137965
Ni 2.856083783633588 6.365367907073309 3.6774508795823313 -0.6236922913274614 0.588892667149773 0.13570950972088885
Ni 6.394868236979295 7.47788271216322 8.826706037639974 -2.3785846129957617 0.8246972798220507 -1.7377134958961686
Ni 4.4925013905521505 3.0101400289982867 12.966281956010837 0.07112211275780654 0.4058105816821914 0.05640640381418673
Ni 1.3409215510087127 1.97231042722851 0.06681318020907259 -0.6581255333046665 0.7928120010776797 0.12670987732543984
Ni 3.3930678852346077 0.7144397892308882 13.02958447609621 0.40660479544871264 0.48284726015222007 -0.6196255774572554
Ni 8.419271430820865 7.632961660424123 5.825876323916776 0.6699410378823559 -4.128472025250303 -0.966778240286922
Ni 9.205181417358181 1.215315040756626 8.2693413267774 1.800981402716879 -1.2345447505777771 -0.22409992264083986
P 5.372713881418624 4.1428113784424925 1.1387452749177578 1.8470527431536448 1.7738099845084097 -0.6490153434732822
Ni 0.2644811959875748 6.651371420646565 12.661527649700615 1.8074341003207581 0.6554315314122713 0.14796698693200322
P 9.027277599913793 5.756311143187006 1.4262335671503226 -0.13095014065903254 -0.5339787887207127 0.1957807639811725
Ni 5.02430689657875 6.8613881090317905 3.6976306671842676 0.02311036076521826 0.6293109230658194 0.30864139412834585
P 6.910877631909056 6.2874379463824885 4.477369106607939 1.3085444419936947 -0.05224661600954227 0.3932314594656002
P 4.742831167645965 8.95681337036527 7.243455035375487 -0.40803921390239406 -0.6245739226014663 -1.3288733833590338
P 1.0215035446267222 7.570641864849013 4.38238882917757 1.4128880358087925 0.002264370554144487 0.5890914134241403
Ni 1.3545049049301265 6.4758384144615615 6.791127490332601 -1.3910503711084106 2.060720414717567 -0.10627989160586213
Ni 8.872049894867988 0.8602446816830237 10.922253093591092 1.631806671359009 0.37580400801777214 -0.36454566149513346
Ni 7.086326962402551 3.537761750449502 7.176628838947736 -1.7296456312863695 -0.8259756323138421 -0.09097051494230139
Ni 8.409518564110693 7.794362772043384 0.7686867400353183 -0.9215188542284903 -0.42177096166618977 0.721579330883938
Ni 6.278995998839268 6.408516671994104 0.032477325063848206 1.2348517402952346 0.37670903633054476 0.08954715223221352
Ni 2.9155957948936626 3.6120192780130416 9.025403264424021 -0.08663203546794758 0.009845268225195948 -1.1075456241466926
Ni 0.12508214258530523 2.6792770474778567 6.585462867635681 -0.33694641172062617 -2.0252602741377443 -0.8084137121706786
Ni 4.298336597058103 5.898355278170825 12.862102930894055 0.5301748415935901 -1.8626122881547988 0.2251113946244897
Ni 1.8851854377709005 6.168116410292534 0.9807181531260669 -0.5134477586468963 -1.2712277078211076 -0.8227023608792089
Ni 2.896926818388393 7.610871277866095 12.559225749263323 -2.027797181626985 0.6908101680218813 1.225124999925774
Ni 4.774962633184915 0.45472531846953435 9.2041791685199 -0.4172764162299459 -0.21295753287077518 -0.3701928324785818
Ni 5.371272800064881 2.9233497423067076 9.072076635417101 0.31035477727502686 -0.4220504405798215 -0.016049340153378812
Ni 8.448009382204226 7.665083828664017 3.2562023458252094 0.15199719113731888 -0.21262920299707896 -0.06718935336230364
Ni 5.318399060331083 8.367838772440809 12.634679839215423 -0.408570918036148 0.30838865468759147 -0.21994450571156957
Ni 2.664680287959294 2.009220704482454 6.5511037692428165 -0.361243593705094 0.8651713286766971 -0.15717205047003902
Ni 3.124050537037411 7.854776621311931 5.6607079467198576 0.0252906562459887 1.0533426557417278 0.2402294812128508
Ni 4.150490947463086 1.9669644802710746 10.851683804563232 -0.7999840933460867 0.2449734236557394 0.44975124892919965
Ni 0.06707908296208588 0.4964841371813958 1.9214793040974047 0.8248605448727924 0.8644941001040144 2.184334426726503
Ni 0.964427425719427 5.1242435641360915 3.673708716712127 -0.5130183844189616 -0.6803892297988734 -0.6881328783000343
Ni 4.165348031355228 5.773539038338532 1.5945035233124594 0.10301124815691935 1.3357983926136414 1.069428505559997
Ni 3.1419385404219415 1.7934210960841428 4.199599281079039 0.3551413374620981 0.3109379034720064 0.05277163527507686
Ni 6.680286020711998 9.251807372126073 10.343524119226796 -0.8382958444420917 1.1613747541520063 -0.6854393906282712
Ni 0.4884605680957147 3.3967775075581144 9.51327438375956 -0.03440984493843751 0.12497155447809447 -0.22970312776023022
Ni 6.386454181333246 1.6965897264116423 12.152401045262314 0.938997727739544 -0.15433920900693418 -1.4814842968209518
Ni 3.1993493620952678 9.072202148954362 10.890969541726088 -0.5449586847709841 -0.153493058956555 -1.6787637568348377
P 7.844763430228179 0.6076259095615212 3.4901288981938015 -0.06633780399528576 0.3328483303918526 0.23325022168154025
Ni 9.116289941079854 3.4903641198599287 1.7297225110589673 1.5334977137737655 0.8129352541901159 -1.663242521270787
P 8.245579289849031 8.643354932678436 7.7664336856779315 -0.8164283549450391 0.6985864695331904 0.21060651614009537
Ni 1.932425014276515 1.6354785797138653 9.723823807380716 0.34004587658155633 -1.5725890233482724 0.02776637147999089
P 3.919694795686787 8.281466864206768 0.8034716547249672 0.24041331508888275 0.20228796897207096 0.7929456984420665
P 6.192698468997679 5.935832690667209 10.383653121414069 -1.0622715828002414 -0.11411327160735187 -0.03351767214147131
P 2.404086292707204 3.2324756386332534 12.236795417987056 0.38645017487770866 -1.0789667840677355 -0.9845972707462141
Ni 7.1088822099134 3.8169596411134665 13.601373016714895 1.4450679629754468 -0.9036825973780178 1.8585766846328444
Ni 5.932959825258779 6.811126910332843 6.432132741327288 -0.28919614091954066 1.8627716965507983 0.681334367320962
Ni 3.59858468087653 5.930951608662594 6.724150677660136 0.8199109141770009 -1.131713736752464 0.1426671719856446
Ni 7.932557825217851 7.247876830806716 10.412718337724215 1.82927973544094 0.050802941584480246 0.881614818944701
Ni 0.2804074692712036 3.9644055068490585 12.567186096715421 -0.09721701007264547 -0.0424262874850108 0.23596196418574847
Ni 5.630118903094366 0.881047388321739 3.0466189115760134 -1.1778470407754167 0.1503496282315669 0.682043991793477
Ni 7.383068856385959 2.20621187688965 5.063854817574998 -1.146363882565471 1.7188179445432463 -0.6240561024247833
Ni 1.3016962462897228 0.4760142738488999 5.077692917490557 0.7099098649658097 -0.7986154951333343 0.10747108370048587
Ni 5.190021954960185 3.0427456567891134 3.8900819684622188 0.3242649595982157 0.575780298137531 0.4572465288649803
Ni 2.2246670155166215 5.337467820695778 12.01029833729444 -0.7197345643657153 0.24468417455009472 -0.28531737469042473
Ni 4.220880798619159 2.6648848285385354 1.7368656259240065 -0.7094529799340491 -1.7908738819692318 2.6213422599471046
Ni 7.628564037970442 2.1182129413207376 9.48537876767071 -1.7769762980515333 -0.0729059441311067 -0.02382152789962994
Ni 0.24904396063431317 2.351054498889447 3.7942165881616785 0.32623159640628335 0.1497575031735227 0.5061653660528702
Ni 6.231905179118557 8.215121338140234 2.024175410014688 -0.840993702989229 0.8297695521386355 -1.4044864420086587
Ni 2.374009530259721 0.03911466686021865 7.583439597000161 -0.019642971041908104 0.004055915236928499 -0.019545012011463112
Ni 5.058056092153516 1.5541458075683987 5.92208198536278 -0.09431372038292143 -0.4555328886079832 -0.06277914010974996
Ni 0.8066820120891454 9.105895560734789 13.418024700943075 0.32439608585944135 -0.8214484338674498 -1.8305799423096023
Ni 1.5891501385157787 8.106101209404782 1.8968358832184868 0.5747752539117843 0.4662003956241584 1.4298665726446602
Ni 7.62119127981871 4.433193919871317 9.490222660479098 -0.6761589937676097 1.833339250222294 0.09976728729832494
Ni 4.0638215256592405 4.353767094032414 10.81000401289335 -0.2848036682787998 0.2567609032089707 -0.013609106143002366
Ni 8.379302342177363 0.43519262288192456 5.864141217643239 0.8120983601111175 2.2746086869327278 0.22338309907947335
Ni 4.0822580696881 6.6983413754795444 10.738102420910705 1.0055265646997134 0.15947190224780922 -0.46943972849706256
Ni 3.2842522970783956 7.5222029367651215 8.79463314508508 0.402858441032403 0.4205674282763918 -1.0491481580444062
Ni 2.6628022335498995 3.915762038185926 0.7050197658269346 -1.0573003548378954 1.0080094790225673 0.35038325395182235
Ni 7.204839633474599 2.499104689063705 2.4642435365217934 -0.9565879300174815 -0.09988221560963442 -0.29404421304046136
P 2.221422258145935 3.2345303417247195 2.9769477416370007 -0.7122642241305991 0.7402391120769702 -0.3819232335416326
Ni 4.3974829941956495 3.66248501729123 7.037641655893665 -1.571462623053313 -2.361744401509972 -1.4381668649802393
P 0.6301523354452948 8.201091713864114 11.187150808576396 0.5000209437180293 0.4145189080894668 1.1222191669984674
Ni 8.742129437853727 4.660271152025052 5.629397432687589 -0.7160074932231152 1.4343212659819038 -1.0459278513348953
P 2.2331089630598413 5.665588098994567 8.658529984198308 2.7377235016530275 -0.3858624206950387 -2.2695587832136463
P 8.870264813449156 4.502282149159493 7.688367054690982 1.2670126412984954 -0.3474905057850596 1.5354550946104524
P 8.13984110768049 3.0557990646643116 11.244193457207087 0.2833147424380991 0.4981723205450646 1.5984964872426533
Ni 1.5980104645165367 4.298662002525077 6.567650172373507 1.7892373748070733 -0.42379647673665083 1.0512703465937314
