# total energy = -340885.5315385309 ev
CRYSTAL
PRIMVEC
9.16898068352044 0.00000000000000 0.00000000000000
0.00000000000000 9.16898068352044 0.00000000000000
0.00000000000000 0.00000000000000 13.41973004510587
PRIMCOORD
 96 1
Ni 6.629704675389577 2.5154639450358807 11.418230395173188 0.34680273568941566 -1.0188160827197679 1.847887323239798
Ni 4.8576433283074385 0.6863458663305321 6.166862793715551 -0.8309026373018141 -0.6119932577229783 -0.11325298048958561
Ni 2.6788918528028147 1.964417388208851 4.8758575079965665 -0.8606485011056791 0.18511325696499734 1.4958534210584302
Ni 3.843260681759444 4.786262815405419 5.1418496312191175 -0.8227951777033312 -0.3166187559068676 -0.15527431922669388
Ni 3.827719259875189 3.3111755765292514 2.5901416233122814 -0.033355435531994174 -1.7207601558712817 0.5530615163837764
Ni 5.302091318275268 5.129631964752587 2.5763872357202047 -0.909403559022195 0.41773407259265477 1.7959934625839842
Ni 5.704022745837618 3.289839358992578 0.5220835813414936 -0.3501719092719647 -0.3894545089216712 0.24748153478957377
Ni 5.48636031863389 8.400528210109254 13.002724659624278 0.18328160307289726 0.28925604762319856 0.07773010499262742
Ni 2.4260022026614427 5.582387051019611 11.49250922279946 -0.6937098581671796 -0.15822466010426944 0.2875282662988145
Ni 0.9590295114947526 7.993067887327904 11.679995618402442 -1.7663992938666353 -2.252389213412895 0.15610041467241503
Ni 0.6481203867815898 0.5001532138708386 5.2630974781635524 -0.06829569905260495 -1.2336592626490301 0.02886423252985997
Ni 8.963283554987136 2.5929876748478993 1.5642839977152343 0.43678337591462196 0.7278759625259271 0.6858273700953093
Ni 1.5602212224722176 1.1136093531151938 2.9118930674225716 -0.32373634078825536 1.1816407034898941 0.19657652040959048
Ni 1.9775657061923444 6.754237768033793 0.5708928150385155 0.30112734513948786 0.27695820409245203 -0.3288037280088337
Ni 8.167947851692734 4.220500044935777 3.9786415951890644 -0.2824076572427975 -1.017972246662234 -0.13594039478477235
Ni 7.957675622741932 4.2368299991398235 12.969417421195521 -1.346878047466571 -0.1340308364668853 -1.69297193001442
Ni 8.08528949282161 9.051140725780602 7.243137892182776 0.24045856650452138 0.12426501532937308 -0.24030661430768935
Ni 7.1909929833934285 1.1576204593360917 0.7119291556175216 -0.9912024347675573 0.2316787634293623 0.3411501653893286
Ni 2.0978077159800224 6.863137748989127 9.302945685533238 -0.3907035508374239 0.1997199511345786 0.4631335837733766
Ni 0.11662851458733307 5.070391181983166 1.116725889574461 0.6536150470288227 0.0839953691760489 2.8889969272504437
Ni 6.753385052850763 2.215152327941491 7.436033069360693 -0.04137573473330939 0.7438972776548478 -1.0283188800038807
Ni 3.3579190389280296 4.406281927070743 0.2950687940658247 1.7018810595785916 -0.19063778632765233 -0.054273159521267815
Ni 6.148699960317015 5.9396288678068245 4.865806471613369 0.2319173618027296 -0.10297885225708718 0.3190325075546828
Ni 5.588200184632955 3.2386397720889337 9.414584440952776 -0.22238782504573956 0.07764397303672435 0.22974760784492043
P 0.3375404284670374 6.047813668286069 12.625912570937505 -0.35150168382698177 -0.19862234719502567 -0.997895787627333
P 3.95790044448442 6.339854865003114 13.058229082855153 0.9603101160640752 0.7927158418194478 -0.47380109078955174
P 2.55098457534833 8.739679628443586 1.6758154760633595 0.6110262658240186 0.2955061422979685 -0.4618434042070433
P 6.529414367088706 8.327643984411354 5.8468956332032995 -0.17412976137030012 -0.19715424728993142 -0.37405668630936223
P 4.775571784185926 1.5790268014011888 12.944430115638605 -0.3783499143680774 -0.7868187596087223 0.3158949903669656
P 4.48028476838509 6.5818792732962015 8.22852180422143 -1.6660905322425434 0.8371984976128549 -0.3874174238869844
P 4.517859250321181 1.637965007815341 4.1367258211423446 2.624709633757441 0.29638828779260573 -2.3999116566083116
P 0.4455244282741491 5.812216715297325 4.081583572639745 -0.8058492938776121 0.8085690068016202 -1.3095106625617061
Ni 0.8277067888179174 7.917148729096855 2.6640986197243155 1.1483060938935061 -1.906297130637259 1.4732745073166498
Ni 1.8917807249834442 7.10541888873517 4.816085841258356 1.6185487779078385 0.09585252562495104 0.34186570339911443
Ni 6.160784676566836 6.438430573957462 9.392589890618883 0.8306882072981628 -0.6853404031565615 1.809907244451599
Ni 8.903410112565789 2.819305619608404 10.156722636500714 -0.8280196593270642 -1.2598693453854948 0.36112198052556516
Ni 2.497162660032357 5.634732760481091 7.237260575706193 1.1735959788085464 0.44272930908541175 0.15308605332612343
Ni 0.8815919700990827 9.198963028800044 8.928534952829644 0.2969472456198692 -0.3551084273416336 1.650779612917086
Ni 1.2918268263684418 1.1465351619567028 11.695026328074924 -0.9084969880475257 1.8622896147080574 0.015601453982682808
Ni 4.317141099012499 7.328866942610853 1.7391162833816585 0.3865517334525794 0.4534914326979222 -0.14306492164469553
Ni 5.906033723391539 8.511922153750438 8.020113628998692 -0.5328369618067855 0.06604701222774431 0.41523855986431074
Ni 7.111351219094529 1.404953707317075 5.181183640505998 0.1900286919887437 -1.264744414089609 -0.6035374136461412
Ni 0.9795588587507089 7.792193863351356 7.139739299505054 -0.8351259313545423 -1.8956640764034451 0.36209051508642154
Ni 5.339014802598508 4.748624150606089 7.391815661079385 -0.09247126785754398 0.12142086101235862 -0.6976117643247469
Ni 8.205577347511602 7.749970708320682 9.774488012768307 0.6416051670521402 0.4924351609509712 -0.6077013152158437
Ni 4.511074204778793 0.6523912978811095 10.50095183621528 1.847885523467585 -0.6438350848239234 1.1056298951812185
Ni 8.52246648128253 7.514126192859446 5.282126780215813 -0.05934646027911715 -0.37950408257717866 -0.7786498506446848
Ni 7.189507608558473 6.61746408647189 7.212366793749998 0.1904074154844011 -0.22375153816248564 -1.0203911405163717
Ni 2.748301034905355 5.489725334463696 2.4782213801925383 -0.5838340216799428 1.5885339767133029 1.2410576119956302
Ni 3.9898176654750337 5.056206769207389 9.612807712677562 -0.47793388201100273 0.21331465909987776 0.7260247682498012
Ni 1.6170230564385637 3.8520537340231606 3.976682184064188 -0.8975870260032413 0.2946725906530796 -0.1940792079090335
Ni 0.6903426249142174 0.2848829736698256 0.8010397260402382 -1.4070961117173637 0.0037016172213033024 -1.2649938110962538
Ni 1.049261448228056 3.9400392705431053 8.343434802564193 -0.1781846481659641 -0.6537672563359708 -0.5695188906088514
Ni 5.323179973339448 3.012587727761847 5.557673897978531 0.7077532236341231 0.7510727123573646 0.2400263640631092
Ni 4.3711463939377255 7.133356772204977 6.120792334482735 -0.12673687390863336 1.271350863662533 -0.2927491483781216
Ni 8.629431807360236 7.344069112217989 0.9007817293094407 -0.37559729132360475 -0.1502724951367283 -1.5867329189488222
P -0.1554371412937023 6.17775645940327 8.331840626769127 1.519464632719467 0.5236282987243239 -0.27660339185619454
P 8.869310674225055 1.6158035820370265 8.192852636425485 -0.3189255496631733 1.6574074026462489 0.4021321043893397
P 1.7899683659257672 3.5022754673325744 10.375329468692097 1.1832795246448977 0.5281575540532452 0.5546206333407803
P 4.005496622066229 6.586399580664306 3.9784132875755436 0.9164383543817894 0.5540084536780782 -0.9471836059844461
P 7.179953530916354 4.412095060684086 10.588743907247464 -0.5696222489559352 1.1286564379833788 0.15750320855721262
P 6.46472720992445 8.516314095392067 10.907368729019979 -0.4305559069476714 0.025550851885910834 -0.15128216734816524
P 2.4728465238453112 8.74628129437672 6.121624877908745 2.2102025527425164 1.1354384939022186 -0.8014871602541745
P 7.118567206718663 4.314234532205828 1.9301327364627716 1.8731985483110771 0.4187226617581692 -0.7798963214572762
Ni 2.4978961784693716 1.7654230052271538 0.5680706028521004 1.188562627420708 1.644167506917207 0.3670074927720647
Ni 1.9513332530885967 1.3964448934477012 7.219760659595109 -0.004436695615114939 1.0244498839667775 -0.0752908994235155
Ni 6.92258941830919 1.1140678021383281 9.404519651098884 0.46640814075959025 -1.257546867899905 1.5714016879083905
Ni 2.6566203992589474 1.6393586928456696 9.569434767496867 -1.135126876199071 -0.6163803310470803 0.7787213273125685
Ni 6.332354638984636 2.6773331261241577 3.0889800053847707 -0.09816651847010835 -0.822752497390854 0.010174369429840542
Ni 4.101990972455547 7.185904199236638 10.982639640332314 1.198202464503317 0.7731304634883525 0.0349340928730237
Ni 7.260530531222447 6.623176361300144 11.79116492202229 0.3960036228940987 -1.0827393637362903 0.23961935843267768
Ni 7.582783518564046 4.519913101944823 8.302907908919117 0.8158616838082916 -1.0647488406961405 0.4656938883013851
Ni 2.7231413525157424 8.9076828574614 12.884618105386359 2.4341826619760405 -0.8650116631703813 0.03758978532831591
Ni 0.17506884536236156 5.179978836473201 10.24272950703681 -0.36380004157836054 1.3147983933232066 1.4157170206171552
Ni 9.062473585632484 2.6103628928246914 6.176591998884509 -0.036323259911066476 0.5786028551879906 -0.13369196507022782
Ni 3.6297059578029995 3.0254334693900717 11.636006517734653 -0.8009549418997883 -1.076718868573823 -0.48131976776410007
Ni 1.3721287572606553 3.7667088638764694 12.692420687621652 -1.7914726918954953 -0.966202313178794 -0.5370581989769847
Ni 3.534944544721129 8.655627584542133 8.180841272019364 -1.128978597209488 0.045217477076902775 0.06191370678566111
Ni 5.981897867739812 8.369656252891387 3.6343179549757307 -0.6666271430177746 -0.33833377898645606 0.8311798022226008
Ni 3.500285798572172 8.98633437187033 3.639887193708767 -0.26132795375436285 -1.506365633443664 1.1170347945840504
Ni 3.457640870440214 3.262634993959786 8.286535777404945 -0.11735466136278498 0.6920350415679178 -2.111651911460112
Ni 5.190990782008888 4.637963725401918 11.808772115204789 1.099278499041894 1.5585492574257545 -0.2318019192707879
Ni 8.141357808350943 9.1557496238794 2.851410804698503 -0.7465892226647142 0.5657208570189999 -0.08472376270164118
Ni 4.982396476482759 0.8256401006216276 1.9052389545065762 -0.2802728702879818 0.09243758640613112 -0.62823234528966
Ni 6.009423147088798 5.741413848164456 0.5089591027072032 0.4608357888781354 1.4484286519175635 -0.8993289483950125
Ni 8.10183950255676 8.98234586536906 12.53306105648601 -0.43617531001697785 -0.040668938474271894 -1.6087379624650038
Ni 0.40568612506182017 5.011480482510401 6.167197461502439 -1.0651753867105977 1.198046655651743 -0.04958732400982427
Ni 7.658528466166304 6.5490451542593195 3.010863959434862 0.18837161600129493 -0.964321036995681 -0.3701820338453044
P 8.809675625295739 1.715873834806793 3.831829713816612 -0.1695812227676692 2.266060283142085 -0.02432469278829359
P 1.8749098009321 3.763829804011186 1.6812105041676046 -1.1719062498109494 -2.1027813484433593 -0.2581333580764651
P 4.714928147405714 1.4450771658217934 8.341167313695772 0.6388965098717254 -0.12513636219073285 -0.022367826172238894
P 8.637372144440924 2.1856098728907134 12.703478478059651 0.1517529363369967 -1.2869533460864804 -0.2594250803046952
P 6.7432533294394945 8.060835821927624 1.5334459657250787 -1.797573919697227 0.36139554590192596 -0.5426984279818976
P 2.1883513980490568 3.6934578789600625 6.3124927935063635 0.22123108573347702 -1.1001236206510085 0.18553517499376435
P 7.290797335729777 4.351460592884337 6.052445837215819 -0.9380065674708684 -0.45923399160865425 0.4919787901398431
P 2.5274386335201493 8.721708426736718 10.563447607048955 0.6561126166396959 0.6626236782853362 -1.361702514073913
