# total energy = -340868.5061230068 ev
CRYSTAL
PRIMVEC
9.24854048522728 0.00000000000000 0.00000000000000

0.00000000000000 9.24854048522728 0.00000000000000

0.00000000000000 0.00000000000000 13.53617385692639

PRIMCOORD
 96 1
Ni 4.683793941957718 5.97022895477385 1.413677360186478 0.190553197033646 0.20062035146166093 0.011031061003181
Ni 2.7816095885187604 3.6238556901114705 -0.2644657198300629 0.3657700208205378 -1.4744178768924736 2.3648634067549272
Ni 2.668758895282561 4.210555364494752 11.159194835414493 -1.0402107463454602 0.27600046816487306 -2.5921355564761615
Ni 8.748102132862565 0.812881060116373 11.638565195340629 -0.10646038304778441 -1.1427561106095545 1.6430732454117638
Ni 5.814169079534739 4.881916180156855 8.929096998597833 1.0852857843072277 0.3414607546512119 -0.45450213335062367
Ni 4.958956523924888 2.915306492421605 10.869561061863429 0.3500040162355327 0.9188634188835143 -0.5291458861084436
Ni 2.6365739737564198 8.648976273978317 13.03548419983591 -1.160548401595969 0.5330151392558627 -0.767459124135188
Ni 3.7383063808833086 4.20042821246282 8.644079171694383 -1.93733497377967 -0.6370388878376965 0.8830181270501309
Ni 8.265652008893841 4.403230212240183 13.18528928702096 -1.8328810796389527 -0.5808386864970448 1.1987331401958066
Ni 7.970355353891495 5.869438358569285 9.674642208669558 1.258266262564433 -0.18495513412057824 0.5960956126561153
Ni 5.7960881825279555 7.539882028479356 13.109473450037427 -0.4641692241267425 0.3233735581321979 -1.9895484225584315
Ni 4.214245532221456 7.735220455937296 5.6559145255950085 0.7089611278992951 0.16575387860177906 -0.8062071914376631
Ni 1.9207831687231727 3.073807982397182 7.341100369330561 0.7825314450872781 -0.9820305384603023 -1.1699031033379914
Ni 3.959586964916198 5.199705286064826 6.526899542460802 0.04904019325710264 -0.496677481167093 -0.9242365102699696
Ni 0.0718445136205087 8.987028932490821 7.306582965847841 0.3747886793793803 0.3405336148512523 0.25320378198533167
Ni 3.108120068277062 1.037630771753991 1.553695641636195 0.3405629254272909 -0.1567755863625687 -1.3021827614417252
Ni 7.9689773213318995 0.9763684383663015 2.5956963488560203 -0.22336510135734436 0.2990365240487301 0.8990790371677353
Ni 5.847241860965049 7.14766066727185 9.986677797427697 0.41210515644165147 -0.5869178028115892 0.034919437585004376
Ni 8.32119874414844 8.256394219684742 9.961798298175552 0.6602065842034115 0.33042712254486967 -0.3533040271430431
Ni 3.6146811377683865 5.336491202550926 3.8444084139937544 0.3484158458128064 -1.421506630715739 -0.3563957786944894
Ni 7.5120069269047045 3.332017989319118 11.177915731435533 -0.6623855941326011 -0.3598662537415931 0.940349356671432
Ni 1.6618425270884307 8.644139287208727 9.535788318489997 -0.3778184673446396 0.42840543626357186 -0.46100419613519955
Ni 5.427163895264227 0.5141985143753146 2.1512910217809558 1.021479231374228 -1.3180711505372074 -2.3539758133081463
Ni 6.98439617885203 7.734101382516416 1.5212489864091372 0.8251647063767724 -0.10765517468683396 1.8667833888133527
P 0.6085308546311141 7.851863050847553 13.585851907057325 0.8298037478106806 -0.5279158703560843 -0.5712728971854806
P 8.51247706225294 7.82470008690437 3.2108214129837256 -0.2030536434935019 0.21842421241230126 -0.5409040550856361
P 6.7078833099472694 5.809480069415844 0.5282008049473197 0.3895491255180065 -0.8506394536091092 0.25485108778076754
P 1.208155364598529 1.6615928164903828 2.365933928176112 -1.3159641314965336 0.924039563767815 0.41771247532609995
P 4.310578331823837 8.349166331129776 0.8215756131987654 -0.04084763014398127 -0.24088408407771414 0.816162245767846
P 9.124517738067722 2.0336986017440513 6.59403932344328 -0.14550669831696877 0.19583398581661113 0.766331695398964
P 9.142968576701243 5.5995381962424515 11.67604675610758 0.09868099621268166 -0.3864239496254635 -2.523174455925416
P 3.0255583457299755 7.269038515004344 3.9381331251276377 0.9317248482272147 1.1189983460683246 -1.8528287264054735
Ni 6.225895613011967 1.442892575303986 12.13228374125977 0.3859683501452837 0.3247719811416213 1.1506761367875795
Ni 0.635771506315912 3.832234559911898 1.5217641301243687 0.8058827182187088 -0.891368298787039 0.8881220239355996
Ni 8.929540003695852 5.912629043490859 1.1228015076236426 -1.8469586407779417 3.3294533811412794 2.6782901380870583
Ni 0.47077939049922973 3.0387097705604846 12.102097429372074 1.4038130700907177 1.066755586713524 -2.0561443653111104
Ni 1.6043351012121243 5.180329593364462 5.567009229003444 1.3907554655758112 2.455814124202887 1.055058095770938
Ni 1.3976672114353565 6.106755912121234 9.034191865629486 -0.06002471729306436 -0.31017917092911096 -0.9849417985698262
Ni 0.7945846721120152 3.300360234611077 4.960791434393506 -0.35214523094825156 -2.2051811882685244 -0.6139457534636589
Ni 3.7344034967212307 0.12996234318093156 3.571357273861186 -3.0578117041657342 -2.27070678077516 -1.2129870790116595
Ni 3.056050784313794 1.6770563764880002 9.700847948653559 0.5368910772715011 1.9076564728786305 -2.8902135732663643
Ni 5.470502556836497 0.5699255961729479 4.671104019306563 1.3915247396416681 0.4419806038448453 1.869290728616239
Ni 7.3534314486037795 3.543328646511438 6.695167491382242 -0.8608667877640722 -0.1128896836128959 2.2105709918255285
Ni 5.134429086027037 2.734192320511713 6.318699169495275 -1.08181556637044 -0.5940580134007962 0.36754305356056055
Ni 2.488958016147586 7.294832694928599 1.4567903573664378 -0.4088897348281474 -0.6749973693593407 0.8156467395840081
Ni 1.807636522185583 6.883115409992038 11.213041688894235 -1.1451796324493826 -0.0817453967996076 0.8681674351905435
Ni 8.031673178523196 0.2411122297882068 0.3607948200161768 -0.5404430562888176 0.15855556108112692 -1.2021879315136264
Ni 4.770536004886936 6.862731626358816 7.826629332487804 1.9708549599139862 -0.7160157207532315 -0.9464552124588537
Ni 4.720011227215295 0.29770682470053894 7.39209127345189 -0.4027393989560354 0.11918297282077538 -0.05253663644613533
Ni 1.3114338182429024 5.467200827817867 13.269565689007974 1.864916767918259 0.1230383420111236 -0.7692604390099849
Ni 2.5709648262545675 2.9573781039222995 3.252823660429407 -0.04246511114274622 0.5313788892040203 1.2999101633574643
Ni 3.6416313852761952 5.760333324303799 12.673513890300775 0.8872195667259881 0.987548382954738 0.02664382783977347
Ni 4.009704806798427 7.673301476162147 11.301108142847172 0.1270623755688521 0.7875152714551146 -0.014303818217181815
Ni 1.1376074963797342 1.6935002817964713 13.710655414253406 -0.011061914241116433 -1.373183518130319 0.24832974172248198
Ni 0.07623479587581307 4.35796785420888 7.819428418723364 -1.3611736381536363 1.1567534533299109 -0.32007303300405526
Ni 5.493882867646291 2.4013465903955358 8.5777791582046 0.5153598880679447 0.12531968184613254 -0.003267615007678243
P 4.499507520598554 2.26058380142201 13.56229864853703 0.1629907140343451 -1.3673062334139354 -1.2300933996746428
P 3.687457904288273 7.870128918667705 9.137838411192464 -0.531684079149265 0.9225215844613919 1.9453406176929655
P 4.675100313729392 5.03312057154504 10.743647729787137 -0.14635104859513504 1.118479240340061 0.8059778490356765
P 2.7311310535504623 5.002674375664564 1.7869512361265694 -0.47779195711649974 -0.985657079469296 -1.0607636307961472
P 6.3128411438358905 8.530502468015712 6.073640587403848 0.12249095414808582 -1.0465480014173978 0.5057676163938194
P 3.2378493482331496 3.4724108366659063 5.327743007932657 -0.845366635245944 -0.518863530345829 -0.20088183265316373
P 2.556074675778393 0.9870967455416819 7.638936673600457 0.02392745734987492 -1.1094312712051797 0.18906324275168082
P 1.9888894222055011 0.784833935685288 11.162484541330254 -2.508821272527537 -1.4155293300863816 2.763622995127608
Ni 7.234264002091041 3.6627273065408876 2.0883473036997455 -0.42781228276426325 -0.1485729959471183 -0.6100240498117493
Ni 2.5646388244373606 7.908223657680973 7.28062046248342 -1.2306978660278611 0.23907094212837535 0.3092399469442932
Ni 6.930070250965664 8.140343531377264 8.060480532997225 0.09698561078812976 1.7850048247829646 0.4513504750955194
Ni 1.1269531775297015 5.834876562091357 3.164053392531602 0.4165531649106762 0.6014782171242673 0.3972904600263222
Ni 8.203316844788613 7.646194003462975 5.360473593358235 -0.19334232974300897 -0.09868870952216552 -0.27663064554970423
Ni 3.9798597660614 1.0570712042390338 11.724587721805843 -0.4603015136412202 -0.5329670596267466 2.3188900253486064
Ni 8.28229013355635 7.483752635162646 12.249289803818295 -0.8461179115896719 0.4434314773587589 0.22434572010305878
Ni 5.312260025999636 3.770102863701376 4.278757802800032 -1.3734984782675763 -1.3764513902483133 -2.272251242444145
Ni 7.644288804085279 2.1483527604105954 4.757992209178343 -1.009776341115003 1.227686075784731 -0.6049178389334356
Ni 7.303184127152192 1.236585378613287 9.80205842860447 0.3486541870758576 1.0003416780646643 -1.1129979055105153
Ni 0.4235600412624864 1.7208112223903491 9.905744742892322 0.9341658535685395 0.6077964460328114 -1.8713553244547512
Ni 4.332256911150641 3.2159118097676305 1.8604114698018532 1.5205689215272393 0.8398233368302117 0.4049921995459541
Ni 5.506118686950627 4.150560081178638 13.143611663352742 -0.07387396447133085 -0.5400861871700311 0.21347535304745818
Ni 8.449633228410947 5.017351809705365 5.391796550894079 0.5400638185725279 1.9482994432109733 1.0404979385685758
Ni 6.724401203581087 5.639621371499434 11.743131970700116 -0.5120799317650923 0.2501626811661627 -0.19231543114039137
Ni 0.566499011855294 9.026335230331654 1.7577128996573903 0.7649893224384567 -1.2651928144809372 1.640360474466291
Ni 0.26546456222225345 0.9055597613006571 4.885598024196957 1.1413445749740085 -1.97483348494576 -1.169969952020185
Ni 1.4786659306094785 7.912172784546393 5.046759394468776 -1.438305961661265 0.8427381964841616 0.3589478556923818
Ni 5.527408827569355 7.218227032571982 3.3830421881868538 -2.000955893064425 2.0897736233297817 0.36817451649697236
Ni 7.058689706041539 1.231184230862923 6.922304251366382 0.05594463368641978 -1.0389545053408558 0.8511984114363728
Ni 2.893738895582823 0.867336467572097 5.462387887254015 -0.6659907949853562 1.2074625496490043 1.4769902656053402
Ni 6.7107411090138145 5.510308275873426 3.8558738298604083 1.6912271794091713 0.49171576628644353 -1.91919172721174
Ni 5.19703245781165 0.33737936475184227 9.802897271243097 -1.2064973575222577 -0.6600366342844505 -0.32391760356112603
Ni 7.422906486105036 6.106987125637945 7.3615535170187965 -0.03106921060097875 -1.2134287945347682 -1.1189358682615052
P 1.2998823909480315 3.633779374248697 9.363729392748565 2.1585010106031666 1.1077916787192275 1.3414111108147284
P 0.5766955279422397 6.818754815480425 6.712385499544662 -0.5344009638597957 -0.8243550659912834 1.452466569432363
P 8.706187746553233 4.423068331973968 3.4734901413619124 0.5203066905502588 -1.0462417830308883 -1.7404041553544543
P 6.001415033907801 5.000852413152883 5.700610872937403 1.1204895859018704 1.4507611567054821 3.7824293076553634
P 7.621657625069626 3.7498763052595163 9.227054458750487 0.03870333010746883 -0.7682916473388123 -3.1661587627132697
P 7.906272215599935 2.2877560139058617 13.19541458934476 0.8870663289775755 -0.3011687399003845 1.158640900160611
P 6.541400329374835 8.792957555104458 11.316512512184511 0.758569534955042 -1.249450721155332 0.1283193879044048
P 6.017452003426861 2.0389147786810464 3.3105558258439562 1.590171769427042 1.8629015372604432 -1.067943436374038
