# total energy = -340866.9477421552 ev
CRYSTAL
PRIMVEC
9.25502755715201 0.00000000000000 0.00000000000000

0.00000000000000 9.25502755715201 0.00000000000000

0.00000000000000 0.00000000000000 13.54566834241509

PRIMCOORD
 96 1
Ni 7.890466094199666 4.172878954155089 9.074039710340545 0.05388620849549429 -0.9766728736928146 0.5314159130895428
Ni 6.10124719207541 8.942790465867096 5.017951796975458 -1.0538157387234046 -0.9191231003028042 0.41708564037537843
Ni 9.201237103852137 6.577871844164633 2.957764204898614 -0.6287640494234139 0.903008968349761 1.1307930247104074
Ni 2.1957459772717187 5.246758284456975 0.5015280796090141 -0.8366961040551397 0.07324198731428676 -2.208121501843771
Ni 5.04271269707448 7.444956843969196 10.24760956744837 2.6702896363800854 1.0788775667880386 -0.08318572879055997
Ni 0.06940715190349181 2.2489531293496414 6.3518890655192575 0.7385671236911862 2.3455587928890442 -0.24897585994691315
Ni 3.947139582728299 6.890701022697573 12.298233939792718 -0.28544078764216646 0.16154806805054758 0.09047943423849579
Ni 7.729669249495921 9.282884954892566 9.953167351697342 0.39836440981679133 -0.9982441721056873 -0.38407936065268694
Ni 0.25183392096300555 8.723612908812067 12.452369941332352 0.3057723001106669 -1.109365965184883 -1.043587890347809
Ni 2.9485869198054733 6.889627439528145 9.91384459160886 -0.7626282784054479 0.5007521654570989 -0.531356263496201
Ni 5.947817349120494 1.2115848818356156 11.037023601453047 -1.9141122558063035 0.910431228955761 -2.0803937247767785
Ni 4.190954022516228 2.1291745657398873 6.046149237915469 -0.2161791251318664 -0.9090351199391828 -1.4642805313481557
Ni 9.006335483464422 6.062653728139954 8.114370193708375 0.8485871990657707 1.3924271968512794 -1.1782759007827193
Ni 8.694700203456103 0.49971131774557764 0.8207941296448577 2.3333403964459816 2.9793820020029202 0.2934256056198559
Ni 8.369367483010262 5.805077062723242 5.324544938098395 0.07045156905334318 -0.9682214004913519 1.889362045444817
Ni 8.710609595423742 5.360317469705907 1.3168839551990819 2.223816286871209 -1.7026495623135 -2.129083476672998
Ni 7.979443926879637 6.54637698618565 12.95464305064084 -0.666996096321419 2.2680737140276874 -0.08519196058731135
Ni 6.94200163914703 3.724010129006497 0.9737519662063171 -0.1444512604692609 -0.3465998756499902 0.5372042376365458
Ni 3.68719363031699 5.776367967968378 4.1277986415691865 0.38701941711761734 0.19260365180477151 -0.30556455497523505
Ni 2.2644367900604374 5.414533419762 11.52011659213807 0.4339086254699882 -2.003847098569291 0.4100978962036356
Ni 0.696637012608757 7.97111440228925 10.13332478805734 0.23964275547144534 0.4154787008995748 -0.7783040372694918
Ni 2.2425671604970123 7.290749578719179 2.1135576326356453 -0.0379512824327927 -1.1276287680498127 -1.532030642309936
Ni 3.5148465115145755 8.226775277050171 5.634686456696837 1.150991354035153 -0.5200313254016851 0.7963608947712026
Ni 6.0900115889057105 5.58376159435668 8.54831898931012 0.09999920080347294 1.6731718645693572 0.6505348654416021
P 5.809463945674179 3.1106239381704537 3.367493519499714 -1.3688149567489782 1.5467581783280975 -1.0132882109230033
P 0.8743853653566706 7.283613952653415 5.952033939568694 -0.6106634831679612 -0.2537696817911307 1.4502721328842056
P 6.105504504643829 8.46444437869586 2.8770862807215978 1.0819718894426464 1.594176776821377 -0.8245270727927736
P 7.692686160314606 7.070637263904562 9.38964076955662 -0.60533461475588 0.24815747781067587 0.6002024357356373
P 3.641020299004282 3.9471580927829444 6.888283609560896 0.19673387192306116 -0.2688589720240853 0.11105468728668615
P 1.1062163957672295 6.764499470125898 12.659022669911636 -0.37450714358321957 0.20118059484050516 1.2320520660629104
P 3.3998342869759868 8.75360845236478 0.9436009381945835 -0.4001850079652979 -0.40447695047243243 -0.7359880501101002
P 8.772285097501891 2.708391195700702 0.5595367398619284 0.04268905422809422 0.12398476508479292 1.8884253925631604
Ni 6.472179432139955 3.25208703079718 12.078617694442595 0.39692382071552285 -0.3398671849118469 0.9497917330312545
Ni 7.240022773963727 7.508094640364324 7.086430042527934 -0.07788899916799488 0.4840348527024179 -0.31102737786201917
Ni 0.28706133146121354 8.754173009031462 7.6886972435385434 -1.7637885957166657 0.7196306917979993 -0.34903213924056664
Ni 5.764762163705773 3.6043981558885503 7.333191283015394 0.07964043464146284 -0.4074591730292079 0.3523866575350963
Ni 7.046435367455828 1.6758355623944547 2.4812145185307037 0.05014936716088138 -1.4457235942815747 -0.7311492339605601
Ni 7.1790413989347766 5.263306273309876 10.96571916894841 -3.2549656943453495 0.7432825268889843 0.44027724800049334
Ni 7.2115080347826375 9.36534724833739 12.433270341446596 1.4582474377801982 -0.7356628055601976 1.6053747024197254
Ni 3.107310638388945 9.219164091776113 11.225172753906156 -0.6265472442777533 -0.4939330856527364 -1.6146337591241482
Ni 8.307886336505888 8.139315268851117 4.606895311456291 0.8606461871128339 0.19974154840113342 0.2412792626336038
Ni 3.9368109722362203 0.4749661511930046 7.672077065472526 0.5148652078197132 0.39281031276778156 0.8521060108523066
Ni 1.20482871189008 4.494167227660932 2.4492060065353143 1.0085414402666373 -0.8752048016532992 0.16657303206896473
Ni 5.890686065457768 4.662007148157215 5.186487695526405 -0.2808038030907874 -0.9019111072998919 -0.2332111409134887
Ni 6.357935374869146 1.2485216958803174 7.389541442372089 -1.5096928980446838 0.6463725065337965 -1.234458618621874
Ni 1.7025548262749493 8.122933870490023 4.183728622685433 -0.24301501437778794 0.7387823250257858 0.7158897366983284
Ni 7.665642970477819 4.377341017767104 3.5042097086126525 0.34883982072410247 -0.9804253987567115 -1.0237037498293724
Ni 2.4627257504482434 3.9420308076461956 5.218983021958966 -0.41268648286641835 -1.673157980612286 0.04852700106610997
Ni 2.1786797068887496 0.9818751036874083 2.3232441591712965 -0.8403216166228689 -3.732174011044237 0.6701816931382522
Ni 5.277031478829368 7.361744893311238 0.8716773443620627 -0.40145539003728925 -0.08053954941696452 1.104803285514865
Ni 3.7168930129953783 4.85572412504763 8.712451345860948 -1.26125902664417 -0.1928003411966099 0.4327048349698741
Ni 4.871790852479754 0.06505543805638113 12.73151914993543 -1.280104955706079 -0.8466385599798322 1.5055932740540134
Ni 8.334864741151417 1.9812977391785636 8.307788233216268 0.2767499447363879 -0.673800263727446 1.3070987106861038
Ni 2.262437704158745 2.408472780282861 8.184725985912438 0.9246653702772719 -1.0735432990593188 -0.3805533497772995
Ni 2.3999026249820856 5.864383277806792 6.762349527278847 -0.03682488213783336 -1.2249041421642195 -0.5644936694801181
Ni 3.0194434089876925 2.937573437291518 3.1775562957678685 0.6835925672275195 0.2476172890364897 0.3614001738876163
P 7.84911463212206 2.302437932247244 10.484156959782553 0.5073992384599714 0.3723772417244103 0.08051820926072585
P 1.4941593760508078 5.304694755496773 9.380483845523589 0.7106531708897375 1.50760181984361 0.6738833103595556
P 5.786243082121647 9.46493134232912 9.018691870442893 -1.7074223011117948 -1.513034046602775 1.2224150571937784
P 3.7247412761649863 5.286628942162957 1.885841387372737 0.24222337171442798 0.6158149454619136 1.2494579202441838
P 6.90028923100384 5.964791069230237 1.72898255679478 -2.8097287883467352 -0.41224502445362554 -0.2328442444923732
P 7.911789677151055 3.855755442944439 6.886427976582704 -0.0004257746835089441 0.9457455879863389 -0.18956666475066064
P 6.105023243223052 7.498636002440574 12.360218559783444 -0.2633940922547722 -0.5041272525769188 -0.5071819802428427
P 2.3212163826849035 0.22145707028459918 9.105519760275811 -0.5256131903648367 0.9634131804694313 1.2535092074954217
Ni 0.5932370708518989 1.1343516788280898 10.1813037752007 1.1185586874277444 -0.2873518886219503 -0.8975348326090672
Ni 1.8152995691194884 2.5408104159694536 0.9079616789805175 -0.5841518100306778 3.7166301497723673 0.4056735418836949
Ni 6.435659094324772 2.034615951584358 4.980715120045502 0.8947243597434656 0.27400220678792164 1.4823415026149245
Ni 7.79885057873274 7.968421189338359 1.4330095595245855 -1.6799608624667326 -1.4671732795149184 1.0175552137294734
Ni 0.9303616216095306 3.486766758617651 10.541875937680267 -0.5622151578585867 0.2146493187509013 0.030354186811825147
Ni 2.107869492843144 0.7750428275780628 13.19818076511182 1.1758009568796652 -1.7239436958055858 -0.26674732499772125
Ni 2.354978722357936 7.803191186547064 7.819751206935484 0.2656864878333747 0.47334806241253313 -0.19524340342046376
Ni 9.467430199706236 1.835086817535317 12.30829785650337 -1.3200745541204815 0.7405682132816149 -0.011711889120289507
Ni 4.083318054753792 2.4309347315949354 12.594057931123018 -1.0787726657790584 0.5842158304993939 -0.6562900227578246
Ni 1.2687254205256655 5.606528961570403 4.3825793632317245 1.5833424052100344 1.9668589513807162 2.0049362178684116
Ni 4.593871637007855 0.9095674262209975 2.1212106147287457 0.7357959887039521 0.3182665759229358 0.3073249893097675
Ni 0.3007763564506506 0.8627638275476172 4.7624538106954155 -0.270723793146966 -0.7781356300124276 -2.832954591643895
Ni 5.601688582280656 3.3813612524399748 9.832069021191378 0.12769332428463168 -0.6193980348274817 -0.20743917415570728
Ni 8.664019787881514 4.484967730502216 12.782112682297438 0.9132401591594659 -2.8115375594206995 -1.22203376259496
Ni 4.787079587395525 7.583902569164162 7.644308281493642 0.595751084832503 -0.8626333927461918 0.3495525305204109
Ni 3.273595714295022 2.321364463122066 10.382821814621378 -0.25646882588984865 -0.12427632818328274 -0.13705805332898333
Ni 1.9393169352430168 0.7216005978061446 6.298274692239138 1.3017292188440743 -0.12319697907617491 0.06935036556936444
Ni 0.7538626975501751 4.004483732019447 8.022611225317947 -0.34724008033715037 -1.1840714244185737 -1.617318505045163
Ni -0.03174566921942652 5.939089858355235 10.974686364921329 1.5006883805532285 0.03181045964237747 -1.4227952676201756
Ni 5.382066783914138 5.048182418222167 13.36085082734567 -0.2570817768834992 1.0038833726693355 -0.18501375527265557
Ni 0.1425736959054446 2.3075374523020247 2.8020437426813434 -0.4089082467709087 0.09978708479266686 -0.4227621219348654
Ni 4.059717735081031 8.066283848248075 3.36180445420448 0.6260744184063928 0.6485216916663153 -0.4666302840727254
Ni 4.569558680231251 3.3530871439692747 1.3883364681408796 -0.24621423804137596 -0.24632479547731126 0.7518299022383633
Ni 6.678983017664599 6.522980277113988 3.8486633155070917 -0.9027590571224839 0.9106394883118252 -0.8508423136485346
P 0.419141677388236 8.569553723999212 2.554726275051792 -1.043276015534345 1.8562642344495837 -0.89814032740355
P 3.1839885397571113 0.8607092114819885 4.211375240303658 0.3226847595952894 -0.12118817617626225 1.6174863980815948
P 1.9222599198873702 3.2605831458793744 12.504723779891124 1.3816725294379366 0.8091161375543421 -1.8127105182283492
P 4.785774628543032 5.1998815710677455 10.490523493077804 0.4356842293131722 1.2891053594324766 1.7664933962423384
P 5.6357563378553355 1.7982703188458098 0.27518528040078727 2.0839238494172236 -0.03787466355858639 0.2720810785058088
P 7.873603434417795 0.47341038110006695 6.2109729450073 1.2015058178449372 -0.8262800509281384 -0.7096247296252232
P 5.499466805501971 6.737937541709889 5.658987381937923 -0.9584247261159041 0.7511470172387258 1.256944972649848
P 0.3185700719811802 3.730858849225259 4.47580062593913 -0.48497407668723574 -1.0457902973157667 0.2164791728707885
