# total energy = -340896.80370490666 ev
CRYSTAL
PRIMVEC
9.05436179039844 0.00000000000000 0.00000000000000

0.00000000000000 9.05436179039844 0.00000000000000

0.00000000000000 0.00000000000000 13.25197370916954

PRIMCOORD
 96 1
Ni 6.605528116492222 1.7034332911627277 11.334081612139682 -1.7236441622872958 1.3736756272753892 0.5539452045403106
Ni 4.639400628233253 0.47664695408603036 6.073763640764043 -0.007856519929941309 -0.6532208969141975 -0.08063596578551274
Ni 2.7653107270381274 1.5281680110058349 4.758996070681997 0.11796941212864845 0.09715427515551009 1.3651858446368228
Ni 3.337582606308483 4.189181545187257 4.87855529568379 0.34166284335968894 0.9943443228306489 -0.3907169205738626
Ni 5.0976328214171245 4.6675506388758 2.6344263063748037 0.1580670514804826 -0.38740919635686827 0.07893826636811567
Ni 7.3073316947822855 6.173734659582469 2.5700217258982843 0.010847227127149061 -0.20903505788791743 -0.6533006011121975
Ni 5.056100464126239 4.636376471412857 11.467541998717385 -0.18931932462654494 -0.554346296633471 -0.2449672530081523
Ni 5.477789253336704 7.968544569402188 12.363057308332584 0.8147540525664096 -0.07766582741359529 0.4916800279525016
Ni 1.9116926654918436 6.256256112459977 0.5647458937939691 0.46027066040328474 0.6885756222644076 -0.34581286097232056
Ni 2.754001829227725 1.5709860876634751 0.3672747914753371 0.5415761414519963 -0.47852780684125973 0.4864653165207816
Ni 0.5327903349130618 0.2618874534654109 4.900116447289803 -0.6516442964556971 -0.47952770886068385 -0.8092704037440192
Ni 8.619326819300245 2.23736900283561 1.3768270708684984 0.5658494121770642 0.8123017343711753 -0.3713796536978314
Ni 6.954193478288039 0.8274391854540365 4.750527526148714 -0.8170338497395221 -0.2716198225986742 -0.2835188880291053
Ni 0.7043849768214865 7.615623657589645 2.4925634721045045 0.513053094311639 -0.9753202163196623 0.3047729123118751
Ni 7.725860511746291 3.9244772797852434 3.687812561812577 0.28106425584102557 0.20660099452512803 0.46889131219276026
Ni 7.669089663650835 3.8482576626771823 12.617389802364047 0.13375007200167288 -0.07963272133197898 -0.5213456733377343
Ni 7.818450414876134 8.917188157385759 6.923400499454254 0.31597238057212035 -0.29831867204609913 -0.34449465638152926
Ni 6.850321840433006 0.691208164184594 0.4834395362616621 0.2313596895270467 -0.046524883034416646 -1.3057465675335835
Ni 1.7925915911939787 6.5635068236675 9.234491926430664 -0.3112592913671672 -0.035700281615086905 -0.16973343207481736
Ni 9.11312454538985 4.808481779323288 1.2921361929186344 0.009650892826202734 -0.29336775579872704 1.1533639680323877
Ni 6.417351316497351 2.022101552521505 7.14690832438585 -0.5566248082550027 0.2580996766250523 -0.1992818351558955
Ni 3.473615337055869 4.040961643540909 0.23615586284300694 -0.7152868130070069 1.036941588675885 0.574118851274708
Ni 6.09616594257549 5.686057682027558 4.752409927953985 -0.3102676168778592 -0.3711605957084898 -0.07444320671123954
Ni 5.2158012964560045 2.8462567209732734 9.393952818174379 -0.24946822620229936 0.27967328903076993 -0.09683700102540742
P 0.2803248502719141 5.539042010492327 12.509518852929467 -0.13508807408680606 -0.4899406766638916 -1.2904850133888226
P 3.9068484374819175 6.199593916705375 12.777765184643272 0.39738353396076076 -1.090049267134142 -0.5623079746827089
P 2.3998585785805915 8.386593505194092 1.3909935252433228 1.1343923120258914 0.36778396592677304 0.779606043910367
P 6.326300654862918 7.851181932557964 5.637760811082427 0.37784083594214285 0.20226971413962586 0.20031516151641632
P 4.741416121932056 1.054968957869525 12.632457165731775 0.2254824048106633 0.49330496515043426 -0.14759006320855872
P 4.096437717907872 6.117443692659113 8.092304112814105 -0.23514975269709826 0.8276561053400585 0.7369046483870987
P 4.762820633080006 1.0864600279932877 3.7935095589939327 1.0420591124081087 0.4772273428622814 0.5542393387419616
P 0.2211455419542278 5.7413617235215035 3.5299814551816486 0.6025575662313751 -1.0925828321892732 -0.33647461429053016
Ni 1.546783778738571 0.9998188405251206 2.7723396280551134 -0.21510131868665533 0.6260222250122187 -1.2317599887437884
Ni 1.8759098279044055 6.62884309796683 4.8251762114952825 0.5787830895195967 -0.39816926308684975 -0.6879058498908928
Ni 6.01503886140559 5.556888157477357 9.216045475262423 -0.5571058616564794 0.27805015160505014 -0.43022552019144616
Ni 8.635425474469896 2.309894440354684 10.192609998536577 0.6061383416040981 0.6031028972118839 0.14439315353781584
Ni 2.3862770359740235 5.285990708646749 6.982716528634179 -0.5035179011276941 -0.005989384814215491 -0.25194754098072736
Ni 0.35399385367846103 0.02693038811647709 9.337871007007164 0.8715929159323246 0.43906625841152763 -0.06769148980970277
Ni 1.398337518048781 0.9559414035441679 11.586916514739729 0.22381838684467906 0.4927172109677644 -0.8382387659519112
Ni 4.130817129425965 6.787448352526333 1.7487702912557999 -0.059658077982264995 1.0519342054299754 -1.3567153452719667
Ni 5.771558019916773 7.712152208075394 7.889310755271643 -0.9718029471950229 0.714703429699711 0.6478727452284069
Ni 5.351236439328702 2.9944404051726696 4.937539935224115 0.4694194167820884 -0.6460140947531133 -0.5048366199391177
Ni 0.6089148812228763 7.335653738297849 6.867861949991302 0.5115723960010545 0.8934238957644871 0.015345629218134864
Ni 4.988573034286381 4.5010680896044875 6.918325529700266 0.933507136938618 0.7881025114171524 0.13451368964057478
Ni 8.288878833320704 7.091810722339526 9.131179848131021 -1.0324670978442991 -0.48188232513578944 -0.10964520853366923
Ni 4.46757600553669 0.259841167712688 10.465255844618738 0.16969897929245614 0.4379318876967684 -0.5279760341700585
Ni 8.278140360299776 7.266994513240778 4.649891917178739 -0.5040933140151899 0.6904540702340431 0.45766536156995374
Ni 7.323828741868398 6.2371785722786175 6.840218078169893 0.2993643397017941 -1.3868054797891278 0.30387302620542506
Ni 2.4170799746057203 5.080556295179799 2.688401167565653 -0.6699459229783623 0.14397303528126174 -0.38092230308094394
Ni 2.4657471689459225 5.185795141657227 11.419398146485623 -1.2488611672004493 -0.09699075299445231 0.4297814906754921
Ni 1.196497686191703 3.316811900482171 3.883173092410148 -0.32628044736634776 0.22769329641905303 -0.8713908272238476
Ni 3.668990354632221 2.673481390294251 2.742310837351991 -0.24694983065581988 0.4502135332775989 -0.7275777145592179
Ni 1.2355310396429797 3.3195644264504356 8.157013825281187 -1.4036621463351502 0.548677528383468 -0.6968746290484064
Ni 3.7156293719431757 2.6475768613626567 7.118722096296353 -1.0383484963257408 -0.493420407682376 -0.1749010923186859
Ni 4.318704189845228 6.918329151444961 6.0095048355115 -0.9721459323567386 0.2677917071018356 -0.49784424778168457
Ni 0.7560871932161701 7.419424693095162 11.534690050800434 0.2564310306733777 -0.20130966421920168 -0.5184842926295393
P 0.17425752969548572 5.509633443568237 7.787786913415198 0.6288620084538589 -0.5337946977343646 1.805832045940961
P 8.473406725535277 1.6679130300656833 8.07243974859774 0.16199878243472102 0.02192816753165901 -0.172825954957212
P 1.6459562028517314 3.223533865860261 10.36956301172138 0.5730135340256711 0.2445417354349595 0.510089897918257
P 3.9370718969624003 6.276220980091632 3.8220280821592043 0.11156427993325302 -1.1570247047134268 0.9363433208358325
P 6.886430635043002 3.8935566344509565 10.410326653700734 0.06866105281182369 0.023026285691844214 0.8113547970768736
P 6.252543824147515 7.599217154120911 10.18167685673829 -0.10518742987263174 0.9024821493120135 -0.35536733742997506
P 2.3079658613045515 8.449566591079881 5.879264179967728 1.2357210302740653 0.5782020202051462 0.10077644528912966
P 6.992756004928955 4.122686312585499 1.5255005960379047 -0.21556231748347393 -0.24644409466399494 0.40378918037678846
Ni 5.434808198167786 2.9279904443796005 0.5613776712275402 -0.08042462110565504 -0.6921923930813886 -0.9287269419411553
Ni 1.2409455479621316 0.8969730618549703 7.066972797220633 0.5307068028376603 0.9767530921114469 0.5338965134195514
Ni 6.926505240094115 0.5274772354453724 9.10268758261479 -1.255702872712631 -0.25245841917887485 0.9872498778777127
Ni 2.5844770144125415 1.6574824053438388 9.160082276233972 0.615177826098547 -1.2239284085145112 0.5656365248353098
Ni 6.484480354420748 2.139138232343172 2.544047478381309 -0.4038295466964206 -0.3393498789557962 1.1493324782754917
Ni 4.03066683424513 6.890713348144939 10.550651151911795 0.2838593020876595 -0.30242446668435663 -0.9879240211266018
Ni 8.228042576805016 7.2176301330467725 0.1434826595851761 -0.1049837985022579 0.3216887142306073 0.852178515961455
Ni 7.667342171835457 3.833643922832515 8.349975855454439 0.37676997147546726 0.14582834332244562 -1.1060505276584047
Ni 3.0533390282764867 8.194894558483252 12.488951870242255 -0.47448603267171835 0.8015074719691486 0.33501191370207467
Ni -0.015029335048428311 4.9255456222301675 10.228482474305219 0.4832933465507031 -0.5870216753793052 0.16153212721094762
Ni 8.540581035267362 2.399007468577247 5.8939476383977745 0.7178558592857637 0.5157288413715891 -0.06141465566205551
Ni 3.5339536036759824 2.585300961330673 11.34606143815485 0.32290356047431484 0.10420012625869797 0.2660837232717934
Ni 1.2244303921525446 3.286724256427754 12.606178691660412 -1.067843163350748 0.29137077997335625 -0.10898623479343167
Ni 3.0612344317117715 8.400944668548368 8.140952292994658 0.74212193092198 -0.23149518666364646 -0.5987173665496786
Ni 5.576355035213438 7.833616470786802 3.483957229032684 1.2655314287672785 0.413393793346088 0.25855887564965796
Ni 3.2988842642415013 8.488446020381616 3.633333372672937 -1.104925412915026 -0.5870838960758082 0.016772334362332404
Ni 3.158722744541718 4.519249247973813 9.235114866518218 1.1172163144672373 -0.9414472177213011 0.016768477707590476
Ni 7.197792026479445 6.128680155575614 11.377336109033081 0.47647812340108264 -0.6141077329628197 0.5067796025981014
Ni 0.6513807432089197 0.176286612160907 0.542362606142171 -1.0420848234397213 -0.38270844844708934 -0.638443481494707
Ni 4.756944352312231 0.4800921387272299 1.6915747935948462 -0.6641925654343529 -0.6897948393834894 -0.5312547049213303
Ni 5.927293041805422 5.656160179569633 0.28149467380842647 0.1561947741584342 0.3554195308241492 0.5448681819397068
Ni 7.812447373044031 8.785899912188935 11.36787430101717 0.5536927222098722 -0.8063550298694372 0.0990023841078424
Ni 0.25169586389344223 4.834802808894818 5.596759039389372 -0.5728536114090391 0.22136144066375427 0.6430107891504151
Ni 7.8867565198254335 8.923399449537829 2.512799065152117 -0.32350879815848155 0.47943489203656137 0.4675597378655302
P 8.65136115112827 1.8501592231223523 3.571963814250898 -1.1635563351843572 -1.3646356285603078 0.5323255693880058
P 1.7055248487241392 3.2047822827014594 1.5773558311459557 1.2374495829293979 -0.36026914560696666 0.06988644057849254
P 4.676116065079675 1.0089094197097837 8.301870936978148 0.39339960961234827 -0.12332527712392309 -0.21773335699286375
P 8.55139194318219 1.65656791480833 12.396731385071309 -0.6227546100045405 -0.5473711508672185 0.6527560414626371
P 6.409582674126394 7.704818175067848 1.2488318970356787 -0.7183060594493048 0.44145069948330423 0.6078391263452887
P 1.7956248023761123 3.1621996194489994 5.965190072858616 0.1665709751864357 -0.498417089566019 1.0843396183438743
P 6.998922025272337 4.0178911298332185 6.100824411689542 -0.27240452328349857 0.4375223109631755 -0.7183991333837433
P 2.2880915372902733 8.477010361506887 10.280880971117533 0.4302589445325429 0.030873292540088765 -0.2723243048648665
