# total energy = -340863.693554936 ev
CRYSTAL
PRIMVEC
9.26467904988216 0.00000000000000 0.00000000000000
0.00000000000000 9.26467904988216 0.00000000000000
0.00000000000000 0.00000000000000 13.55979427761250
PRIMCOORD
 96 1
Ni 2.8246245938558316 2.6907036591167497 13.49348704719619 1.0878864551548684 -0.4290446125094675 -0.6160980239199711
Ni 2.29110878978217 1.7111213559159641 3.559120932103263 -2.5382840578733448 0.5513031389317732 -0.39393131374610224
Ni 1.9975944948344804 2.8087634634322196 10.722678194164912 1.1182540117031323 -0.29945278565054234 1.021649181293189
Ni 2.448830684835656 4.9204617446552525 6.28211662982486 0.8894006335377069 1.3666544587625495 0.7726301268131661
Ni 8.205448237313227 5.747955077625892 8.833229370663245 2.045797474859148 -0.23276454029437332 -0.03903808773906825
Ni 0.6258661242036625 4.07130759221592 4.642670536414288 0.019758413573849845 -0.8561254164243448 0.6523791177391925
Ni 5.129602608079676 3.165231252088111 9.951275080709827 0.5351447840043557 -0.8579814957964771 -1.3064582488886274
Ni 5.218033968998703 4.987964195745461 11.716570720527093 1.0230985121452056 0.9433755450922655 0.3504719570108867
Ni 1.6830679079470994 4.59884767834377 12.309702880938287 1.1743200014587647 -0.4982386550066258 -0.544052885127263
Ni 8.880074367018915 0.7885483283861209 2.811623469835122 0.8413287177311445 -0.5279564937860326 -2.1998201810669276
Ni 5.534098492597719 4.207387197158683 2.387649524217428 2.564200263518474 1.3837957464285264 -1.8783615805692555
Ni 5.847911699203197 2.545776285742591 12.411265997851725 -1.327228134446127 -0.14998530291361267 1.3342194781622958
Ni 6.734837947867452 4.268144961947261 0.2592025563239478 -1.6496231307151394 1.5703269667869728 -0.8430791247633481
Ni 2.5231519396593782 8.804696938790817 7.525889592515522 0.9697391226874591 0.6982946493243845 1.1980890788539045
Ni 0.11698139568152834 7.285039438794457 0.9301561672796834 0.39723081043298036 0.13925634653188276 0.07279435825390689
Ni 4.2967079672603425 6.090979817073454 2.576035653777964 -0.9040417804896494 0.7565332212513035 -0.23901283519693028
Ni 5.279940553981515 8.449952380426275 8.966007044015486 1.5921044676733807 -0.8402565677128884 -0.07688498338351275
Ni 7.989877686672691 8.177190966406675 11.317383497067889 -2.879607515615744 -0.4876030296696506 0.8712162493191963
Ni 6.450365979609858 6.510039776957103 6.911874845670438 0.6865192539560112 0.7465498847863465 0.7571713690559347
Ni 2.5629530005821803 8.238782552303972 2.3670791574653576 -1.400406101291698 0.08053260743842905 -1.8887472946789536
Ni 3.615818914560284 3.232965320152963 2.0829472029265412 -1.0909437539239533 -1.002462323952093 0.42365043807708974
Ni 4.4931469557952965 7.679566528723828 6.485568053884131 -0.6713057794403665 0.7700541385558738 1.1249926159785464
Ni 7.38722884800733 6.216229012281869 1.7718587384107738 -0.4670421747991633 -0.13878274932957388 -3.0912596994115344
Ni 3.3772441659981185 7.4108630440999885 10.048878473824752 -0.1459044479760197 1.4313107612903542 -0.3332077706138003
P 2.8968983546237026 4.1798062478180915 3.979596534935936 -0.23198729580871663 1.0401405552291572 0.02023998119595869
P 1.566981480255595 1.5760330716246773 1.5415860686877432 1.747989681011196 -2.486408709160292 -2.4354175628244055
P 6.114827100782786 1.400078288327227 8.919076812613145 -0.0007309646287535799 -0.12300568900097526 0.3880913100255574
P 4.059439538435169 8.20487382721611 12.516110664061914 -0.06649181307464677 0.8763898231003358 -0.13289800841402272
P 8.576924805926042 7.6873118003559195 3.0499906895880065 0.402664579854042 0.16291743759424845 -0.01886444100467074
P 0.7963491880921262 3.773207281170282 6.935835158463396 0.28468694019527746 -1.2501127802193632 0.32451409949454435
P 4.734788313101746 8.27387715630201 2.2268434175295853 0.8152944984509121 -1.050343206793772 -0.9975119219253529
P 4.255415293020834 5.568590892461684 7.851798764004802 0.36154904076065475 0.5405142758463851 -0.6335010498877671
Ni 2.4584566863018544 2.713837562544178 5.636263813645229 -0.30430162910241143 -0.672692375375248 0.3070917902530389
Ni 8.337720059192845 4.806135605971042 6.544743411501942 -1.2615739867814275 -0.15594923380653142 1.4443192577348805
Ni 9.036156413891923 4.456949854997953 0.43197677532558854 1.9666514633556 1.739747752717378 -0.6672915160746508
Ni 1.848516545274704 6.283879698235849 4.2799185160023585 1.7296286620055048 -0.3566760289390696 -0.3447967610029804
Ni 2.195358332464397 6.527698255103951 8.151484261624903 -0.5360138168728705 -0.6291669412887875 0.4393015143507854
Ni 5.621927649382673 0.3119334032392683 11.285179472913404 -1.167676528000318 1.168866177433045 -4.346448351491908
Ni 3.6579176158715523 0.850360413643278 9.539260909194844 0.09101062415161745 0.6590051076961424 -1.2540177717007241
Ni 2.7922723348375764 0.8034116528829668 11.595589762927414 1.220408311176395 -1.1218419861647067 1.7500139105300763
Ni 7.084598108937657 3.4613396571518122 8.658349290128143 -0.9703163353471678 0.32694764863670145 -0.6368589106164064
Ni 5.52067397274736 6.851332021434329 0.25007684752297954 -0.46445461657764525 0.04913480985343796 0.5675075166057775
Ni 5.043691239844774 3.5434247129655976 4.422011824074774 -1.8126786365491494 -0.05847074254238317 0.6331387814523418
Ni 9.358622830670097 6.122868842142421 12.163542378791126 -2.434122755272382 0.34930699016850814 -0.1063066310787395
Ni 4.368620405547769 5.9140985658774285 5.127242894342005 0.4247033048216363 -1.7342389070840065 -0.7933591318304014
Ni 2.2529383123608615 7.2237906460196335 12.09613628036237 -0.8340848916845378 -0.8323825642814503 0.6409803889839478
Ni 7.511699810180941 2.944055570661193 5.433056977111182 0.299338114449549 -1.4630039786285771 -1.0783252938289944
Ni 2.2908308494125977 3.4735505040550367 8.699842081433742 0.2520678686086756 2.2235491492527513 -1.5752899672192031
Ni 3.8065323314820407 8.047661489506842 4.17519614355478 1.1921431456831146 -1.8946220082921754 1.1835471764839876
Ni 0.5901081691902442 0.18545571159734162 11.49097671369187 0.32324808829792717 -1.0512338369288412 -1.016906781512197
Ni 7.719506559831417 5.512502525881926 3.7933662961753853 -1.6222645361965287 -1.9639327788728564 4.56374616360925
Ni 0.4652823698114775 7.41707964369943 10.134725915774652 0.4460313768754512 -1.5644519960634347 -1.2099197529402452
Ni 0.4887989044810183 3.0523318739677063 2.352434479392575 -0.10973108337925618 1.1422704292223875 1.2844999994499813
Ni 0.998389601541867 1.3772779133432849 7.987694928303647 0.44183533651623264 -0.2710161275764042 -0.40029659384249766
Ni 0.7668448913940923 2.002551098091859 12.79001811887205 -0.5466772101239875 0.9525474413995209 1.3708756959327486
Ni 7.794420754110227 1.2455990309187557 7.422861729854439 -0.44747685107272606 -0.3027522823374205 -1.432411450553701
P 9.189681409364862 2.769870341050022 10.964679947483907 -0.05925904277163343 -0.5535148018711112 1.5592725087450243
P 7.54925881878919 8.3865912408427 5.993266174278599 0.07551329984696672 -1.0100491351604153 2.7995927283539976
P 3.10105482075379 2.0548131522505004 7.548438894698951 1.25602837437285 -2.577493895303587 -0.6885833355738915
P 7.834805489809131 4.037537837312844 2.241894815009842 -1.1994368511310505 -0.39520246714904195 0.08472247715006054
P 1.130087013324368 5.282182606296068 10.025894658196894 0.07533640794947026 0.12014893627847051 0.2727217974136013
P 7.040025738337192 5.976977942153744 12.391672128264752 1.5262004087814038 0.6857582074202706 0.07249328207372031
P 7.541217077429556 7.852556614745837 8.7627594428939 -0.06411817063614764 -0.017000391212738462 0.7814829492181058
P 6.306448456245147 4.854033996327392 5.579136876551168 0.7497851038941926 1.0354508630629715 -1.2143543916728312
Ni 5.550950943672807 3.325426816430793 6.779734582232417 -1.137932463968666 -1.0516308152569436 1.3648444021370043
Ni 5.466123542879238 7.245933228795587 11.346198501649381 1.112438947683252 0.3771029293348538 -0.22157561355708935
Ni 9.439040244266446 8.279667580668107 7.317597373686196 -1.082122813198214 0.34161810616468263 0.8552928932207206
Ni 3.705084096588029 0.35310841605565724 0.5128574228712257 0.2990288107392463 0.7208589077781457 1.1014770493551096
Ni 6.478021046382335 2.137528206235317 3.1837040955178075 1.0354770883152167 -0.1362327292142105 -1.0014961033840817
Ni 2.9482709995997114 0.3314475965869631 5.423063167889248 0.30892190148324217 1.2344161954197128 0.8422232045209559
Ni 4.253136181990339 0.9032719217988208 3.219448153512747 2.2928241814994896 0.2969264196842628 -0.3127767564529581
Ni 1.6245707248310453 8.885836997348056 13.6162032791699 -1.1917955325357088 1.176048554114097 0.4274754682501347
Ni -0.023063491867137364 3.1530574639008297 9.021684058848276 0.06432308755810212 1.8299333098645387 -1.6235292618415653
Ni 8.309258965348606 0.8527794213264586 9.622897798738745 -0.16787195338604638 -1.023037319889967 -0.6401964596300717
Ni 3.652164250221399 4.94006580538911 0.22206601707744925 1.7294273446279762 0.056790783736798967 0.054997953502434305
Ni 6.8976183576471595 0.2026407646480177 1.8106666257463022 -0.41122429649859504 -1.00619556574228 -0.05661029229487669
Ni 4.768632185436708 0.6910700084375044 7.2051454795608025 0.6142550571739616 1.0938182472582711 -0.6530090380137076
Ni 7.432032835582437 3.870375234372876 11.183236504161552 -0.3514546326391302 1.3802802770761002 -0.12395545450875427
Ni 7.187065458520102 9.238654502483561 4.236269833896772 -0.21833628068418529 2.7771716803463202 -0.15483723168927527
Ni 3.5460002937236372 5.08937537192353 9.868085675160941 -0.3321155659908861 0.016920944125054727 0.8536396738880138
Ni 7.773649343824165 1.464087955439805 11.743134408115049 -0.833769417326648 -0.7686081501379666 1.5724080176857178
Ni 0.35240615338853704 5.433826871934897 2.825522341249551 1.8825097984096741 1.1717787230941497 -3.078130361118428
Ni 6.063528573238663 6.018076058134551 9.49112349012066 -1.5155948653514155 -0.8766212223848516 -0.6273003203936939
Ni 8.877785991309434 6.706098913653641 5.59235757346384 0.7647728355522765 1.1013965738261613 -1.3513890479630466
Ni 1.1046925282244147 8.633504200492045 4.210736378612033 -1.0223477500221103 -0.41772558795222253 0.2945373506267959
Ni 6.382696764297907 7.339052517281406 3.4761344230241638 -2.210002778026884 -0.1151126594061437 0.11770176028955859
Ni 8.036719903624665 2.4511283252241225 0.7125900047856151 -0.7929364424706861 -3.223709307434229 0.18577557313934456
Ni 5.963840627351944 0.10448797606923832 13.30838246693241 0.9115236906889914 -0.5834391002343694 1.4979033616089235
P 4.00640851592071 3.400628215758163 11.613434461121878 -3.576589359665976 -1.5479061758896118 1.8470054348554772
P 1.853538001284983 7.439268549870312 6.017741603223166 0.04363084931607324 0.20998122385127063 0.6138097421064267
P 5.499550504659841 1.5575500370480966 5.127731142924554 0.3535997040065911 -0.9594883914937282 0.5975207751384161
P 1.8466080214036384 5.778686017821639 0.6754812595760737 -2.067139430870033 0.7199250831099665 0.05580348012286518
P 5.325939685145786 1.7563051953294888 1.119142648038496 0.4901134547963301 1.167382393798667 0.1700933865173974
P 8.442299755584042 0.2534834699860415 13.433837338014309 0.1174472210765913 -0.9025703381504456 0.6922970369800528
P 0.2703581562906948 1.4396569969543702 4.585434276108194 0.2879488987760009 1.8338966653876612 2.224903092177484
P 1.6424886139894945 8.978298493625886 9.53996595126566 1.1838765347989482 1.451562826671171 -0.15900987500972616
