# total energy = -381170.35489721585 ev
CRYSTAL
PRIMVEC
9.20612592054311 0.00000000000000 0.00000000000000
0.00000000000000 9.20612592054311 0.00000000000000
0.00000000000000 0.00000000000000 13.47409585417954
PRIMCOORD
 96 1
Ni 4.782112974092954 1.3382945448810042 10.419801876340193 0.37754361641669815 -0.1630313374642934 -0.5118989261025377
Ni 0.35299417384735704 4.082392157017728 5.700215989812606 -3.35681660364558 -0.31172877480441796 0.9804747639374082
Ni 2.425611681200779 -0.15244055892458275 4.750926301462846 -0.2536334133235826 0.06579144457351249 0.39634455117328515
Ni 7.52957082224042 3.8038516070423576 13.864844720317702 0.025676321720181586 -0.27855357360402994 -0.8867691094521308
Ni 5.866355264309748 6.715169292875294 2.737194858819315 -0.24459367171881743 -0.19335518525881537 -0.07315585535838369
Ni 2.151803080018617 4.449044539482994 4.6601235183265395 1.0323737667995445 0.6408374356481802 -2.1177698514323917
Ni 2.1811614160138397 3.38769788476953 7.005276419628463 0.6363698867951298 -0.2365011245186701 -0.05224970133333583
Ni 8.103094063328655 2.272964905052523 2.2769603637611864 0.978333292114373 0.21836996213559812 -0.5297089577007652
Ni 7.609857447582012 6.306647449103577 12.02028136764401 0.05470664751426062 0.4472513653254814 -0.40927360053012735
Ni 3.6897048500637535 2.6404458388629037 5.0138725945105564 -1.2960208556053874 0.8873056986818912 0.2515405353502958
Ni 1.6022986218126445 5.854635865839407 6.470651822968141 0.4092931409141532 1.1764843560999352 1.6657945982686795
Ni 1.9394085457615515 7.660362255129767 9.066220559141827 1.2535043223994153 0.8520173077932423 0.03398509869619309
Ni 6.286743804568717 9.366220588955663 2.739809398619454 0.822860483723628 -1.4836453090280126 -1.1026363597705333
Ni 0.24807471701551184 0.4478752708268376 8.629470891654666 -0.6180651749486711 -1.9285749681988527 0.36197198723068624
Ni 6.928189843704224 1.3516250154112903 0.31114772785604794 -0.4057607022808625 -0.10935107433201813 0.45111573337689403
Ni 0.037084116982112274 2.077297901840713 13.186734363548274 0.09423093086112803 -0.13921700865351508 -0.0936866283218838
Ni 6.779520114012518 4.480152039429014 2.5588657528103274 0.5879817252997293 0.43137686018706994 0.7183417977832467
Ni 8.642434958367891 6.935287766894038 3.2387952400885855 -3.922249754220832 0.6041462508747337 -2.748206403462222
Ni 3.4148651627632276 5.1791547786718075 0.9785559630844153 1.5456343491362994 -1.4349573569040062 0.3828966531984955
Ni 6.000378047445043 2.3243627068277903 3.2655823050761366 -0.728541621134384 0.819547360189995 0.9500976943074476
Ni 8.580146309467397 5.950720203494515 0.7897677772622664 0.46325134029816345 -0.2085126097255441 0.3291145743810332
Ni 2.643806074873646 5.783371244033506 11.563496408019374 0.4917183373896048 2.1208202082229413 -0.11708623819274674
Ni 7.068261051658854 0.43045451848950306 9.416722634665602 -0.19338295317295728 0.05794880860064213 -0.5969096239169784
Ni 8.554801844432951 1.7352258759471757 6.868204567543149 -0.4841091575837792 0.18351891589468394 -0.9736055476214007
P 1.4245099154031933 1.3624606257801761 6.346865331395433 0.9844363196883175 -0.24930059027618356 1.2175235334294323
Ni 1.0013595373271769 8.38646782948386 6.635561159024091 -0.28484711992222556 1.007633069519755 1.2856456830186505
P 5.217664003967517 2.455743331784775 12.848156983105907 -0.47529335906436204 -1.0757259085329345 0.47812182965209277
Ni 3.8104616055511595 4.908973391156036 6.2252349145452355 1.9089494806584415 -2.2463082973261383 -1.2857451847109922
P 4.871421602970237 4.4036307196446645 4.011952404106519 -0.6400727895680137 -0.47347096114364257 -0.5259307216052556
P 2.172268298242945 9.21698928557449 0.826311494644843 1.5984412085246857 -0.6474819375478913 -0.5194062902231765
P 4.471360189044744 3.7037902229307 8.272582526485271 -2.611143722147548 1.1941828018209628 -4.9035830095037936
Ni 3.2540709650546797 3.772385068180121 12.365662995854976 0.4774813678546163 -0.18844746354455286 1.238148151658319
Ni 5.744033467392683 4.18426714796258 11.738026145804708 0.1708652316864154 -0.4593206377851896 -0.7628748471986152
Ni 7.920831179655586 2.5828154897471642 4.693782035802906 0.3226551919089346 2.033000837315112 -0.391443514327242
Ni 6.163252829642433 8.466828103833908 11.512698845663012 -1.180344867496606 0.9164866911212216 -0.8188891577807058
Ni 7.052739523127043 7.59599302174043 4.639643570300521 -1.2013230124101697 0.09588569285573165 0.13050045471612365
Ni 2.418661056027874 1.7746096832182836 10.964074493108072 0.14526450039917563 0.7778731203796603 0.6127594464650415
Ni 3.280676669358911 6.50532485553597 3.638168035785028 -0.11980466556517433 -1.4918617834005339 0.12559941787008047
Ni 8.133557134450697 6.419597409694793 6.128490497651852 2.0760992111664827 0.06584415218831885 1.347016372816648
Ni 8.475049174402654 8.823832466191618 11.581066299598831 -0.5743929308717011 -0.4242217371995275 -0.4276248493438055
Ni 1.0631142309163752 5.735941282588731 2.769169575839888 2.3996046668908546 -1.9954403625628345 0.28223745021352037
Ni 3.53600857554502 7.9381479027684785 10.841068681024984 -0.24241080513488575 -0.11948019234622004 -0.5522714163823134
Ni 1.196704326126998 1.3180042430517565 2.1268995884222934 -0.18480960968164947 1.390087492974509 -0.06039547036892179
Ni 0.5317467616549583 4.995566212846555 12.403996384143 0.1798970028713805 -0.546494147578904 1.3932892877412584
Ni 0.24890142713541494 6.282895643876962 10.355112269764078 0.6322355529117821 -0.09936233855042242 1.2961069875612903
Ni 8.777286292848299 0.17590697424343588 3.43297085087919 -0.17016769139875856 -0.011163472815987226 0.14264248939529625
Ni 1.5929544038649646 4.183355741482955 10.475274309508213 -2.405055662703097 -2.343135271049216 -0.05852833525319598
Ni 1.39036439385842 0.16593766033649748 12.192224184007374 1.3164742383637327 -0.5994493596196967 1.1742138148982035
Ni 3.4076015293043906 -0.4011854819170316 7.120224109574011 -0.529492470814585 0.7604307565334969 -0.058510851751699226
Ni 5.9150924956545925 5.685445681167033 0.12265782051814032 -0.6242162821517313 0.5023583336019543 1.8221348968660425
Ni 0.7539808034415612 7.242680315931507 4.822769988597721 1.7188678239445752 -0.4471341230213267 -0.35550052057372966
Ni 3.9780683365417597 1.0440943744829698 3.440246452301901 -0.9310123955412224 0.7456623399750707 -1.7009037832669869
Ni 2.545005930031774 5.503606279292577 8.947042654273169 -0.09464924934546924 -0.8316492856598516 -0.17696825926035975
Ni 1.5836101859172849 2.1975114958907653 8.872907562362748 0.7367046165611506 0.6739450168354264 -0.13476951440512275
Ni -0.014206893730896097 8.541158365616731 0.723478145977475 -0.4355986115779014 0.20838302612621534 -0.5565731290814608
Ni 7.157873482696012 1.711050588921947 11.426410746744974 -0.0366850141258594 0.6101582613967685 -0.1290351830245068
P 5.306632006180697 6.309013423500182 11.586267760820936 -0.38440769052638313 1.3088971973474233 -0.10334652000915105
Ni 6.300626642662412 5.921490753264088 7.494777189421247 0.008077377691495767 0.16461385146006485 -0.28374000290097584
P 7.916513506534933 8.72606340746811 6.931897150667309 1.86059191529066 -0.20820896244219628 0.46426461205402625
Ni 6.837748861321952 7.261028125162763 9.794576110704211 1.0688137547941334 -0.608777578999158 -0.8198443226051234
P 7.30856856012022 7.486900427967025 1.3716087532428456 0.3508920752674408 0.04949296452380508 1.1713748027875115
P 9.168021901078225 3.949336017118401 3.402492129342851 0.20920243670371713 -0.32796426282667385 -0.32201010212576797
P 2.7970788675937657 0.32121462669918877 9.332926634071148 1.249100536904765 0.8382045702798661 0.018114450212523645
Ni 2.9539052249718214 3.205517856230972 2.7857967601111238 -0.12189214422182233 0.14844161257557661 -0.7342803233903741
Ni 3.7730018786259283 3.6789060641990954 10.168320892683656 -0.29413960096774505 -0.6451869708661275 0.6554477293621873
Ni 5.022751903092366 5.568592323127722 9.480440994942722 0.5483157741686749 0.4751493772873301 1.0883531103786417
Ni 9.27406726712682 7.037466559998767 8.324444317013803 -3.106835956583236 -0.24020171329870887 -2.1553375252735205
Ni 1.4974868766556642 8.181069951029984 2.6721830378312106 0.6031082965285227 -0.35307622740295325 0.23826875794205418
Ni 7.114899286262742 0.6012990440142896 5.010006021566689 -1.3929609578675624 -0.24188218632492536 1.253739578338673
Ni 8.04971694445117 4.040439840576766 11.091754255390212 -0.04549592754927004 -0.12102696800804963 0.6205483463818409
Ni 5.708359728922476 2.919078450098843 6.075469655852766 1.2881532799318525 0.2496456323204281 1.1835438340498778
Ni 1.2125296568186845 2.042314622824769 4.415892358939753 -0.26332364402815295 0.6850398411970073 -1.1176127785747074
Ni 0.9517753423851044 3.96970917408216 1.215772975028505 -0.04555352026008284 -0.7070703386344855 0.004228179148734654
Ni 4.7926263700498515 8.418146109245404 4.246576970953005 0.2461820992518599 -1.9716967390889912 1.5669865895598305
Ni 6.569362668387262 5.037325200640324 5.205057134945297 -0.37996431004304887 -0.08304354678574086 -1.275703227093958
Ni 4.073793635280651 0.4521699286323476 12.29897934237495 -0.4127114225670828 0.5474133169590636 2.2299478536902435
Ni 2.6006477559192387 2.1808207893497373 0.3310872762825305 -0.21592689991174427 -0.620642448757544 0.4411516801856467
Ni 7.615123351686518 5.22737646695747 9.26464019404463 -0.9827404200431333 -0.5910955883383626 -0.48981237861614346
Ni 0.3341105680795926 4.621548929535827 8.315430598991563 0.9805781222844919 -0.30132480586227456 -1.103081931948384
Ni 5.92064378966686 8.346301501497923 0.18678861524260593 -0.853542229078201 0.140214596680094 1.2055576193168078
Ni 5.051125183599509 1.249041152760062 8.105274994591518 -0.6585767619094722 1.3472416014535764 -1.0221677728008203
Ni 1.9022434148701393 6.61298129364451 0.7825529362715308 -2.347651927972647 1.586966632226183 -1.3177734167911304
Ni 5.94165216932854 3.117958391304486 9.342466942503838 4.313051264088701 -0.6340011294526371 2.1181092370496812
Ni 3.8038884315465844 7.781404400524935 1.877265353652755 0.4261495503498596 1.3823461584661934 -0.938061846188836
Ni 4.580443576692092 0.9112407693568931 1.1844205921293736 -0.21505041084406187 0.49286710628206726 -0.2529793246793514
Ni 4.9348057808714945 8.314153709307481 9.021298346434932 -0.2575846846618467 -0.20911681896844628 0.3227456947402119
Ni 8.42233489660126 2.6160772231904814 8.984742661088482 -0.905020599463151 0.3514898567524399 1.2761727105312086
Ni 4.053871578493677 6.5022315971808755 7.6158423501315555 0.18560819432354486 2.6675606674846963 0.8437031315005922
P 4.78856646845879 0.9564980850522569 5.695809937881808 0.3368044868261232 -0.5430799796910325 0.2948646520592276
Ni 4.944490625483276 3.3689450059917725 1.4604570758172872 0.225757769959237 0.0007142524582052216 -1.4849593998537458
P 3.446119960726157 7.061080273334528 5.645255417253347 -0.761618863304327 0.8175560407915791 0.15489739550324935
Ni 3.804983960547347 7.31483793196492 13.01693381271833 0.7484280756456659 -0.33692095779932946 0.6769658059396212
P 0.7554970524031207 7.224139178053056 12.31974283908352 -0.4106159734906347 -0.31629968200455205 0.17061969133451263
P 0.19377882675755498 2.4350663726611406 11.002610416169345 0.5217508791959531 -1.1129775937955413 0.03476080051995304
P 7.656707423085207 4.146604886264099 6.92932311782182 0.1771397518412175 -0.360349878246231 0.45055240467425633
Ni 5.879032099889999 8.664253477122571 6.877083876124958 -0.48905287474229964 -1.4703822733705192 -0.4999150142677841
