# total energy = -340873.05362539564 ev
CRYSTAL
PRIMVEC
9.23386310823262 0.00000000000000 0.00000000000000
0.00000000000000 9.23386310823262 0.00000000000000
0.00000000000000 0.00000000000000 13.51469203208588
PRIMCOORD
 96 1
Ni 1.4676855693567914 0.7153076517189636 3.199657221753033 -1.808347870384279 -0.7722308344922184 0.46216736320536533
Ni 3.147934662215862 8.28342137394396 3.0092623562535454 2.0564996917680003 -1.2261405856744818 1.5227026800407906
Ni 9.149908598896477 1.1584527353616636 9.576835325776388 -1.3630870531262653 -2.8504653468341488 0.45628185095886586
Ni 9.134534217200938 7.598481127079121 13.166107081283005 0.08048787024342267 -0.29660760289226334 -0.5955819062444904
Ni 2.4010905986021402 5.348659670180472 5.493641474648832 -1.411671389792872 1.1872480223743425 1.8482207953198169
Ni 8.52007604570069 4.700664108699326 7.262079498331572 -0.12759845057798025 1.0428232442676426 -0.5752815041242415
Ni 3.817149640595715 1.0941850497154486 4.060989181059531 -0.9092732040919178 -0.6962979306093299 0.9394345581666466
Ni 7.369407456747039 2.6997044902850345 10.599342514884258 -0.15550366162868057 0.14524701689767888 -0.912602525575467
Ni 5.24046649881313 9.107165047624015 0.688659646832985 -1.3594998499956394 0.5799064044907626 -1.3759063163781207
Ni 6.083056486631679 5.713646568246267 4.940768551628099 -1.6121066218269202 0.2690597751809818 0.3314928448052226
Ni 0.703602807132018 2.896034882843917 2.0455841075554497 0.2836279028031438 -0.2196028061014347 -0.4917545899441789
Ni 7.883955231883487 0.7174443675894426 3.0910937724841947 1.6394806429644988 0.5753146713550221 -0.439180672502205
Ni 2.813373342340337 4.109973900252721 9.35992449963011 -2.172646705975929 -0.8635919000047191 1.0166486427548038
Ni 4.1387281492616745 2.248353272700698 13.429630447248552 4.654194487499494 1.420091495535767 -0.4432512430271528
Ni 8.393258172903979 5.817545993374314 4.563154346073627 0.44389710414126776 -0.6214682870929491 1.5024961231859286
Ni 6.5390892726962795 7.732843065848959 12.435070467533903 1.613292157494589 0.49004789166571733 -0.9856023149719605
Ni 0.4539376225770815 6.787018491029737 6.6892586613307365 -0.6035788084070379 -0.14127620517538897 -0.3994126485756476
Ni 2.040009624534671 1.5237535847653856 8.31975200744612 1.7552977846368354 -1.6965527053871425 -0.5778500361823661
Ni 7.086389559468808 0.3823604110748977 6.7579401334336895 -1.6676475923170182 -0.7349236134013278 -0.1667416964363451
Ni 4.150224308547528 3.6640891294934654 5.188506628999938 2.158905702240753 -0.3518906917352843 -0.29221821557531613
Ni 7.49622532954375 2.515221143801453 7.863631499684159 -0.7379156061501162 -0.07302035822178392 0.7580601994187912
Ni 0.8075502483470424 5.718586684887176 9.519911331278799 -0.7526734811855812 0.284808039154174 -0.09863111681135273
Ni 6.027764115705022 1.4144061805380184 4.292441494469554 1.3891228150683947 1.5825700458203842 0.2732339611633295
Ni 4.988889904641991 4.6555843901181735 9.070628498979627 0.4590357595549191 -0.6197435910923585 0.8208956466877733
P 8.102659274201102 2.15850778687632 1.1204424622015947 -1.3646453987523208 1.547424865377819 0.1258742687980219
P 4.581750422528068 7.108596999695696 8.73553161505705 -0.12842917400939172 -0.49832427274189667 -0.41838764701625364
P 5.529449471511971 3.688725075657848 7.024072065662891 -0.19598542379281086 0.15415511802058612 0.722367116892556
P 1.5651212904686964 4.158359341744987 0.16811355436955702 -0.38182476029055534 1.9780689611639222 0.38817589931956376
P 3.6299238368367135 6.525192309061573 1.5119425507553175 -0.5884836046368124 0.3279354664712675 1.507947633218803
P 9.256670521517387 8.190436374740313 2.4882167118082985 0.3686424572723264 0.2260195082610559 0.12089584174682404
P 7.502162703375721 6.102503001857388 0.3199533487990438 0.012221224656540242 0.37852834892747067 -0.3739512710797495
P 8.130988765517564 1.3921064016823275 5.302854169976935 0.43509287558607646 1.4688103008977091 -1.7026868433093385
Ni 2.044451112580049 8.254002286807633 5.769516055602937 0.20608368856907736 1.0395255473529774 -0.8003134516610475
Ni 5.438736002576855 5.628039425483903 2.5996047997321905 0.24790011038423115 0.1513328180804426 -0.32956477454457433
Ni 7.050008139720807 3.5076582584399416 5.572025889866301 0.8407088247589585 -0.7826121777265425 0.4645106666265613
Ni 7.94226707597197 7.894481835566918 8.089705087966465 1.1155674660099044 -0.10144698899359303 0.5751092402124353
Ni 1.0102030668199997 4.2125713507146605 11.508030339971878 0.244508825314495 0.2403400386487861 -0.20435436458279643
Ni 5.805671245710372 4.14307729867825 11.761430622061857 0.46753428394423346 1.3394892112016674 0.37819976194345833
Ni 3.644494872461674 4.347238006959545 1.1674178928320529 0.10440247207749116 -0.43312058235105405 1.0853647171742793
Ni 4.884704229764657 1.4680179884204787 6.306819762421357 -0.3874148527838231 0.774619389329053 1.0980011749913672
Ni 3.2182320603228494 5.020986812013577 3.565756800295892 1.196426603549817 1.6561367634639412 -2.67566607020065
Ni 4.1120607532636475 8.572459749820084 6.93969949036761 -0.1967881221997643 -0.6204537297855056 1.1364898179848686
Ni 6.048170952670271 2.037793497443422 1.9251274428969098 -0.31914717875567616 -0.7780492409462085 -0.8267374501805309
Ni 4.285417294976584 5.607724927147454 6.872382783198353 0.9728347308936472 0.31870289212940595 0.011641698003986402
Ni 3.18417757402066 6.112964968500658 10.538823777567407 -1.7360409932897523 0.46967009934031373 -1.4143746476566479
Ni 6.273781924422279 4.223347268695858 0.765016305761962 -0.32669516630626316 -0.335092646341339 -0.04355911553787337
Ni 3.9623429005240314 8.23932967869099 11.586713008960379 0.4869219444422259 -0.4724623173734702 1.3322952645563895
Ni 3.334209378098203 1.3322063331784488 11.280510728762534 0.6793060240370237 -0.11403973805693907 -0.9219731681570897
Ni 2.387258272007596 2.875628045878667 3.9058538209680997 -1.9067745844943094 0.1849685038570169 0.32302285966099853
Ni 6.6504311913057705 5.854259832186002 8.059581457092376 -0.39166308653721577 0.6443822155766451 0.13800987571929135
Ni 3.4776297363535202 4.464360323732043 12.325533769117493 0.2021118484055229 -1.510912629384398 -1.0362283646589443
Ni 2.478645812932968 6.833446353591399 7.852116872672545 -0.05258728717841266 -0.43602952846773296 0.5997607202125285
Ni 3.3831950206776815 3.239312969278354 7.334463749449485 -0.6880562594258279 -0.538624257912524 -0.4355564454860563
Ni 8.131016467106205 5.466419123491704 2.312363333572555 0.08201022042522005 1.806840175490501 -1.8345998621022728
Ni 2.6135433157498573 6.427331830257179 13.059908424297788 -0.07949953818822436 0.27244900336818884 0.5800362452004075
Ni 5.319619171422232 6.449474633443907 0.12385287942587864 -1.956616447717101 -1.3846020443799059 1.3252959504204207
P 3.1594031199130748 0.4068763170218374 13.425021826285041 -0.15812412997066316 -1.6760268175196489 0.14437258471252554
P 3.9084356090294046 7.174942304489957 4.938092578165416 -0.8240845859387161 -0.9686898554873382 0.5729016910381552
P 5.5559598918410344 9.066175930298794 2.742441577853479 0.7878909096269786 -0.062333310821582964 1.403113730030848
P 0.8735769848719359 8.407312112207649 8.367094022432923 -0.036745949270781876 0.3680590739650306 0.22647433641028739
P 7.442696626427212 6.829300349158188 6.207514184076211 -0.2108908801497336 0.7193175314329546 0.6352640553254607
P 7.785753100152524 0.3202220542088577 12.420812459860581 2.0275362146561147 -1.2447301757512113 -0.17866647289838908
P 6.731846160320522 0.3853761906915721 8.896923840636108 -0.14873446122564707 0.6545527283517437 0.7421011049863735
P 1.4983512279819464 4.786797581645862 7.444338407247312 1.0259917745326006 0.18586890418409924 1.0017017916369846
Ni 0.681211613033813 3.461525879490446 5.919110174579958 0.10059184008214934 -1.2850160198544514 -1.349363532892586
Ni 6.549301925041783 2.0164448064643925 12.91908555167067 1.1198843482177037 2.64179101471976 2.3057861409767964
Ni 8.616255961460888 8.442465428192582 5.112391897278422 1.01234204495965 0.48038620020623723 0.6059845896350532
Ni 5.798173349051647 0.5323358885888714 11.577982391607147 -1.1387145935503291 -1.220513983516324 -2.4833323842278134
Ni 9.217398902687883 2.118599031508081 12.245013561415831 -1.6801344119301194 -0.8666553694213913 -0.8431320894884706
Ni 1.1462178670453942 6.855044358868194 3.955195890654754 0.327630533636339 0.7113337418965298 -0.693549164219599
Ni 8.505421905309808 4.175977552120415 13.425981224638296 0.729847484430001 -0.8940237341320152 0.43664530767486087
Ni 1.9754002859618889 8.163593535347562 1.137313653070014 -0.8528968821847182 -0.10734612808684739 -0.8455700095060017
Ni 1.3099250220485181 5.427720004160772 2.022392337545531 0.5957192031533031 -0.405839635147914 -0.7777093411082865
Ni 7.7917735787504165 5.6899432422327845 11.61163428148776 0.7671156247528401 0.05140020884884696 -0.8348955605112911
Ni 5.626257289948023 8.487665186991178 5.130069204376283 0.2998443646620062 -0.9405015659785801 -0.40890464722648284
Ni 7.1287637562260615 3.836088293363012 3.296152012237445 -1.0624736715087186 -1.553729467439608 0.25607621843712025
Ni 2.0201106500278327 2.2459340006260846 13.165999045087306 -1.8891211330786049 -0.64900685883285 -0.4812698883627711
Ni 7.246264661376648 7.618647883609485 3.5001566682360647 -1.473399205819972 -1.0032123147442398 -0.9406884851784058
Ni 0.4318197508201306 3.1298732264221845 8.790618070841479 0.40625358275688095 2.6531403782943084 -0.9840187725349246
Ni 6.4991897511909205 7.6209101800151355 10.05299793291983 -2.390165375854825 -0.2608787820320862 -0.7104842494120409
Ni 1.6187053967625162 9.148375777658362 11.93805410446181 -1.1237433169524778 -0.6733107256855373 0.06115625979434628
Ni 7.352020092943615 8.259071677528866 1.1874415244877736 0.4010018474396384 -0.4205574009740628 0.014356525831988178
Ni 2.7894207020290898 8.471044233806811 9.571929374428136 -0.17594136065774216 0.5616335743235037 -0.21679773255247178
Ni 4.414174278978138 1.1467626649553262 8.815782193962608 1.2274258801448086 0.35246661884341235 0.7537412603284632
Ni 0.16491679104043067 0.597321045380878 0.7280106768832593 0.5850792069409536 -0.6064211629518395 0.18272573056942726
Ni 0.2665973189183652 1.0890787235426962 7.00071870305257 -0.1962312212550298 -0.8765703145422581 -0.671460816960992
Ni 8.65091064885029 8.01044991947939 10.534269636394889 1.8550635292732631 0.3316789926740998 0.6250130670214139
Ni 3.123723473743969 1.5765989820287891 1.9058148186829647 0.5264310582804418 0.08328111671784366 -0.6407448759343739
P 4.75400813455826 3.2915119961401427 3.0805256164178023 -0.6175890066432009 0.8142598865388105 0.03672306645264643
P 0.23144954325115938 4.1924876989502184 3.749732284321063 1.2734275436859037 -0.5862901965299193 -0.11043016632880981
P 2.627070924869355 1.242453185982873 6.079300151212013 0.26596673807795485 0.19607669795503652 -0.38022887655834514
P 7.998990695645059 4.417572340518054 9.309703366197258 -1.0130771233534617 0.5802961837300135 1.4851720300851843
P 1.2198117542006144 6.86070471681376 11.512543852147722 -1.0827617323337932 0.19719101406513784 -1.30376836076129
P 5.086833488212307 2.4222730800493264 10.865136487732045 0.21093895977884963 0.5231449313300023 -0.9029344063580836
P 4.96251799225613 6.240817033939952 11.471878843409595 2.1183576056150617 -0.2715172355825388 0.6952064973173641
P 1.6885688033141342 2.177455673506497 10.273328058490648 -0.40342459794851804 1.0803598077605199 2.1007692031093366
