# total energy = -340860.1228031302 ev
CRYSTAL
PRIMVEC
9.30567211587530 0.00000000000000 0.00000000000000

0.00000000000000 9.30567211587530 0.00000000000000

0.00000000000000 0.00000000000000 13.61979177333206

PRIMCOORD
 96 1
Ni 2.2048301435213093 -0.12330853211774805 8.674785803616842 -1.7868125674156647 1.1143695890470615 0.11992190786932896
Ni 0.014389360965192841 1.665510603911456 9.129632173015459 2.1257636682711456 3.6216134897851497 -4.7941722855784334
Ni 9.026008859927504 8.094213288455805 2.070957812291043 1.3015353576657134 0.1214000350767522 0.07210196017257259
Ni 6.927840331476389 1.2252964735231662 7.142940945012206 -1.9654990949187119 2.070635359838434 -0.2072733380018043
Ni 4.304729527006717 7.241767184066947 3.1350176948321185 0.7656572950397588 0.08313867760270842 -1.2442596638726957
Ni 3.2061390865315147 8.086843196051722 6.989295921433209 -0.21135213605686826 0.1783152602065574 -0.0905488540238505
Ni 3.8445175070017945 5.139680967608106 11.436321274170412 -0.4398316758226425 -1.3559951792764906 -0.39471524309997824
Ni 2.2905167733909955 2.3511990619857204 8.30398733520867 0.38865181051471775 0.5241484328938522 0.5943495764992861
Ni 1.0787042189252984 2.3011903794357966 4.901095629072059 -0.5155133829266735 0.3220939200888259 0.029916327943458155
Ni 0.7575608175224092 8.381870228348479 13.07871844940351 -0.7627581191150928 -0.5557015251097849 0.9291555448381418
Ni 8.852430155870245 2.4919473544247954 11.308540435980188 0.22568783595325004 2.3470101806235903 -0.2757407867455832
Ni 6.017140718944153 -0.03351903136301146 0.13132909101052417 1.0406012969156595 -0.0846204043545575 1.375313162878812
Ni 6.444652606742073 6.588322880260544 12.415312423477701 -0.9906187943499455 -0.40089848909255477 -0.007352583710329272
Ni 1.1836722016501096 5.3440242240490745 9.360133674087585 -2.769606209294237 0.6333796938185544 0.663035054791142
Ni 3.1072756247878623 7.025038077891341 9.518899609093307 -0.14512180417372428 -0.40728896599993086 -0.4075956986070723
Ni 8.04431627397261 5.990023990073577 3.0751170827044936 -1.0873709489710306 -0.3169265169552735 1.9984968900009712
Ni 2.930458546795475 4.762940827482754 13.508845231097323 -1.0128295261190299 0.6112072714865732 0.6326826677515297
Ni 3.996683859263861 8.898232674573393 1.543680743110638 0.26846147947535054 -0.061683078832093764 0.69665788505191
Ni 2.7337273302365004 2.9497026769616905 11.829606899516042 -2.326293002680897 -0.39842714473392676 3.3338419971272772
Ni 4.302561305377739 9.22248882333634 9.793256882238612 0.9309468324106096 -0.4590876958387771 -1.6203945728673252
Ni 1.0431007169833546 0.5550321671657793 3.256110546392528 -1.617506452686253 -0.6538665009179965 -0.2970513752979013
Ni 6.637894196215781 3.3783126340824414 5.67938483148095 -0.27533635221831293 0.895778769149909 0.876268209920807
Ni 6.389274551316953 1.5543915718443488 4.436428983771891 0.8756740279802337 -0.8365168981647981 -1.4949455645321803
Ni 4.009311656476411 2.7033256990696604 10.238310892752361 3.189818311113739 -0.46747926233658205 -2.8155423097047185
P 5.839644326879166 0.6271287933146041 2.2654612509187833 -1.2594266014211213 0.887837145705329 0.5982975054034405
P 8.820037110846746 4.898691973935728 6.266793293460219 -0.8977744594236989 -0.016880063584790283 1.4009689157737033
P 7.1107154020887995 3.8760172074914654 1.977906673420611 0.03169964509612605 0.3008530084321786 0.11803677503147414
P 8.709997536758014 0.5078375198974148 10.403273474894295 -1.202642759662858 -3.392197297137719 4.73175335702158
P 0.4507956102780401 6.2336278776418474 0.11755483497956096 0.6247083912968016 0.367004150337955 -3.2653406098217697
P 7.2868438603363614 6.2504525330289455 10.357116410079282 -0.06283776126182726 0.4718223697966262 -1.1057851898121602
P 8.711532972675531 3.867437377697824 9.23029628233511 0.7816243598919764 -0.7527241319178585 0.989697825197573
P 1.196374444240479 7.008855513887932 7.976008917554773 0.7551450826545252 0.9343550867612102 -0.27267860288049167
Ni 4.343310844061421 0.7940837198804179 7.144371226833553 0.4801730557541666 0.40949188718852053 1.4708306737618475
Ni 8.925730936005293 5.7358023304938675 11.669846188149213 0.08835827413043491 0.3603694186302568 -0.39086064524057845
Ni 6.906139503842146 3.939305084309855 8.058776358046732 -0.6838131678787578 -1.1525730966999763 0.0399729408485118
Ni 4.338360226436457 1.7607355478142033 0.8708955301468548 1.863952861343093 1.3517983675863234 -1.973123444233189
Ni 8.395996238789635 3.0339562333083605 3.692747576376614 -0.6955104017110281 0.6750688460272245 0.501688047007807
Ni 1.5852584866225579 4.324169076289707 6.9664142039933115 0.6407479612581675 1.1452691068393954 0.105795752880592
Ni 2.829733950606348 0.5837839026467055 5.061427708713649 -1.232985119400141 -0.44759820714193876 0.40826495675995494
Ni 2.799983716495424 5.589182158879318 3.745061273937259 1.045134923119955 -1.1295061875781838 -0.44561897192838096
Ni 8.832971995242799 7.982889531599695 9.097271697844757 0.7493122780228322 -1.7321779107899202 1.2721291365894543
Ni 8.109530424942069 0.9319723792440201 12.807821025192343 1.5051590147300724 -1.9786086357174764 0.7106444291389891
Ni 7.1207748337665935 5.939736137356832 1.0061637122112277 -0.25215117235110124 -0.17797047527262896 -0.542975078682052
Ni 3.4658603983976026 3.7998595859826128 1.9300196841385295 -0.6689267376852286 0.38926424728773606 0.04988377220432054
Ni 7.5436152741063704 8.315111335789277 11.250301816912373 -0.0883227929068092 -0.5312894148140076 1.2652030988935823
Ni 0.8483171776215703 3.9447116798739614 12.945312332351836 -0.1825051299181889 0.46018915643307196 0.040476362847491586
Ni 6.659846277000162 1.5463886937288047 11.05587933763301 -0.6363503464111041 -0.24491840204808785 -0.7485789994012334
Ni 0.2599111475795267 7.871919390288227 4.649674046265568 -0.43851552811438027 0.7068178563040471 -1.2598994272924817
Ni 4.03585143366889 3.5080988446376664 6.900767339265282 0.38482780878293726 -0.4340528643573363 0.7052075743941338
Ni 2.067013137833858 7.558578795047993 1.9754825458053793 0.001204304720746313 -0.2345748540302347 0.09344802994851648
Ni 7.865749729601476 1.3055485908120643 2.171335306906089 0.5628175673292759 -1.0116653306075996 0.09502128797290732
Ni 6.824845151263783 2.4163759902662676 0.21866561656612424 -1.4043828265512586 0.15737413917851606 1.3416911039489925
Ni 6.706579362926049 7.9504964865761965 2.3231964331190977 -1.1314095752484836 0.0686440835309592 0.9416940436247846
Ni 2.9930484981968117 1.3419802975822446 2.5655738330878006 0.28455118594836154 0.8219261448348166 2.427434801729245
Ni 5.222389782365031 4.561873167665822 13.397775519093022 1.4295858081794475 -0.5806455966496322 0.3467292021390029
Ni 6.984390901602159 6.173224759213944 7.789063545910108 -0.7027146327689511 1.3860328632891612 1.3900003325773416
P 5.025425924000373 7.592311856872234 8.095087091077955 0.6477256781275812 0.4537128046801089 0.42030826107773417
P 5.319717808191166 2.6456305312599238 12.288143898520037 -1.2872469660674992 -0.17426808672037727 0.030315106043773594
P 4.337634384002722 6.112374968519127 1.041737436002044 -0.1304750007948269 0.31464749111310975 1.1167226626602704
P 2.653009929336234 0.9188476591345277 10.871018436567278 0.05787527505022936 -0.061637313195822885 -0.4728587814809405
P 8.396610413156644 1.0831802472666667 4.884261668012734 1.1806595705235472 -0.11120303993909235 0.5062209018811539
P 4.460888012654328 7.1361571099584475 11.261525388185813 0.31990385441604263 1.5262490026311522 -0.21038977214359897
P 2.512019689419247 7.586430672024531 4.2657052599539895 0.6830091839202237 4.450349972673581 -2.811318501431358
P 3.018266869933003 4.581294105604358 9.363593523021724 2.6777720608000597 -1.0110490371798395 -0.6488315095972502
Ni 4.642143896299174 3.1656408009979704 3.802495882924629 -0.3248465431332986 0.11910018329898198 0.26125467731426616
Ni 1.8768145031785024 6.662265751779281 5.81358100010473 -1.8862157865063516 -3.447390397370095 3.5743609845560895
Ni 8.805148035282942 0.1709144900985626 7.299909024143598 2.345666522111502 4.1767216042853095 -0.3249735556294661
Ni 9.26835648174508 3.1871741265321205 1.4868314609063702 -0.6350000030307967 0.050258381934919896 -0.4362591279800357
Ni 0.4894057749166494 5.481794701375389 1.9056946569361666 2.1088776911490843 -1.33693944819662 1.8218849856387653
Ni 6.235582068809597 8.40350591627713 6.317608777792255 1.7003072873335685 0.9350490275044414 0.7228597402582583
Ni 4.74372461433322 9.31628069371607 4.178307316961688 0.8418781624767113 -1.1021046556367795 -0.9289244026639422
Ni 5.296751409134001 5.122586447726414 2.8831326895487046 1.4542228900018375 0.6234526645128295 -0.6370591995526707
Ni 6.998563440404454 5.684630438915523 5.449482615700268 -0.2874418772325953 0.0023013944396670046 0.11397571758822306
Ni 1.9051502751108649 6.501528875395801 11.919129327477853 0.38529137868291713 -0.4227968318275428 0.6611098127439711
Ni 6.4169589261933995 4.122664049878089 10.985043630070995 0.829156858255301 -0.2582297744450133 0.35660918025687616
Ni 6.888626228710223 9.238606247634157 9.202879910818812 -1.4941001858127494 0.49964376288426854 -1.4890104299946678
Ni 4.811386157098478 0.16022878667986573 11.97773552059865 0.232587905507193 1.8650525221651753 -1.7160180132006062
Ni 8.64473685742742 7.564041224645463 6.846233308311184 -0.18622268797909217 -4.921126931924828 -2.3484913931548066
Ni 0.5767906899678318 4.803792728560938 4.515220110521091 -0.5922037338008769 1.4893269327938221 -0.4444108105528927
Ni 5.236804268645238 5.672486536658796 9.669575192664547 0.2583537016173873 0.6148548955414895 -1.8925944363391856
Ni 4.106099953313358 7.816457583813061 13.243136649720142 -0.6422494855043585 -2.765734385043656 0.18559739569026748
Ni 4.726341618612481 7.122710413589888 5.512106998088847 -0.41540079647378786 0.42495090205606817 -3.292011177134421
Ni 1.9482355375236198 2.281713607463897 0.8177433915185237 0.1695593683907983 0.39394931146823114 -1.372501661571946
Ni 9.11390093411508 2.856059697337597 6.992278389382083 -1.1065428939137911 -0.9978479651085331 0.40496186052865096
Ni 1.314854263039441 8.456371440200858 10.763000054486334 -0.38183941557857465 0.8184037335038551 0.02295275214143144
Ni 2.7797717964175614 0.4683405246955364 12.995624379816372 -1.4097106665220756 0.4427707038463084 0.5473187003627283
Ni 4.073223013334036 5.834870517026522 7.097954533763398 -1.5842317497935232 -1.4472935098718558 4.0292755228537835
Ni 7.869164911308923 4.210751543182438 13.155207352843659 -0.17899480277208527 0.6929408412116389 -0.15950532658890593
P 4.533090723466546 1.996169055166838 5.4671345453483795 -0.028697110824376384 -1.095965375508261 0.018548195315832572
P 1.5354080005005002 1.2305914010205437 6.675060120524701 -0.3292091909773685 -0.7112272982256526 1.8957275826515285
P 7.437102549791816 7.495039665079464 4.50737449826619 -0.29661274509858593 1.4853548355199515 -0.43341574499396973
P 2.0169486212505703 3.6718042304616803 3.620917092453493 1.2604144192556874 -2.0724302469553275 -2.1942930806011116
P 7.796543445246474 8.137717306118791 13.973225261692889 -0.5409379936473652 -1.0630606543604402 -1.9050858839379772
P 4.90006921342538 5.00401357220518 5.423047062036736 0.7193774381366127 -1.8554527942918817 -2.2076761867762364
P 5.303135100281981 2.3875842403947636 8.477898251764449 0.820428991464 -0.7530928281111868 -0.32068212734296386
P 0.40861765090745444 0.7539083411731639 0.8533776021788179 0.15003029721893515 0.6284249209164403 0.8441489607887591
