# total energy = -340863.4546705508 ev
CRYSTAL
PRIMVEC
9.30281898982269 0.00000000000000 0.00000000000000
0.00000000000000 9.30281898982269 0.00000000000000
0.00000000000000 0.00000000000000 13.61561593496098
PRIMCOORD
 96 1
Ni 6.132232165052644 5.323305547266678 8.249047674224952 -0.3943295776257854 -2.039639425677552 -0.04292431016735188
Ni 7.302982621285706 6.920580947423249 4.559256658154869 -0.19101548138204522 -0.039214722526248594 -1.7180710390748928
Ni 5.843426152182017 6.104398130892266 12.432364396527992 0.5704190338256176 0.11075104000333831 -2.7898670164258017
Ni -0.08663157076039357 4.110785434155242 3.3125431038803708 0.5002253464193515 -1.2598819437909852 -0.7039816724068327
Ni 8.826030829408303 5.168088013855617 1.1215934308631261 0.6375425669469923 1.3846655506279895 -0.5155591485629443
Ni 4.97470101448198 9.079123320506975 7.846053280436891 0.6420990759694232 -1.0177693866228084 1.207213923973308
Ni 7.088887547032055 3.620359427181054 12.024998608137004 0.1996541308936497 0.6149130024729346 0.45933992105889926
Ni 3.7559108014293354 1.9345956136108766 8.581786249369102 -0.45942425324258945 0.1398942372261978 1.290873764186809
Ni 7.657401415885324 5.731243459020256 6.424555573750823 1.3063903717651695 -0.8714245086752607 0.7017399275605075
Ni 5.283973228941118 3.6575893084343396 10.184045169612478 2.199071732936677 0.9612917632510541 -1.1669468489231452
Ni 6.959810934740867 -0.11756623446143055 9.744981886370333 -1.792863658705751 1.461931828610321 -0.08317415882633418
Ni 0.4180528667477551 0.6477376049205102 7.210585163368695 2.0081809500579544 0.8484172491468098 -0.7221012648256789
Ni 0.827389922464475 2.4504741331060513 11.60584242706725 2.347263691395293 0.37413561917641375 0.7521705734072336
Ni 8.644523529774906 5.703716417883706 8.853227620473765 -0.3368777632662198 -0.2934322904880753 -0.6435216673485628
Ni 1.024733410717928 9.275905848780525 11.315856816759611 0.4460884553656318 -1.1107515326785 0.17509341083515004
Ni 2.780556753453146 5.9798147801316475 13.447612653091536 -1.6775165146912983 0.5482401837357332 -0.019628315753888775
Ni 7.549851526537688 9.66181468536974 7.309679720614601 -1.8565560546583897 -0.6348557641434486 0.11143341078234356
Ni 2.41967249971534 3.891787774339252 12.67242084749667 -1.6574917348299392 -0.304035005704586 1.18680322152744
Ni 0.8519670397266076 6.865089632661668 10.22805029387345 1.4281537037186114 1.2534490436814476 0.17909430446442703
Ni 5.676682426149061 7.002696929887705 9.727159545914299 -2.362283047622261 1.2616863439895756 0.47296831047561116
Ni 8.022630086051237 6.904766155286671 13.225078991810186 1.315155262441993 -0.046675035459035744 -1.0601658493111485
Ni 4.0013191641134105 1.8567868362989126 1.9873760869438701 0.37129455018319285 -0.17475248255596354 0.7067795468669441
Ni 3.8618233946498886 3.4769285653211957 5.377447023005307 2.861788742266768 0.022280922885387435 -1.0980186584928637
Ni 1.2392564146411569 5.637908276957734 5.370924816671804 0.20684113556039213 -0.48707543930095476 0.0765885351890165
P 2.1532211606707117 1.387580559244451 13.255047092627109 0.057161279702340265 2.1793955946639882 0.5184272141393588
P 8.376890732729487 1.5168432279137165 9.147338100683378 -0.15926055756795154 0.02598845364396169 -1.5109216282454623
P 7.628311501172923 5.416212799659622 2.882970556483954 -1.3083246126734047 -1.3895799572104712 1.4236843550933482
P 8.296635314045806 7.575676151814831 7.622471191465074 0.27021085806628947 0.3568938013768305 -0.4619537045326625
P 3.5841156447315785 5.807666116315543 3.9803078173371307 -0.8499614537054782 0.06492189748436561 0.272967337765504
P 5.634931374908496 3.6589289143564967 6.880856050139946 -0.11791747584479047 -0.9575765191829961 -0.29573599892058744
P 3.24736290323041 8.307845210824969 6.9536720045462035 -1.7531467997321033 -0.23337363463328192 -1.3995319262168608
P 8.477016972591834 0.22565568730548932 1.5436976752435163 -1.9616375550807765 -0.8338689190189896 -0.24656827894668504
Ni 8.794298914127204 5.432669486300567 11.378393156277093 -0.03200432082073843 -1.7642179699446001 1.7179399128136672
Ni 3.235436689395649 7.1901859420762895 2.1390538977620093 0.7602050136759358 -0.6644625312662878 -0.21764362549253485
Ni 7.642479694363517 7.200074838571102 1.8859669883546801 -0.1685556097166323 2.2750835696866174 0.07555469460786342
Ni 0.562650302098159 1.551728798803227 2.38582326285172 0.757815687508153 1.8132162542201742 0.6486026814158959
Ni 4.580828964911052 0.6633402927860801 0.05000079104451735 -0.5478383203116243 -0.08564010386832348 0.07836413903220052
Ni 2.3821542310760346 8.672059873730362 -0.0757509937704279 -0.09742578364934189 -1.115768012056485 0.8812831466368952
Ni 7.596337712600325 7.251351976369231 10.64301369446323 3.079858142442812 0.7459415617783862 1.2057391391999945
Ni 5.931468030288237 3.4968459005943795 2.361874085865599 -1.2158821411712673 -0.1404537092740936 1.2986991737684987
Ni 3.994258324565374 7.689728711576269 12.06057630875296 0.46447955627830967 -0.03960038800044148 -0.3814627489654463
Ni 0.08874703177913347 0.7320164927801153 13.37871783685326 0.15828662369045643 0.1754245689223237 0.0205431142586743
Ni 7.05543461025374 9.19600393721519 4.919376220178778 -0.9813579378733099 0.33264495613179484 0.11528775153142727
Ni 4.691374361945732 9.065066761143228 4.426286816152412 0.8654065846159548 -1.0447304885926845 -1.410325417287939
Ni 5.359456301527115 5.5405542771287415 5.28880883420735 -0.7245255579964555 0.10354346651130554 0.20177606233265893
Ni 6.343517787997326 4.796086891527686 0.6376189287987715 0.2126826819428337 1.268375583084293 -0.4301836112099172
Ni 8.79269882927574 8.847092411406663 3.5051495967479736 0.6435365797468982 0.6903694809400368 -1.0779702244824207
Ni 7.859728424225579 3.2673546610548247 7.5769543591322215 -0.3391213078847579 -0.10432585320328483 -0.8307684257167951
Ni 8.279453007530359 1.490953482904248 11.341249791239616 -1.8768438583731484 -1.1768129430839473 -0.8940594724659571
Ni 1.627583984145378 5.314970221528811 2.068716214311743 1.2019503615815235 -1.236543783285677 -0.4721332161688256
Ni 3.165823695537994 1.2188088186904518 5.187604397634045 -0.0193578357013215 -1.7648980267307603 0.24804306371999865
Ni 3.282899671443191 0.6457756404136842 11.634870943174883 0.9239806855054216 1.023728689530037 -2.0369168845400663
Ni 9.194831782033303 8.014397091321312 5.502833207037331 0.279579443765383 -0.14427462568208058 1.4127718219459025
Ni 3.9223568372573667 4.5520460432224805 1.619400294355644 -0.4728634094666308 -0.5771236995393029 -0.09817885976528253
Ni 0.8215589155755296 4.17946814612251 7.34886505440148 -0.45044338990021776 0.12568837803946095 -0.10733507234325386
Ni 3.617373222312912 5.585217110686218 10.679504001613658 0.7495493337343028 0.030508710111818424 0.3020308307903637
P 9.462734360826934 3.9355575372819573 13.087860552414332 -0.3114001878204056 0.3548176355740922 -0.9312329961924608
P 9.049847349416497 3.8791080321732783 5.3583846167893885 -0.2802697849641883 0.9820824747441603 2.3185082165291555
P 1.362221074912503 7.136499374182058 12.264020585643573 -0.2950410297360918 0.39842740184424286 0.45118232494877136
P 5.772752636969321 2.639935342902256 0.2761541791613637 -1.412063225914652 1.8751932101436029 1.6031568688328002
P 5.132151224429969 8.392975306614279 2.26162225794805 -0.0909975115254949 0.3314889881504807 -0.6364832724445426
P 0.7896995516754479 0.9040442199504686 4.842801926935357 1.7230427812578712 -2.2566107076934103 -1.070652607775085
P 2.3441708214915358 1.9262788935108173 7.044828466421439 -0.8462624075873361 1.043091410327365 0.16941692927566307
P 7.621101816522424 8.847436615706107 12.010851811429887 -0.15734405727152903 -0.15169302963333878 0.29037344905709345
Ni 1.1410930695675268 7.315178616868679 7.30287191774075 1.5826430651501648 -0.6966658554717099 1.184517767927373
Ni 5.867027403741134 1.50377276735378 11.460876600088254 -1.3879570768950678 -0.7564835989602907 -1.75087702986132
Ni 7.374539904294269 1.930362831009616 2.712570822621778 1.238017539617726 -2.979477904150836 2.499062136258244
Ni 2.1334340648621817 -0.1845418791598384 2.708323155510271 0.15955212066644134 0.9319986707138916 0.35104711278806644
Ni 5.604929783943517 6.250070972107957 2.8309454720459546 -1.2784504508217918 -0.2658993751751292 -0.04838250506844571
Ni 1.8159567641298298 2.8938743905211792 4.795419879412279 -3.0556920867195694 1.856386876070377 -1.1439035939504363
Ni 0.6591456517423253 7.795632001977919 1.3353936057575244 -0.26893944755303356 -0.3799967059428811 -0.9550280417295295
Ni 5.550396659529035 1.2283256024291103 6.1280077549883964 -0.20259830112363816 2.0987886823441984 -0.049040707477734896
Ni 6.683852114776484 3.7185506807113957 4.634660656780183 1.1316399460917348 -0.4882026109268625 0.8359132031425281
Ni 6.210236301561588 8.225626897352571 0.12084454784315413 -1.0882170990214097 -0.6712361025446956 0.6383444940229974
Ni 2.5083841807826386 7.795845966812708 4.637818963798047 1.0958311639232419 -0.0232276030693729 2.1049449317535815
Ni 5.996429614693957 1.9585596751072443 8.575373816298665 1.5037765325602488 0.3442254618805426 -0.343526378930989
Ni 8.369364752236256 1.824152547584139 5.365424059853947 -1.3689962195218486 0.83280962451654 0.2550524051582962
Ni 1.576641747827789 4.53377530689528 10.63140005534364 -0.560120737223403 -0.554805752768393 -1.3835921150581527
Ni 7.9989823203976 3.080981987134705 0.9625738353660533 0.6884352400318015 -0.600929800819965 -1.921155278696014
Ni 1.330024018686211 2.451032302240283 8.986578878051281 -0.023551047847062665 -0.4797228555906255 0.48248910548185286
Ni 3.141822422766011 4.372008588975895 7.2257803877662745 0.2427224228380336 0.5528974800020865 1.8478418147138433
Ni 4.460441185476078 3.297412068933227 12.341752149558634 1.985288361730497 0.18297384202449132 1.8999616753375344
Ni 3.7772514679948115 6.890170032426501 8.609698427208272 -1.7452319157604008 0.08456641118817049 -1.2762351883380278
Ni 2.0780171726518315 9.195994634396286 8.74646754045107 2.520258824940518 0.1765082889048057 -0.21264642938825956
Ni 0.8866051556332749 6.8674618514821555 3.4743786626596447 -1.5884506729708774 0.35732291849444914 -0.4922202167266878
Ni 8.552360502894272 3.426637526326877 9.967978828033095 -0.26923975240227177 1.1820636499599255 -0.24837705002064966
Ni 6.936144563449424 1.1301529545365763 13.384559076843 2.783353383677 -1.7321809961137138 1.4525218481503308
Ni 9.270835812477916 8.798345640350387 9.341088840276157 -1.66217705612075 0.11111690798318928 -0.9577099594370668
P 2.3505153439839743 3.0662277163531684 2.5014610229543788 -1.2680649938224098 0.904190904473004 0.6718061161155526
P 4.647027824230987 8.959656520143483 10.165963280509024 0.29740618753415876 0.1355308180511795 -0.10502545037347073
P 5.419812990575419 1.8323855423140634 3.9428779254774127 0.07469157527661975 0.3697359474468213 -0.18434398289914058
P 6.815747481195546 5.348758059787666 10.359550290489096 0.207036796510966 -2.7863260931520784 0.7033016156206726
P 1.8494562150026637 5.679873293033089 8.740462570848623 0.8648273150737171 -0.9900192130927337 -0.7505700616893333
P 5.805889277904904 6.924711399016568 6.887159640229209 -0.369347453759151 1.6434751088358728 -0.03744194689654196
P 4.6702383573961415 6.272537279760802 0.5038229964776504 1.030475264225251 1.0917827048854811 1.211684301039836
P 3.386012116173679 3.080433120819377 10.618655193445338 -3.258632344563659 -0.6686205192987195 -1.7788465184910527
