# total energy = -340896.8626647645 ev
CRYSTAL
PRIMVEC
9.02476229188026 0.00000000000000 0.00000000000000
0.00000000000000 9.02476229188026 0.00000000000000
0.00000000000000 0.00000000000000 13.20865185112715
PRIMCOORD
 96 1
Ni 6.3142109796691335 2.044406457845432 11.326524202462009 0.8041562224459052 -0.5034482242320233 0.8552144745743014
Ni 4.586375130645825 0.4045485032317952 6.05221762031539 -0.3718357673986435 -0.2992632953475556 -0.43465630226929014
Ni 2.6019021186407407 1.4438446317813172 4.7608734203681635 1.1053992672276511 0.8193928368900016 1.1315432726128705
Ni 3.60402976402606 4.345341781526113 5.158573031558362 -0.8561421285948934 0.15970407286327334 -0.8686991393242974
Ni 5.021296471097269 4.526017520981581 2.5757402354685404 -0.04323669920144812 0.11910558261562067 -0.18672636708838808
Ni 7.086622327746786 6.050011065954906 2.6191439268440213 0.06158486269133265 0.945787754078184 0.035730620632390075
Ni 5.124169735535475 4.442114306709978 11.493191706014242 -0.03828963960881793 0.5336890253944356 -0.677687257486678
Ni 5.697558002583586 7.704737316310445 12.210367899458367 -0.11523015882061445 0.8449920255153447 0.42489073824209406
Ni 1.7226195364656034 6.4480211289651495 0.44676182847170287 0.9824465429517985 0.4325359134921777 -0.825695639179578
Ni 2.6684687647058523 1.4332676104705377 0.38162470474074456 1.0851217479255377 0.2535022870623569 0.14237123801178062
Ni 0.5343029243903835 9.159501910366545 4.610110255259605 -0.601609600495809 -0.2581708961826199 0.4759173658016062
Ni 8.654322796105868 2.576019100620847 1.3229651617805964 0.45853336599720385 0.17809697354816423 0.6984113774079069
Ni 6.931847655835633 0.8044176672574136 4.800129331031669 -0.2327743104863862 -0.4507966594745785 -0.4133387717384366
Ni 0.6113455144295165 7.455428260243647 2.325898718431319 0.3266745974809729 -0.12975971989535717 0.8909589791637624
Ni 7.659460084300052 3.9271974740241045 3.800194702863517 0.2858027989672755 -0.17845847065264103 -0.008130856637250513
Ni 7.573327753762441 3.958775116998864 12.588426018173495 0.791467057014011 -0.382024020785555 -0.014813153753432553
Ni 7.9826909676335704 8.781436571841645 6.905655088471917 -0.6032962441696126 -1.101859886615825 -0.7599018806132203
Ni 7.019180279747251 0.7120402012700923 0.5085002267541633 -1.481177049993178 -0.07331320687185439 -0.8314412834141035
Ni 1.9132044648282693 6.393583763311034 9.31316924395446 0.07334714543358335 0.7516712651733118 0.0006890556472246198
Ni -0.11773434037033965 5.186521817648254 1.4169057165827872 0.3071990052548645 -1.1959393795007534 -0.29953943182707765
Ni 6.378566558992658 1.9468307288248266 6.918480178049348 0.15336116136438105 0.6321288521305888 0.2956421536552005
Ni 3.227200817924009 4.189502187674114 0.29147906244809546 0.2589352851524702 0.4932933951862085 0.500508681987725
Ni 5.963824586844032 5.593439320960322 4.729119794530298 -0.05154110530208542 0.44980164255116084 0.8781091197842876
Ni 5.245137648205859 2.8776537279844883 9.352544281479148 -0.2624301856796061 0.49568889200157856 -0.47496554341129804
P 0.18796955227404497 5.577799408049417 12.426686034788231 -0.05549366219193023 -0.27450922833132724 -0.8392515234871418
P 3.9252842244354653 6.14738825020688 12.578849842991868 -0.14857453860901507 -0.35758851345100995 -0.12940439343846746
P 2.4465859609969542 8.445210030924917 1.490887107280097 -0.5279973743262971 -0.03133891932259764 -0.9141963524251481
P 6.217582850680637 7.674206545752112 5.776751193457495 0.3940781237366116 0.2273305137629956 -0.9890447649946063
P 4.876060972842681 1.0287416691442688 12.656939305447425 -0.6278713624058154 -0.8734083718745087 0.15786059189663135
P 4.123531175914899 6.192737680314957 8.18915316015328 0.045430878639289504 0.12151907715311976 -0.21601791696365377
P 4.755219406843246 1.0147262134312647 3.914595296073275 0.18536239686132594 0.3525064709424123 -0.4270188403286904
P 0.20103379805005572 5.699904440758331 3.620253579051989 -0.8220158763351456 -0.7689735038971853 0.2691623621971171
Ni 1.549488498218166 1.1251983276507644 2.6582283670255267 -0.6207676614814986 0.0867464495586248 -1.0601213692264582
Ni 1.8296532162828787 6.579575087708523 4.794581809700836 -0.21986017352787943 0.04285540460262941 -0.15901270322320354
Ni 6.089783193016857 5.485782932550518 9.043158285852853 -0.08473507555555085 0.8704832278079139 0.7018949650811331
Ni 8.730383492016491 2.120422029945003 10.053976777246943 0.2512266036543028 0.846108398507975 0.4106694524363895
Ni 2.3831689569433294 5.413620933914857 7.093864699420763 -1.1640664420515565 -1.2391398261476272 -0.2834471542509054
Ni 0.6987602636772491 -0.1540400562672129 9.08369571275026 -0.24159859364623554 0.2699288080494964 0.1263784621279501
Ni 1.4463715652002747 0.911519032791268 11.441189221204537 -0.09045038077277326 0.3178888808685429 -0.24675519814651048
Ni 3.83540661758047 6.661294309525171 1.5787377525426 0.8075953300344414 0.5789684660575255 0.38942211302183904
Ni 5.633635611846168 8.040368222921279 7.769897001946931 -0.1655528183345665 -0.2663513751108832 1.8875987828968073
Ni 5.448357243663314 2.9876024059957755 4.774161480246995 0.32461951472415707 -0.4367293827482349 0.06031987993597999
Ni 0.8414390467975845 7.340867928742762 6.897874840970191 -0.5666518534737015 -0.17776504413004224 0.5335082768421973
Ni 5.067999615536932 4.4803071003850805 7.070155746617393 0.04392575484867274 0.09705760167664575 0.04899134229703821
Ni 8.228696960731304 7.093318701307024 9.163594640029034 0.18122009255817823 -0.04344033057182196 -0.161524928122096
Ni 4.619405760336485 0.2618841597309967 10.345597528461743 0.13036675735173675 -0.5083366626725762 0.25501898081719954
Ni 8.123251639063087 7.263679137555819 4.749791914849813 -0.01885261393012882 -0.1732609856121016 0.017217135209234864
Ni 7.370044984969512 6.15750500864492 6.953853636009869 -0.1413944759208081 0.10372164396038266 0.0773755498666861
Ni 2.1504022900084925 5.140053317026066 2.8265194252994394 0.8953686781956839 -0.5203701967983425 -1.188256923254831
Ni 2.2910351595356935 5.194680202686603 11.382370333497192 -0.15709363182361977 -0.13536266790443138 0.2732321613911165
Ni 1.1136195577346124 3.2174360252121796 3.9490563505743093 0.03769262945476735 0.8278988174784839 -1.1349836657529873
Ni 3.6873373439917656 2.679731667944635 2.8384339163698247 -0.17183248069569118 -0.46913273877960493 0.02928795033083988
Ni 1.1844910153741623 3.3465803724453336 8.267585563572839 -0.0878096007158165 -0.3745454530203227 -0.6788519672187405
Ni 3.483828956143573 2.680435599397059 7.265920888488922 -0.1306004706290977 0.305368379804029 -0.9405568446965478
Ni 3.915672852681216 6.77626978008774 5.9841266919129135 1.4735056494908494 1.1453819782681758 -0.3785766856669028
Ni 0.651586929126416 7.543085775594845 11.426170211933718 0.24450265466690796 -0.7211435288981 -0.1416515862369367
P 0.28202923393741514 5.479555846625229 8.120718388310582 0.3026622937267755 0.6640272435010822 -2.0939046147790195
P 8.516902741925627 1.432726124737904 7.907596823755699 0.400213290100072 2.1961707572397984 0.7515977316228992
P 1.9400441076424833 3.0887609656139747 10.393293396744568 -1.4918013624762436 0.7766978691246366 -0.6583651601192985
P 4.0213889172157495 6.068836719926141 3.7983726033732044 -1.1075196560047635 0.2985644695083181 -0.2467734529789557
P 6.990860575930504 3.834810983274573 10.30947140533286 0.36107467222739753 1.0787649524695744 -0.14386659161038448
P 6.441478176362491 7.745014830056188 10.050740497518234 -1.2241868043822208 0.022617737399515888 0.3541326936919256
P 2.336989248711879 8.558389573807585 5.821066385816244 0.2698958979290319 -0.5218861192222367 -0.3338436044255863
P 6.868692369886115 4.0566306136479975 1.5395738944536417 0.23018161005854548 -0.3904983768051533 0.23541689031555585
Ni 5.308708073217065 3.0061843913873245 0.23297152903701657 0.26856380938116975 -0.35939291364960035 1.0983881260171406
Ni 1.5174505923706676 1.1018061440009856 7.130056703313783 -0.0973404230243872 0.11743616533299776 -0.7192177726302968
Ni 6.818857632959387 0.9057251354520868 9.14024126285676 -0.632005182068531 -0.9496891460151193 -0.18693719754761354
Ni 2.7263716390488235 1.4078990038966455 9.260097324822803 -0.07546933398290874 -0.22790592665049136 0.13989655121904293
Ni 6.348658497026852 2.014651816837206 2.5518192007532225 0.1689183923726897 0.4828382612911556 0.0087566631467075
Ni 4.295804861752333 6.618679382366893 10.373678978556132 -0.19390900087975635 0.84137551180868 0.0010477245382240021
Ni 8.025459315749428 7.330164560761035 0.16039168391100703 0.23315534797488877 -0.23398067208966153 0.13650089527393267
Ni 7.687689540494693 3.888724912720475 8.083707838485063 0.5829598466051058 -0.959719533667928 0.758585475794642
Ni 3.253850940731801 8.372280927501357 12.473630140378916 0.009580444599583501 -0.5548684876855283 -0.08011248918187494
Ni 0.17745119191763398 4.7241200762656455 10.04511355827995 -0.7842211740848751 -0.6220077045361867 2.2917098653893886
Ni 8.764578316032313 2.4215422458626428 5.857720457534444 -0.6858880481299156 -0.6705938409750064 0.0672916832681228
Ni 3.613144773858729 2.5415084099276544 11.47963922060264 0.8515851053518302 -0.26084330080846047 0.43838491607378693
Ni 1.134990194649225 3.1978161921664157 12.459404407706405 -0.500192693409203 0.44488723596867896 0.36087001241575917
Ni 3.04940397761371 8.211576986817866 7.920753122106257 0.5605848213440152 0.18285891371318186 0.5497275669145372
Ni 5.484889481091672 7.833277004475492 3.5619635424101843 0.6355260507375958 0.01671885541657766 0.7217485094719506
Ni 3.0462182365533814 8.359655285168781 3.57603134174401 0.34300290232735126 -0.6618739446035052 0.522014674380301
Ni 3.373230495253126 4.334439868775753 9.08094767265714 0.12393745678662525 -0.12403875825117994 1.0634301218847169
Ni 7.2651772480827725 6.019001982999413 11.318599558764914 0.1866770019076914 -0.24093293503777863 -0.37648483613488065
Ni 0.5795864737343246 0.09412736737994938 0.4499854735333159 -0.42556796681477677 0.15309530929750406 -0.2309817373623377
Ni 4.594750109977228 0.21176153288975177 1.7954123659797823 0.14052364328008055 0.6246837087064532 -1.449562765522007
Ni 5.866483501640901 5.636947699577445 0.3593687386532755 0.0382929820429276 0.5462871737744204 0.039811475569983046
Ni 7.811364881828245 9.072773945523036 11.206761998022957 0.6001926655436244 -0.48823037884100434 0.5149536537684615
Ni 0.09539985885163874 4.797319922555521 5.843309717236618 0.1639754465451176 0.9848142718530266 -0.06293983405733031
Ni 7.809117716037816 8.843653282521267 2.5836648791656356 -0.07726344976885403 0.3142669678452394 0.5800994943381751
P 8.529059096623255 1.8397880242453408 3.4246996166161865 -1.0940910413036835 -1.4562959704807823 1.2160461775529572
P 1.9301168692108643 3.0643850828832444 1.6250474173498821 -0.8473852083378697 1.1456576005270656 0.05192882765880734
P 4.670170047770902 1.1565954753813126 8.228131108140701 0.6477056235229232 -1.4192528016845558 -0.5130214697427552
P 8.428026883676004 1.809645318462061 12.487828798764793 0.3262657920783284 -0.9007235147496939 -1.1634372931079897
P 6.25738205202922 7.709673861239624 1.344574954893789 -0.2905266868055061 -0.2172690157619355 0.48960129104660194
P 1.822027292214953 3.371985078068068 5.944593721049543 0.4459922961073996 -0.640101328813104 1.2123116502111895
P 6.947541717319803 4.111266524070745 6.106861653024127 0.06412819793847664 -0.8947521276576075 -1.6915069154331193
P 2.44010618172977 8.293945991513672 10.267098341801827 0.563631578590139 0.5443691308161013 0.46304590915557675
