# total energy = -340863.08959895134 ev
CRYSTAL
PRIMVEC
9.34566992484547 0.00000000000000 0.00000000000000
0.00000000000000 9.34566992484547 0.00000000000000
0.00000000000000 0.00000000000000 13.67833260980652
PRIMCOORD
 96 1
Ni 9.492397107030987 1.9942725397945675 1.02554804152777 -0.2573748826438858 0.452145203082673 -0.3288345812467692
Ni 4.152879342393145 7.95943618838455 10.555131569833618 -0.7166726376109399 0.16058030482063956 -0.7747597715616593
Ni 8.469242491612414 4.580406366177963 6.953613118141707 0.44269588474431504 -0.24871952096173297 0.1457229280928329
Ni 2.820710145558819 8.934797046979892 5.300079971439102 -0.4955245985095724 -0.6628360514064584 1.6365621837661233
Ni 3.9951431226703242 3.565447903425399 2.322635461990753 0.9956920951077949 0.7628180258187508 1.1206294539138442
Ni 3.6314283342372913 5.763194372346952 1.248360965765102 1.0380965282159347 -0.7681301820602836 -0.21806888595541152
Ni 0.4035955663938814 2.6608804957365844 5.692005599595758 1.4536616181817288 3.023538899025793 -1.3085804374379528
Ni 0.16568003929649044 3.0766693578925444 11.104029876467015 1.3455536722281922 0.11510854564108562 -1.2714441947072876
Ni 6.877478616780647 3.417814353066269 10.715592052386704 0.07070482271472985 -0.15295826949900757 -1.2808593173736005
Ni 8.224554157403212 6.995037800800873 6.307913295317589 0.028197545480138538 0.7676869238752779 0.1709225672869121
Ni 3.886780078015383 6.5340065497553415 12.51884750671281 -0.28968079386544304 0.11913335052976257 0.03880154624822995
Ni 5.045624477422321 0.38874342749214497 5.5806369874409425 -0.36775825489516023 3.302072160914849 -1.056919831570025
Ni 7.168035499775225 5.2791914642283855 13.653643627852729 -1.5834912720830727 -3.3744808536945627 -1.1169581757098441
Ni 6.120507376770616 7.798531786502349 11.927451634494297 -0.041513288752438184 0.096736213781485 -0.1487041222083439
Ni 7.4874611576675285 6.662481476436797 10.034780547046964 -0.679500656546333 0.8216304679712688 1.6292764487379876
Ni 1.5328020422549633 8.152162596911865 9.087638004711316 0.3599945517893413 -1.1014824486717483 0.8514200405288757
Ni 4.875738886586831 6.534847660063142 8.558929149166154 -1.5063905731443281 -1.4444575830849575 0.76565986614292
Ni 2.2939788338039966 3.761949962667728 0.8094565232167715 -1.2430993250160076 0.8748114228696224 -0.6179417619969294
Ni 5.731820957866 7.86465240236554 6.000437945765111 1.6232227863447402 -3.479640258542736 0.7789473272804456
Ni 2.3770992235548416 0.1864545293321498 11.359130221719775 -0.7837354926977083 -0.12044949823802482 -1.6134500232286924
Ni 2.5810497818562466 5.348255966168878 8.393927605517955 0.7272265018673864 1.466792242026416 0.352004077384697
Ni 5.772325092021628 0.6983365058862622 10.349861402915975 -1.2321245711720588 -2.282877868920056 -0.2604902883444159
Ni 0.28762140802035535 7.47370433129995 11.451787867794065 0.05398185353309412 0.8864356373721121 -1.1472126037190113
Ni 1.8850964218420856 5.945734000479796 2.880069169114305 -0.701984953691778 0.5300591419513322 0.07584008705876616
P 5.406778552251607 5.519300420095118 2.5201375079323562 -0.2857472631389918 -0.45120855020101647 -0.062408644144208644
P 4.0966464454816505 2.1811672501877997 0.48516364034333076 0.965773967392124 0.22106987756526442 -1.2364442815933352
P 9.329950669584486 0.11418446255192861 3.6850930410089693 -0.5479535057332499 -0.29756276771668105 -0.5404808515052885
P 7.580207587607644 3.3248062443637263 5.212046562923694 0.5214559736633536 0.2970943127206948 2.103188868294423
P 2.430089172946262 6.337803551955787 10.597794553779266 0.2718702480465834 0.7978094542922711 0.03857888871446259
P 8.427168284882224 3.21269558600403 8.646922371300189 0.9841624972016406 1.3493617331203729 1.9803526149917765
P 1.643034220927239 0.27464120683697907 7.564295649718079 0.7019199047817976 0.3725808730947841 0.6894222865354191
P 9.16891542832107 6.857862055268726 8.361906536099998 -0.32528748732545915 0.5851820510674051 -0.6912817083416611
Ni 2.9626241458249067 4.093543683012876 12.169435331780416 -0.13778618974425946 0.5271339978847374 -2.0273107289088697
Ni 2.345707117733716 4.482473089339745 4.732716489848462 -0.35762605155716476 -1.2752093181766748 -0.8682569095805562
Ni 8.790752233934043 4.094478250021543 3.528913809922588 -0.08472093448816377 0.32023989759922267 -0.5608506734108921
Ni 4.173897754418067 9.505854871955792 12.786765438489438 1.1844275222064118 -0.32329899614052066 0.017926245461117516
Ni 1.9379368405121191 8.526213696460756 2.873092626394606 -0.331579490981758 0.3524373082673737 -0.4560733344924855
Ni 6.179422480996985 3.4434588717840917 3.6856266787709178 -0.4448936637265822 0.3735969730641243 -1.8256475380049915
Ni 7.066681707685286 1.1008358251789772 12.11626688009034 -1.280510161564298 -1.589840097119236 0.1358486064019144
Ni 5.50048758621065 2.5865169988569487 6.4517001678690455 0.3978671584653986 0.844072599024869 0.08234523516713561
Ni 4.989064482057794 4.124973171514347 13.202723457273967 0.3432116759040476 -0.4635773561790145 1.3311390394647589
Ni 4.702629039571437 7.642346948013914 3.1281939062143747 -0.7969571335943049 -0.1730630106686826 0.6575316084744095
Ni 3.8359115957336365 3.3104606407806876 8.320939791275078 -0.11444931479053191 0.3394658357083702 -1.8984141283447562
Ni 1.5060734258070863 5.805866701962688 12.660952158648664 0.2449795943033265 3.175013642000738 0.4121095273170257
Ni 0.42196728465025773 0.3027034504062239 5.841838186126282 -0.38163938375262657 0.004181385071199251 -0.7856594491932986
Ni 7.541469785098396 1.4050093494898341 9.132010311715817 -0.5657463109402967 -0.3064371873881755 1.0164591524518172
Ni 3.736193295908865 8.966488214243792 1.3502857782973365 0.20437081964302864 -1.1446540989632157 -0.60600207313655
Ni 0.793333373183248 1.265702791177927 9.576187581327046 -0.18567015790973185 -1.0805672957856358 -0.04118264488589682
Ni 3.7851459158228433 2.254540106038248 4.510594210630536 1.0387519024117466 1.3953315149822678 0.5200030432669108
Ni 4.6184338977606245 2.196690408201759 11.53440452592724 -0.8472587100623344 -0.16178306687948912 1.2493599612137387
Ni 7.8870539735632885 3.093482218378464 12.658695179322734 1.4632441196638413 0.6226509945471406 2.1630629189422357
Ni 4.658461402741834 3.9756667462097037 10.20108207340422 0.17584802961298746 2.404934049523568 1.2046083680296609
Ni 2.010786338837714 6.9942808015238525 6.726128293428048 0.2334345697782044 -0.20789245964304195 0.18426093626703105
Ni 8.386533311345381 5.117100162245177 11.81571293380405 0.7894731665124339 1.76376571289853 -0.13877323624787713
Ni 0.9249933042302414 7.622590201450694 4.821324657074202 -1.3023655668764924 -1.4475423926578683 -1.391710887510545
Ni 1.5914087393684724 3.3996837530981288 8.8028137557479 -2.4021022365017273 -0.27542968326306755 -0.6190139120151855
P 0.6439624627550059 4.070786976351834 13.062151495232323 -1.4552726714225905 -2.991497811429848 -0.005785239223209391
P 5.383059241571639 2.0024406554503176 8.676138805125138 1.6744347904421808 -0.08678578743699247 -0.1404933042627774
P 3.3148904884017694 6.585800253375669 4.6558857360659465 -1.0098737859248157 0.1483336262428026 0.2190803579390614
P 1.4610272959893358 3.6560167922353206 2.7744173033515063 0.39355387580202544 -0.8281207036813027 0.44399814849550634
P 2.3190906493268795 7.24119340521368 0.7140241476937469 -0.7903745952807807 1.1547027414484694 0.10074919159562004
P 1.22151646300815 4.719385826036837 6.456104782180893 0.4214392893583839 0.26664165265779244 1.8766001177934584
P 4.4865010731471004 8.410691868519423 7.795241176064831 0.09375064879059984 0.7629180417317248 -0.6956978351314858
P 4.6391812853530325 5.002830654095459 7.04211194102743 -1.608140695200637 -0.8279834067724902 1.4548001026615462
Ni 3.718567362125405 0.6622341823414549 9.00387182915748 -1.6566604971778953 -0.044090562561311164 0.18117201292906215
Ni 2.3521836671037786 2.0151040384177556 12.825749032121966 -1.1247987548001854 -1.0848762075736347 0.2868276406873641
Ni 6.98070154288792 8.471765822535815 3.1120941203560677 1.2564621194761587 1.7527194823866976 -1.0118165114734832
Ni 6.758489545237162 2.038262608892525 0.52652290331189 -0.13769157314792416 0.34595555719777193 0.278619650955275
Ni 6.25867376333195 9.136953236624656 0.7069233075618947 0.9761499113098092 -0.9075361667961532 -0.7184649536246723
Ni 8.993590657495135 5.118389864717137 9.630709286045672 1.3383664104511337 -1.5709072647704752 -1.3548559234657247
Ni 6.580071357612539 7.989323641321722 8.490168381503477 0.6834311019489907 1.9751998671462434 -0.9928384277090836
Ni 7.173913926259742 1.3807199529345782 4.156831626272798 0.5624198176702249 -1.1859938382522672 0.8230206634505762
Ni 6.46752145275877 4.821468580393536 8.67340332749077 0.6079805370191593 -0.7888910687567188 -0.3957801940293829
Ni 4.660881931294281 4.583069882152665 4.897198414239843 -1.6491775585372888 1.0056744031314873 -0.4674136992059692
Ni 6.399213950095297 5.2659860323959204 6.085244294399591 2.3486875683260133 0.3932854526319872 0.08538916419978197
Ni 5.296546373579332 1.3409354353756229 2.0583427156407446 -1.1126906586827416 0.16219187228213358 2.774833519131447
Ni 1.536409470908418 1.6906317186786508 3.9636799897565402 -0.2604110983670483 -0.3042049556235471 -0.12503994582218464
Ni 8.123536809436393 7.168923338433459 13.258380660908122 0.45696165063470984 2.0811856245504545 -0.3404040312519234
Ni -0.019924968624781006 0.899697379006651 12.200990986828058 0.29139237723991107 -0.32894051069701413 -0.6852149333222909
Ni 8.260534987236893 1.8737601240269546 6.993376140659462 -2.0271016982218573 0.7921075188114874 -0.6501137187437835
Ni 1.405897188148068 -0.2829924976264276 13.540646999968814 0.6596370848531865 -0.47617704722089604 1.0227298159518774
Ni 0.18386390958412477 7.412415426871567 1.3941365969110018 0.2777912415167087 0.14362979300923004 0.80013064622628
Ni 2.7144685680135514 1.9737494482842397 6.7376047762944795 -0.39067115493759175 -0.28445785490360687 -0.5615446141541232
Ni 2.5076488889955386 1.5491569649066361 1.8219542710355154 -0.26374890449102967 -0.016407751934062065 0.005453052694771254
Ni 8.744743500097366 9.173233127901112 7.939164495399554 0.47611534074502515 -2.237291438539508 0.34381845625011104
Ni 7.560815322177803 5.987434380406518 1.9378368418421918 -0.009119702913081068 -0.17400866241140353 0.7261191277358203
Ni 5.692765402573804 6.941047864710178 0.5844679269832629 -0.66343897509778 -0.28397911549497545 0.30931913692166085
Ni 6.6295379893812845 6.5132124338125 4.020417552852715 0.07508109740555458 -1.4210579732140944 2.0426255048890694
P 8.45954168606245 9.377725735067543 0.5631214819382994 0.1525666904875437 0.0918392907004999 -0.6632512845670061
P 2.3910523089942406 2.496705109324048 10.53007302463023 0.9443301956960511 -0.8318698863110899 1.0856483098529688
P 7.443788841352519 9.448565914324503 6.049543834668512 -0.8098370748807666 -1.5847721956780254 0.10648352297623596
P 7.87119437142621 8.947619306338805 10.506983612114102 0.1387884057565287 -0.4729199737361791 0.3744688341461163
P 5.6826346961998535 5.521076097411585 11.711416190203819 1.1094022177394571 0.41731832521147477 -0.7956250450464426
P 3.6671661766487182 0.426092463426514 3.627384462790789 0.997631735332669 -0.34678139553317694 -2.404479221374336
P 7.416312571297708 3.5521957432425006 1.8235000448678504 0.8053466432095806 0.7302874001808971 -0.42849208244010717
P 8.841517913844836 6.476343765320586 3.525426005846242 0.8586145013947858 0.5641887366451896 0.6371756705258769
