# total energy = -340892.5014519178 ev
CRYSTAL
PRIMVEC
9.04138617535076 0.00000000000000 0.00000000000000

0.00000000000000 9.04138617535076 0.00000000000000

0.00000000000000 0.00000000000000 13.23298258495050

PRIMCOORD
 96 1
Ni 6.283962397730347 2.0996630605939424 11.526629237981412 -0.5271124006181825 0.5825060468971387 -0.8473556406515149
Ni 4.959571089279766 0.37725093975307106 6.035921005631486 -1.8592423432413012 -1.6631964985242 -0.36169122276547383
Ni 2.826536271806154 1.5635359764178782 4.685944382193615 -0.7374222114534655 -1.374941124251374 2.472537607605154
Ni 3.7584500418146747 4.248963332043857 4.736071636187728 -1.2645616086548415 0.29005257538256496 0.37642904319628073
Ni 5.082199411837063 4.500594154508805 2.5773619940023287 -0.6706956566601933 -0.40145539003728925 -0.284390234890465
Ni 7.134973843014052 6.03064083602495 2.314276639217994 1.178725329615312 0.01078346376874917 1.4804653686381342
Ni 4.8307313343257405 4.600637094057318 11.665231881875746 1.279586621308764 -0.07327412610380285 -0.9367207587799093
Ni 5.446223707553484 7.863483545148837 12.196866301193099 0.1597675791113571 -0.10550701799557959 0.18202561917860907
Ni 1.7687392801678141 6.60082682244044 0.5464622928699551 0.1423910355061225 0.0013467438358815515 -0.26446881337618966
Ni 2.585863609552032 1.475906860276515 0.45633684996769325 1.004293720733877 -0.8555209500711266 -0.4007028281419809
Ni 0.5215758770446247 8.89582903431731 4.771786920399616 -0.02939208000887196 0.4154684164869296 0.4671365342851826
Ni 8.558314083269325 2.2773534257947485 1.2758607632792653 0.8189403227336154 0.36067743678897884 1.2644281684007708
Ni 7.0111430160771855 0.5885092599165306 4.756026879918187 0.6620621493549115 1.0289182041507765 -0.2684820483006409
Ni 0.7578499048576842 7.511773617590126 2.7435942103292232 0.9956879813427368 -1.0155021878551864 -0.055292601924717674
Ni 7.6585786071472155 4.081317947036309 3.8888033248374243 1.6490556882474436 -1.274164164741612 -1.6051571870922807
Ni 7.529910638533128 3.9696477846898404 12.744632361969325 0.6135935123305626 -0.35111216169804693 0.14802972184913862
Ni 7.8926510573931665 8.994036572444372 7.0977224272676604 0.3648343963801459 -1.2171666643106456 -0.3336708262931479
Ni 6.799068258729702 0.9605840060056592 0.3351226002296825 0.4250948838331001 -2.008774103557263 -0.0761704738149914
Ni 1.8552110988611694 6.743328112112748 9.11797499187836 -0.9487815465991853 -1.4335244811122214 -0.7756578578958965
Ni 0.13791188198005253 4.658737042501849 1.5358196066767156 0.19374882115280823 -0.009457802978790165 -0.2946728477633957
Ni 6.368200994004499 1.877163584828073 6.82574486904492 1.6558889091191933 1.7275681799320506 2.0081513823716
Ni 3.400953627015923 4.459012818857327 0.4154535093395446 -0.03530047507350695 -0.3336597705495544 0.3420911891463592
Ni 6.011735297245379 5.4781669253957705 4.686579991651388 -0.42538670404190604 1.1755417896810076 0.7401270119791382
Ni 5.165045634619079 3.091168607788568 9.45479375618028 0.40854777810769644 -1.2304011607230487 -0.32664297291208905
P 0.20092401560819972 5.6072417563939245 12.557942200832994 -0.7019003643977718 0.053744283600991316 0.10643004403048122
P 3.852371962829582 6.287814028299499 12.52448907147651 0.20815136973138346 0.3754656508417469 1.2421649861271962
P 2.361176118298522 8.605058050505276 1.5563842398446406 1.0232180684422054 -1.1323459710198238 0.5324757218126249
P 6.59599872214953 7.805492093340057 5.8575398785164 -1.0453958900908253 -0.7291208906766217 -0.7888486455545576
P 4.720471628244032 0.8636232750510995 12.60678467383209 -0.42294312759742 0.8895921807232228 -0.23376341387253288
P 4.175728102912094 6.111308084705639 8.062247573566966 -0.44347801432597816 0.3928419373366654 0.2322330932709355
P 4.828868808745352 1.0724078719194416 3.9080171748902526 0.5405937229340689 -0.26513575753622726 0.09328707889061999
P 0.3600334277980568 5.463230555207416 3.5957982144675555 0.4385605224197027 0.7427711344702046 -0.5532903445651309
Ni 1.342356543053643 1.0954091586986026 2.7680357899479757 -0.13233236571853985 0.3870191600073012 -0.5330025408503724
Ni 2.1177548746053816 6.281078195496639 4.719834210508996 -0.5358112139437611 0.9868809245740681 0.7077223703961876
Ni 5.88652113820269 5.470445581484842 9.220490750583357 -0.10373167126271167 1.0946294303056567 0.3242844999822415
Ni 8.413941226630314 2.1933770297236608 10.351805062606411 0.7368244299684665 0.9547657892070781 -0.3842392832693189
Ni 2.59093582727338 5.216075218967187 6.966795016214063 -1.059415344298369 -0.8958715859740313 0.4177754673535515
Ni 0.39450642553059806 9.010094074535486 9.405845498961323 -0.4651038201258699 -0.07679216655939032 -0.02861766373669265
Ni 1.610786261287334 1.1394407100407857 11.496326127616227 -0.7242990438079462 0.2437308094978899 -0.9611786347119575
Ni 4.267317346258361 6.824103857429189 1.4793552450161267 -0.6041912451800563 1.1512736611622625 0.6043385693911979
Ni 5.813394405706679 7.73347745136049 7.873055660837948 -1.0204801006857522 -0.2589085456795928 -0.36303153884345224
Ni 5.621283029337334 2.966641594105634 4.825962907184494 0.265385154542872 -0.8821220975984227 -0.7415444611519552
Ni 0.5114703195630728 7.356994125305356 6.929941421465424 1.1393314011987217 -0.8886359874575406 -0.37882633978386376
Ni 5.29823429638945 4.429827223840372 7.0329336612290945 0.4237010888093671 0.5092332063449165 -0.04302046942558397
Ni 7.936085877238719 6.9810171168837245 8.995953346342636 1.6256576210384777 0.07025282277897578 -0.10041983328065932
Ni 4.34163754174763 0.5255495663289963 10.344606310824348 -0.22123494238821897 -0.7089084202844887 0.538824289738472
Ni 8.038678487727376 6.929481214902115 4.542922308669701 0.7455715800334772 0.49246858529206805 -0.658590388756227
Ni 7.482208284348045 5.982757654113614 6.748437399517978 -0.4194497697321808 -0.5140511965588502 0.916851016439176
Ni 2.4390495786086297 5.4437644504764675 2.5589546356085813 0.05507740059011805 -1.0039011132811484 -0.59785656121128
Ni 2.1517052802090566 5.447643205204558 11.50114247410493 -0.5614908780980523 -0.7661121231889904 -0.28244750934179746
Ni 1.539051902283457 3.5004450419993693 3.8963456492993647 -1.550188801276201 0.04964260272779192 -0.7370622570108855
Ni 3.4755631468671955 2.428444032463993 2.76455576035627 2.4573817258003228 0.815164400630951 -1.0262712534462326
Ni 0.9346261859022901 3.181962209139328 8.155023950936071 0.10235304574763018 1.0782473894032076 -0.4632341139069828
Ni 3.9587800383421388 2.59449813348053 6.709837008933753 -1.1502218228589802 -0.24155539911312593 0.670067279047575
Ni 4.142419635736611 6.807992107020201 5.907163527292903 0.9658248752347173 1.165223181363819 0.3751784586186313
Ni 0.5658054347470529 7.57083195298379 11.455951817037477 0.18652633526244003 -0.4724386632243863 -0.38899171035263974
P 0.37169862441852597 5.3349784903637065 8.016593997520308 -0.12366543407216123 1.5969926490036175 -0.6085883458064874
P 8.460178876232762 1.6259667489061276 8.109436377009496 -0.5003898970216737 1.1264799991573502 0.8403822946574753
P 1.749490168708367 3.25293709169295 10.385429978302835 0.4082014505118712 0.1979857420522913 0.3271080854739657
P 4.183368074346211 6.180266738111558 3.7489565861864835 -0.4229739808353555 0.22592206345124316 -0.618762972346644
P 6.922474140509877 4.070513490392796 10.549174909255143 -0.3358171832121894 -0.9817487455538253 -0.04450296750838142
P 6.235518649867633 7.664979908656511 9.97003342969706 -0.5930771375447657 0.1596462230421444 2.518978415566197
P 2.323997937781262 8.239731795159845 5.856548038437912 0.06509159029301048 0.5597353288595264 0.11641569448828337
P 6.875612635251862 3.80347614565124 1.6622344618217126 0.5695476869642578 0.9525741808723981 -0.8068939330920425
Ni 5.286046507640114 2.792902314723418 0.4454654870654671 -0.8693185180758513 0.9272899523843127 0.5271370832085309
Ni 1.295259961751501 0.7426793627638344 7.239407279755945 0.0460649126788626 0.06595625228615093 -1.9607281558926295
Ni 6.651585165199169 0.6805532849943184 9.211902337725054 -0.2759071371201184 0.7115566565406132 -0.4616364304025598
Ni 2.375985909078501 1.5954339873286016 9.050884288884616 2.0387133143188563 -0.48049392942869507 1.2803412400866012
Ni 6.38235076358366 1.8500303845040704 2.5419767203908497 0.8962965893265918 0.772515969832805 1.1410990346221057
Ni 3.928328649241426 6.775660109566475 10.375690596966942 1.2164747804499438 1.1561831826487379 -0.4138995293379129
Ni 7.856042484213597 7.348576594648359 -0.07404714562263065 0.5246724237181222 0.39950649384103454 1.2055627615231304
Ni 7.498880600708411 3.9145857420463295 8.368816571682942 0.8790018068018861 -0.8357784773368767 -0.4911534660250703
Ni 2.8927553851593673 8.356546506318162 12.45472483055014 1.1617359941461671 -0.2900289212334811 -0.09549565650616457
Ni 0.13286950083353602 5.009515707270367 10.108450725171984 -0.369963232966279 -0.7818786419946278 1.0406727735835433
Ni 8.828289878562463 2.377034709890758 5.850195560414705 0.19098231415126465 -0.367280029707161 -0.11357976770138503
Ni 3.651743600553803 2.6328426528321107 11.742141530404934 -0.7099168069443451 -0.07588893801883059 -0.7291491728113959
Ni 0.9763160181895192 3.3521753478596445 12.555374447120226 0.4493403866440261 0.46099879681856093 0.0024451191063828855
Ni 3.3165794099470824 8.398588952671581 7.96923340773784 0.21629225367096297 -0.1096593496010563 -0.012880455507093946
Ni 5.718315187243764 7.9874771170393295 3.574546435939875 0.8708506384496614 -0.9982901948522742 0.04660073057767458
Ni 3.45381861278548 8.36045238520519 3.6262477952910057 -2.0813979976715764 -0.09002743430274174 0.12341655128614873
Ni 3.4219567674200078 4.550412193091029 9.493183482463422 -0.9718579688026747 -0.18981786152951824 -0.2747169734667591
Ni 7.028258360366868 6.036445406037615 11.477839205022928 0.5791042203044413 0.054441823888648176 -1.730130541342588
Ni 0.6380171789482333 8.921162998765114 0.3422508291985074 -1.1201157475022192 0.39365003506025753 -0.08931189629295586
Ni 4.7624055779617 0.4430749445244254 1.5552594913873579 -1.3613158201584556 -1.1119326974707948 0.3035498385380514
Ni 5.9969616720106504 5.70528654956736 0.36361833747098815 -0.8100155094401599 -0.6994950973903888 -0.6038590586516182
Ni 7.504070356451821 9.02877357865724 11.348367457165653 0.7070209734537888 -0.6124691689181323 -0.0331641454567945
Ni 0.4391292835376228 4.838687754280795 5.8138446667450445 -0.6878361729952218 -0.5132148167004839 -0.11202193629596191
Ni 8.047041770066496 8.903505171296677 2.4888992620429473 -0.8756480598383047 0.3411797330756834 -0.2568192672507319
P 8.491073293262792 1.8124091760574947 3.624182742657217 0.08374777194161706 -0.7618543763539007 0.2482083856532693
P 2.020731758085265 3.113835363274164 1.5386649309492793 -2.601549907811526 2.584716124083639 -0.08425556481597102
P 4.607671292608492 1.2040323738577379 8.301222263471587 0.42406027192099865 0.30316957238049724 -1.0140945088743825
P 8.636965102802312 1.5873600293514825 12.506055493062455 -0.11399320108971982 -0.7094491232793072 -0.9845985562977947
P 6.369783236609197 7.827706779510024 1.4076190777349873 -0.34805640559085865 0.6128239811543899 -0.12322654676252973
P 1.9634274516362389 3.1847559975099102 5.999768118322071 0.4691764475333468 -0.3265995212686634 0.6100402477616655
P 7.245134093846323 3.943771337063284 5.988626417969099 -1.0873403528434111 -0.09656934918631756 0.9659835122997684
P 2.3664924534503093 8.401003002817037 10.244617619593713 -0.34303324134465435 1.5668989149420303 0.2177863217179862
