# total energy = -340861.85310155945 ev
CRYSTAL
PRIMVEC
9.25900294434043 0.00000000000000 0.00000000000000
0.00000000000000 9.25900294434043 0.00000000000000
0.00000000000000 0.00000000000000 13.55148672340519
PRIMCOORD
 96 1
Ni 2.6511581148804044 0.5060637732645183 8.660294599325168 -0.7308790110183091 0.9929543844616577 -1.4496643240968774
Ni 7.399174869186305 0.9614270977317897 4.379108444740454 -0.07184047898106984 -0.8765114362798647 0.11102409115906685
Ni 0.7309131064709657 2.2881589010493535 8.082160598267814 0.14095044640485405 -1.9723891371703255 0.760929036326154
Ni 1.583465439361624 1.8989567086405226 10.516157130158424 0.8529089663695764 0.3169601984066864 0.13896324077149616
Ni 0.4458811794632061 0.6373721765495027 4.239135466419043 0.07190141412599228 -0.7189832880219876 0.3933286471650968
Ni 7.931382363409204 1.0348972867829156 7.007026462013004 0.28385056033691114 -0.567984456242196 0.031152771453720543
Ni 8.05834181297052 2.9647605475409757 2.6072380340027714 -2.3603938010193475 -2.9597796543909607 0.18975049862669255
Ni 2.9320577488354207 2.869957615506385 7.3168539991378285 0.9150443022477401 -1.360662759955489 0.5568652064005829
Ni 3.1887543488673566 4.202939245869886 5.375102178487942 -0.7785513773936076 0.7648296569321409 -0.11481209744658936
Ni 1.1509218537645989 4.401998552033736 6.965193360418563 -0.18872977067166208 -0.5935908439563907 -2.0361134148021645
Ni 0.7695481484184935 6.00375052238162 10.592601310983113 -0.2579940042851235 -0.2365564032366378 0.009842182901402404
Ni 2.514263755066807 4.091321964330967 1.3686324956341316 -2.186427304699789 -0.2362864374047027 1.7423165418858189
Ni 1.8901884327701488 8.600262001372958 10.516726558844832 -0.021962363203704108 -0.5985589865949433 0.5179214781475339
Ni 1.2527523690997322 2.4075537451343276 2.9956643219576033 -1.5116014279213064 2.540778285050108 0.2315751479719625
Ni 5.882226107599513 1.5155599111321398 1.2466488343016853 0.002347931406886279 -0.38721944894356536 0.6594270257249095
Ni 7.820376176070334 7.517884547046983 7.290022334254243 -0.30113454422833946 1.097465099982239 0.9961016718413878
Ni 2.2777702996485516 6.523615765564174 6.21169013835252 0.3864805138950118 0.2977229474436292 0.6949709842677902
Ni 4.805728120198234 4.5001254661564625 12.705141923842243 -1.5653225715938461 0.5464465821704202 2.5292427736066827
Ni 3.2042446609382496 6.218503838683046 11.444474958951597 0.9361939397421618 -0.4944115679510518 -0.4722180625731481
Ni 5.970047751348716 2.838754775291855 4.119448963738592 0.03204365869910611 0.6738665981890073 -0.46940836103849476
Ni 6.882689162110073 5.443256773898961 5.953357472485003 0.48668360317917475 -1.4168737599294179 -0.4273877936323349
Ni 6.853402935522963 2.6860552973043106 9.132523197813438 -1.289039796301864 -1.2715881764843198 0.6122261996693907
Ni 1.4347751096865098 7.116349362600837 12.417213780686382 0.3580453984827705 0.7280808794478816 2.2125949642340927
Ni 5.7068605901920355 8.393258470608494 1.4844570681503448 -2.7312067835804315 -0.2912607367580532 1.7929991558423506
P 4.901095851417717 5.452506517926948 5.15533788974613 -1.3009838560376177 -0.4203686820020245 -0.9017301016373374
P 7.077313405822066 9.08926698745313 0.20236477024592386 1.4059198320210755 0.6265806686188499 -1.065307541413088
P 5.991473084362491 2.6430009332100775 7.039211682449125 -0.2330946699402824 0.10737466733193765 -0.26724560479037845
P 2.784024808375509 5.547290931955477 -0.01880873875720945 -0.26402889762529363 0.7527794106358261 -1.728670411857294
P 3.2153276875663774 8.518023536451459 6.664567420505963 -0.029502894555123383 0.19825056567790372 0.23485381872323421
P 6.331315531612966 7.299575773581647 9.062760313575932 0.7271671093843606 -0.4179875833643576 -1.0260172284538973
P 0.14443489188205824 2.206420422291529 5.8746105776065 0.4957464847123913 0.325311141474543 -0.5147034854308684
P 2.678666612885558 6.4894037493645635 9.354727233853923 0.5450885254806289 -0.3307194569743078 -0.2285528162058709
Ni 6.828848059484704 6.623048199114273 0.737128675205688 1.5767002173031686 -1.9661398138265045 -0.23995128785079964
Ni 4.721508228628096 3.7080177568528945 10.701419595905756 0.8156135723532275 0.2901029690045262 -2.348049677631698
Ni -0.03381387906927681 5.420775914539649 13.149170376798944 -0.9916539204826791 -1.2848671529814129 0.9803678060458988
Ni 6.471820902608661 0.13010102928973966 8.859406681806295 0.7872789870745925 0.29295740773418577 -0.10220983530154655
Ni 5.300279249093985 6.832783135772887 6.735508975829318 -1.0986578347387594 1.6375669708815541 2.2793788546278617
Ni 8.868171254075456 7.809709804578601 0.921855044677523 -2.837596718401597 -0.8437093021481793 1.1558931622121447
Ni 1.4477284549269038 1.9712232272976162 13.60135601142597 0.25689537190430595 1.7881600825824948 -0.6407078520488513
Ni 8.476487648854313 7.104905234854499 11.958848687436454 -2.4687927958507414 0.8926016569735079 0.45084936708938483
Ni 3.771256747554745 5.026527565478914 7.505165454583275 -0.44698525614828827 0.9752186577447914 1.308867115440436
Ni 8.528671389937129 8.170375749645835 9.894374337012247 -0.003618313478877639 -0.5717485512703185 -0.2025877596006769
Ni 9.092609487547326 4.093720046116 4.217046262887944 -1.031664913657978 -0.5944267095941247 2.77623065658929
Ni 3.103608556994118 7.390962133497792 1.0186912537777253 0.4268033818837746 1.5916588954955297 0.2080187008082611
Ni 5.226410922912525 0.5890068483166785 3.4532442517505 0.3908405906359204 -2.213559385029891 -1.2229886703090616
Ni 3.563984705702382 2.120857975281894 2.810876843065764 0.35766641787679687 -0.5487184089237324 1.1978785055049952
Ni 1.325129995793198 8.88513374762828 0.28982809057782677 1.060982688785489 0.8004502343492279 -1.867191422885049
Ni 4.7871638191210435 0.7124654688319659 7.398637847010505 -0.35157264627423324 0.743645566655358 -0.7787298119530007
Ni 8.243707053651496 6.256132427001102 4.25042404291446 0.6955949910050343 1.226485113498094 0.15946753137243505
Ni 4.0810166939574435 1.0808034238107016 10.687529239558623 -1.108586406706381 -1.4165441445041411 -1.3928498862109946
Ni 1.1219689512866065 6.092738800512731 1.4126201672338905 0.8870542447927173 -0.20213987342998088 1.3733254430248218
Ni 6.44315502922463 5.148857513524721 3.591821898315137 -1.356572134825883 -0.7740218649543701 -1.3516646702219368
Ni 7.193476857849214 2.552707135651593 13.248963911467253 1.8455381062813314 -0.7565918424033808 2.1761421207236973
Ni 7.1010257125845015 3.494051455809105 11.347987814265664 0.46218844625128785 1.8913207118330846 -1.5235637424895052
Ni 3.9910191844959515 4.512449199190747 3.2018095431410916 1.4682914522797614 -1.5133207246052582 0.25107567989873536
Ni 6.303121867383517 8.082424479854197 11.144525852160564 -0.1350729045781545 0.8457900959366079 -0.2974393547649393
P 3.6533896389698897 8.587104958065881 12.044087069340003 -0.2852620959724571 -1.6475760183781236 -1.8774323838867668
P 3.1703104148295695 2.9117342371823365 12.189752482724884 -2.6924985683769562 -0.2883178520796454 -0.6910168847160486
P 1.879244291187486 0.8295770427694908 1.9771212122283746 2.3221512125983814 2.118604688628861 -1.5678209125356677
P 4.1048030727441285 7.766257303354035 3.0164794866716345 2.1000593215265058 0.8897521033398548 -1.3974804430044707
P 8.80787662633747 5.8451808364724105 6.479345694371969 2.4274759393798258 -0.7255406295245311 -0.8281608128906189
P 3.4155443691091056 2.8631707662846484 9.423704028734097 -2.2264388120957204 -1.2346396242844284 -1.8680763965931633
P 0.3046165702189683 -0.0028073297190045806 8.482160640011418 0.4392572913764113 1.3727842258093712 0.41689537874144333
P 8.14593198164395 8.20525441406368 3.286248873083064 0.7958366468366166 0.6072991946814186 -0.2669203602404758
Ni 4.532717156825645 5.615502007284984 1.2648955515749118 1.8092094470536262 -0.40383828844716907 0.7880744863926944
Ni 5.092896099205249 7.036129360340099 12.882300910136827 -1.6906371112336562 0.9913181344098153 -0.16116805900330952
Ni 5.781525190634164 7.478052316007545 4.575740966209875 0.4518233009668799 0.6426618904514286 -1.6549607408779692
Ni 0.9493070627641874 7.38658262506412 4.509189104223525 -1.6719487907955335 0.3299488973568705 1.047508308448138
Ni 1.4935605199304418 4.2217905760410375 9.339901718200657 2.247089912687169 -0.5493012780103959 -0.22159721082364414
Ni 4.292473805179827 8.004713667414865 8.775359933592839 -0.9247903258909105 -0.4921443691834299 0.07546676287974745
Ni 0.950566287176406 8.670695237429909 6.603110787887582 0.5736398547557605 0.000538646112289395 -0.7955404557524363
Ni 1.4320066677802357 8.316612443517728 2.5275420913135895 -1.1496582370460264 -3.589726411268566 0.9416896727494105
Ni 7.728212059899582 5.761803514178095 9.565845465565372 0.4942385327082972 -0.6616584861585896 0.7584558921953131
Ni 8.30578866897447 5.062165468145301 2.1424221933411345 0.6481882195862966 2.6196890406143982 -1.2790562027265908
Ni 8.489496548112893 1.247437701359928 10.66319102419129 -0.46364626174373696 1.0138543678391185 -0.6193394136754043
Ni 8.92705851335273 1.0632020590487368 1.2898643050486573 -1.5057621955317098 0.29226526676316766 0.3066323341181171
Ni 5.107580878012443 5.896716447343055 9.996498362743464 -0.7300369747329878 0.005752071992428803 0.5123599248993563
Ni 0.5177014141742046 3.643871383854003 11.846899933589025 -0.22428401362718794 -0.6786347090016118 -0.6920360700091823
Ni 4.412831585580027 1.5747527175094362 5.167032936474608 0.22402278954600127 0.4086560215507865 2.389243892481821
Ni 2.871290911942851 6.34809284510517 3.856496055358598 -0.6193196161810625 0.03940009906417731 0.35329297139944965
Ni 2.885873841716704 8.87629139973366 4.308587248154708 0.13415990584558185 1.238441514529022 1.7138567438832288
Ni 6.055295392255296 4.795422849824711 8.010934791551406 -0.23901823451356904 -0.8834431304026914 0.3155435205648178
Ni 3.5019123493824393 0.4164801412385124 0.17308780266184573 0.9730699868329049 0.08277846604981229 1.5328636797341921
Ni 3.810227891312299 2.5411796768779755 0.6460099004771391 1.6058223314801054 0.7687603594451147 -0.2739001339924186
Ni 0.7493227821975383 6.199763616548266 8.27524229207484 -0.581314854802515 2.072665245784269 -0.06259941999877607
Ni 2.325731935349224 2.1267281832035594 5.104723549677071 -2.243081562858724 -0.6739427028425813 0.08291936250305075
Ni 5.124274860477368 2.207448171627972 12.330782839192437 2.2665462216395675 -2.060381543320909 1.2374004748590173
Ni 8.086516959193908 3.438654840674526 7.439508938190024 0.4207124384946883 1.8879091150483744 -2.270787770524741
P 6.405980132055093 8.92479931661316 6.186565833627853 -0.34687344102635104 0.225201897455767 -0.5862020076914872
P 5.6726948690075805 3.5466240750192237 1.9392991107469701 -0.27311106243221994 0.7097771960426873 0.6739445026147942
P 8.904920237105566 3.4623578884339317 0.7145792992239474 1.0129133440820877 -0.39669859207859415 -1.586263178401255
P 8.754239221778782 3.7123324522653482 9.63719441702209 -0.5063237460076054 -0.5546831111475995 1.1009908537473103
P 1.6828978729117237 4.517032405691101 3.5477518215884016 2.1162349028451035 0.7240180222324176 -0.9943232397847263
P 6.418683484213649 5.5654663549053645 12.125003348628674 3.1763938101777165 0.9371267359690763 -1.230695552035016
P 6.281057663160602 1.13228348066316 10.717193233469397 0.010388799433491785 0.6267632169433012 0.9925898020333872
P 0.13099359718192977 9.17998669915104 12.00985653513433 1.1064184525207847 -0.8732777598339153 -0.3781665947126778
