# total energy = -381176.50104310014 ev
CRYSTAL
PRIMVEC
9.18834233935783 0.00000000000000 0.00000000000000
0.00000000000000 9.18834233935783 0.00000000000000
0.00000000000000 0.00000000000000 13.44806778552717
PRIMCOORD
 96 1
Ni 2.0445440375207937 3.944996487524336 6.495887110882835 -0.7158653112182961 -1.1420868524566716 -0.3793333613272693
Ni 6.980714598520987 6.118315145568932 2.9124610901606514 -0.735769763451707 0.6323224561986336 0.9853017530124062
Ni 0.7267831925822292 0.038137134494905085 4.986813029675114 0.3226893875809797 -1.2130081620575819 -0.8991967936925224
Ni 5.515844714379121 5.776086139787302 6.263733529747164 -1.390454903616257 -2.0190888552197097 -0.18881024620061032
Ni 2.3324791273070513 4.150502956495822 9.585863303339002 0.025796906458445894 0.5435327509577348 0.14838993340203477
Ni 7.081225877430005 3.9572904898262165 1.3880286944181064 -0.008898330930894354 1.712684835062315 -0.38424879635101566
Ni 8.824612800267378 3.3087405208606735 6.046856486897818 0.9597763550477922 0.43112412074631556 0.5249125647533863
Ni 2.5972412172387935 2.8423953842167156 11.549900002467538 -1.2168997838025044 -0.51372312379547 0.735009745357231
Ni 6.799336717026884 7.003685454839897 7.607571809613205 0.3213207893682273 0.5853460874490951 1.9521774381091412
Ni 2.7097249064612257 8.926336940390033 13.022274924785918 -0.5309137766421437 -0.05576594201671041 0.39991812745715644
Ni 2.334381114210257 3.134584676593235 3.683372216565757 0.2020758529612649 -1.0124194351648048 1.3461236857990495
Ni 2.341281559448457 5.437798932949996 2.257513278293166 0.17799001565665476 1.0557728624497753 0.4279485512318114
Ni 1.7578218089481745 7.5605633304079385 7.215413350536795 0.669839222197169 0.4955533948649788 0.1377324536881886
Ni 3.5767828490747564 0.5511820220352048 6.887373902120481 0.20456622348328643 -0.38392072358763557 0.1589183437371844
Ni 8.307456129445994 2.6886284720179403 13.267056963891475 1.3667601311024784 -0.7846032400146422 -0.4944917863696839
Ni 3.687704520067503 4.295632826718688 13.293052622570457 -0.10953670798026297 -1.14574630358613 -0.07543359564896687
Ni 3.389441733280264 4.995150531684625 4.72873086476091 0.6821252386533736 0.9591433494494837 -0.04279781189181662
Ni 4.028141799056258 1.0836179876456744 10.334799589755187 -1.2334821136412177 -1.5795767675200152 -0.39418096786306306
Ni 7.226971366602218 8.299829805148114 1.2120838798605509 0.03735632916127115 -1.5883257173572387 1.5550880383500314
Ni 9.03439184851418 1.9953312749431633 3.945179335540635 0.5572519003160403 -1.0229339615428836 0.8852881540312303
Ni 7.804670026337718 1.1138660112464136 5.874358219622352 1.0128138423897461 -0.4942159070004779 1.1432703312418118
Ni 5.6174218410213355 0.8594775600282903 5.355491598256588 -0.9258565623718958 -0.8256812410018748 -1.15715531675402
Ni 7.0191126819436755 0.8540215222354233 13.394558080140955 -0.9590908989449933 -0.014900571260916273 -1.567609824966126
Ni 5.847828718242518 5.398252306711363 12.052414130636997 -1.1470696503832438 -0.4163762730131797 -0.4036876218019177
P 6.122128307717872 9.11414666165343 10.451744219274753 -0.704918068178173 1.6463557728177776 -0.3575036670466875
Ni 4.357461183586662 6.820607729978194 2.642841123534586 0.4582047790131915 0.10256361909653948 0.4468245622007079
P 2.793173433296558 9.079745507230234 8.752823361265271 -0.8757627310392982 0.21541087950727414 0.9257984554404507
Ni 3.046073373025216 2.3247057895287324 8.517562282686777 0.4774451153000423 -0.6237465416041645 -1.236416256568877
P 2.3964759330115313 3.4651904290774973 1.677566231141171 0.04024779177645326 -1.4803280717293215 -3.2171725347569753
P 1.063274997289649 1.1650450791249423 11.866763669867575 -0.33205565928722813 -0.5601557042263966 -0.10551498841537957
P 3.528011126938449 5.23040885376036 11.17369066835047 0.36188328417162197 0.09968784021064123 -0.044045054035356405
Ni 0.2038240834546885 8.610919518103833 13.161785204718926 -0.7754647680484839 0.24894166427486805 -1.0793532208728767
Ni 7.706226124497403 8.786977349274478 3.7771319013855207 0.4936541209597369 0.5406387172393915 -0.7190655633231487
Ni 6.749793174118262 7.137826067399796 10.199351476053616 1.2392064177195043 -1.23856518459108 -0.7008379845715285
Ni 8.00343225189397 4.677390082053896 11.941305936290942 0.2934495168792559 -0.07429793938262688 -0.42427110238022414
Ni 1.676844946252757 0.6746421052410646 2.7594228135243117 0.36671592967357486 -0.16256879600557808 -0.26618656739824476
Ni 3.883875633030984 6.59107374529713 12.951713048345495 -0.6079393993685788 0.473573548159778 -0.42255977611607226
Ni 6.51010607094424 7.838997674020694 12.432738923372158 0.7697494628312614 -0.46552419549274016 -0.29884677663542725
Ni 0.09709229665451082 3.2589948344164448 2.1927474083191294 1.424769617737727 -0.03209996585833827 -2.0599292862748393
Ni 2.4020165035556515 6.464384878527084 9.527673530111944 0.6436247685853302 0.4780367261374541 -0.479208120737736
Ni 7.818957898968079 5.660147633774505 5.605867500292924 0.7421463564020121 0.4147161117019374 -1.6577871545831708
Ni 8.171165444734644 0.14500490876449074 11.071565916493613 1.6966668623675036 -1.0870284780299473 0.5069742351074107
Ni 4.33691604969503 8.084188594368728 11.073865758628264 -0.2458121175069508 -1.1672618090604026 0.09868099621268166
Ni 1.0970054027083345 5.323192736603697 11.52754935926924 1.9166293658012024 0.7526649965451488 0.44381122929568084
Ni 6.855826646886345 2.019018821979222 11.005858241410502 -1.0521923441873684 0.9390805172613376 0.25953460929936595
Ni 7.5853902319174145 3.847361159826446 3.6679339634509445 -1.1316826264042121 0.5423377022083692 0.41655470757257296
Ni 3.2957941462393365 0.32259627430298543 4.543820065564958 0.01649465522091353 1.6209422178406792 -0.4080078464438264
Ni 0.1641423885809 4.947260890430964 9.587409701386392 -2.034398746103903 0.5522426200269069 -0.777314676773029
Ni 6.266789572471831 7.552505154011265 5.068671054418924 1.199396227701102 0.48425031114733375 -0.658852384168362
Ni 3.608308052286827 5.2625680526068335 7.51410798942283 -0.47062243595125397 -0.1847659009279076 0.029581313201542603
Ni 6.96584786031139 4.242248556633544 9.986871973937962 0.021492365545821047 -0.4575069816152186 -0.5695731408855546
Ni 0.7084919591126085 3.0259141495197412 8.29826503041567 1.255840683842076 0.459507299874699 -0.29201895508031644
Ni 4.781742088139435 2.285903419034832 3.757000242907629 -0.27938429703544143 0.8264677414589122 -0.5191370957221898
Ni 7.876283967997548 0.00790564991071564 8.687249835983062 -1.6778011358112521 1.105125187630658 -0.6629208978107809
Ni 5.667700451332164 2.1274045104343613 1.4694162760245055 0.6531730743953976 -0.4288947171951646 0.36377818720148963
Ni 5.854857800276104 6.307034512742559 0.9015776266553336 -0.12104033774448833 -0.5500121880344914 -0.7657565396217845
P 2.6919087103002806 7.816890521899378 1.659962285692612 0.14971302308883247 0.5055968951439098 -0.17018131824551336
Ni 9.139864832388081 5.577709824617206 2.1854187863191443 0.14493899873895683 -0.7598879966561494 -1.565964318942903
P 9.02141790886526 6.9647728242356655 3.740190170253451 -0.7428513528888367 0.007164121848607016 2.396987026762349
Ni 4.204686612380864 7.5995402794098625 8.115505222205421 0.7890905863620347 -0.06082587303812105 -0.036638477158640124
P 6.249285779956822 3.0135190754500583 12.99833745483311 -1.4138272597936101 0.5695818826363029 -1.084364815154855
P 1.6776994621078207 1.9592578421799491 5.485238345419807 0.23404932054406788 -0.2605537945924996 0.07765837121442755
P 8.710355760937125 6.970129627929235 11.580736998824294 -0.30470606362968167 0.021075846833692735 -0.1186247863244602
Ni 0.7394245142316511 4.174071055079022 13.450085071703528 1.6226044360344507 0.5182199832245592 1.2446453293468887
Ni 4.545831393744241 3.2923393294489727 10.318554600166456 1.147364298805527 1.5946979394321696 -0.16474883437603238
Ni 0.2620506100518584 5.599578079832807 7.436889158821186 -0.07859656675798077 0.29252006308645107 -0.22330210932989283
Ni 8.231523666798209 6.084106946338814 0.2390788348986969 -0.6533088286423135 1.5776720942981346 -0.5492591119185508
Ni 0.5778006503375562 4.711074545759944 4.126136390946976 0.8017409281361934 0.5190831025558028 2.289007121746245
Ni 1.5002082495028763 6.569278996821749 0.25307543707093444 0.16633751901939095 0.2199725307360276 -0.22268015947517775
Ni 4.500633936851156 4.2171827582183505 2.1187702249612097 0.36888851184486143 0.5734045988165029 1.0384513404521922
Ni 4.248928481651082 2.7030725464712697 6.146600539205784 -0.8737302739903016 1.129676651717777 0.5085719186118338
Ni 1.4990964600570411 1.691776002860048 0.41666928160293887 -0.17138176631151775 1.2879275370742915 -0.10243892059321713
Ni 4.371170190637787 1.4699786025871924 12.526162314855412 1.2831486276284094 0.9656001608184208 0.9160652873130868
Ni 8.843844001177567 0.9213794236364857 1.5267588840705237 -1.4134621631447075 0.4768108241501531 1.1445211729297773
Ni 4.838957897058573 8.61270205655418 0.30545174598080466 0.40169116019717915 0.12419868086781193 1.5196890900254474
Ni 7.2098718611584225 4.746826386534694 7.639712631774622 0.0359008276616672 -1.782048056147486 0.864309494897034
Ni 5.638095611708353 1.5307503000644973 8.741714655149446 0.36918496003935775 -0.32338667075832045 -0.8183124593416294
Ni 9.188985711540436 7.469194452313847 9.109976991814422 0.8554224768200492 -1.108260647935846 0.7608002240577736
Ni 3.560124384072284 1.381200837085874 1.3865227250778387 -0.04015986004833729 -0.09357915620974207 0.8782273905297068
Ni 7.864458571164574 2.4143013175150045 8.307234690391079 -1.5158368061588925 0.016992420792938476 -0.2531500459292608
Ni 0.8725250064174306 0.7372928187652564 7.154936598854625 0.38714720094473326 0.8887231478547081 1.6150567055941798
Ni 2.2642097423272545 7.540790017288621 3.9197221137337674 -0.9176624565968777 -1.1178256659164618 0.04387176168228573
Ni 0.36004979611383975 7.932002077084693 1.9780094116102007 0.840299505135682 0.3223042363274191 0.038890763527926565
Ni 0.05818609789004866 2.984327711239989 10.837717086161607 0.03585171959128664 -0.8696802722906442 0.20741731977883632
Ni 1.1529899737287792 1.112680715060358 9.72366638923039 0.21957426685634443 -0.9931371898964251 -0.325009293963408
Ni 8.52762719309147 8.112378429243291 6.629252227333409 0.5548342920134832 -0.6688583463411384 -0.6207946580646923
Ni 1.58176397777753 7.764737489712927 11.258493556874367 -0.514540734600759 0.8826052078824284 -0.08161787008280781
Ni 4.172334458341313 7.630165025054231 5.638250894697069 -1.95886462032133 -0.1449009464121698 0.04577952022795986
P 5.5836730589175945 4.939000570498684 4.263077610309277 0.17963269346640032 -0.16388777192731774 -0.5012000516277949
Ni 6.556782850984263 3.158033326723577 5.721937399603865 -1.0567568236295994 0.7710758949521688 0.35817241097893804
P 6.176532483823575 8.905396707769716 6.958595501554384 0.07837519477579405 0.08801246075524197 1.265920179565265
Ni 5.181563624883832 5.602757246347344 9.240342114429748 -0.45938362981264114 0.141164362187873 0.5136930418884831
P 1.531999914648246 5.982318487818465 5.779993023030022 1.2078605564183715 -0.2025335093239738 -1.079655582604644
P 6.908806629900275 1.7422016266513165 3.5491470712546036 -0.7531535061457932 -0.667683866417063 -0.19496212473461905
P 5.270451650495482 3.6192973099497925 8.106630202158048 -0.23187082483551033 0.39200375770608614 -0.4681739744107615
Ni 5.416417659888356 9.174651897197437 2.6640487369224553 -0.10179717324416017 0.13807029664358156 0.6709504529834767
