# total energy = -340888.3716766529 ev
CRYSTAL
PRIMVEC
9.11002053900839 0.00000000000000 0.00000000000000
0.00000000000000 9.11002053900839 0.00000000000000
0.00000000000000 0.00000000000000 13.33343591382813
PRIMCOORD
 96 1
Ni 6.495891076304262 2.118134448806742 11.274513207102808 1.1278658237612833 0.074234176024227 1.174478638523816
Ni 4.857207901470019 0.06801359176925058 5.9080050491759 -0.37311154878727354 2.4401620194879263 -1.3825940128109415
Ni 2.7053117163326976 1.4836306242820383 4.8661840047637375 0.9041322833209268 1.2271230041924093 0.2636290910837137
Ni 3.8951897264810214 4.7760922780789015 4.885317781022539 -1.0137607796840478 -0.7562511712345105 -0.5325520835765151
Ni 3.3607685882293206 2.8199339954776934 3.051049751998204 2.2005192640164815 1.6718086656732434 -0.7673040866145624
Ni 5.196137107741712 4.622451780719153 2.704127413655154 -0.5503945110745746 -1.108880283797716 0.014606951279897423
Ni 5.122491701239713 4.58817988323517 11.191846147204108 0.7403368139970992 1.2876873960390274 1.1318183806511282
Ni 5.803356420579937 7.982391357074194 12.56319030162209 -0.7588305019259125 -0.5579558683616003 -0.4328377610033126
Ni 2.0683572962675387 6.51956801983453 0.2112495346057517 -1.2423719599316798 0.8080828111938212 0.11482289607986676
Ni 3.194118981457789 1.6552360822580587 0.4529766431170497 -0.8392456099498707 -0.19460654116741324 -0.2507409222671359
Ni 8.214214051192991 8.838031821558015 7.24429566634272 -0.3384841885213912 -0.10660487904544864 -1.8075423437638485
Ni 8.973178977106897 2.1511036133454278 1.2390584563384577 -0.2070879614638756 1.2281190495570915 -1.1502259366240384
Ni 6.928316423957697 1.1228009284963922 4.579262084073269 0.20342542501062386 -2.14022535222243 2.988936221350259
Ni 0.9366467676277825 7.545984930420093 2.549939404057557 0.5954402384603036 0.39585784134485374 -1.0622232460608094
Ni 7.905120162374794 3.7894406073970033 3.6496017912409324 -0.447514646289197 1.4823247904443762 -0.41501050301390463
Ni 7.7569001272699545 4.274977375127956 12.620137040370729 0.4018708803081531 -1.4831549996551554 0.1019421834624567
Ni 8.51690359553186 7.2105904121398385 8.924295517588208 -0.5943737448690022 -0.636625968669994 0.4809572422183587
Ni 6.9435119383126365 0.6174207139021719 0.4172070582470042 0.2986927675560662 1.6461842802369195 -1.471299900088782
Ni 2.1156929632868837 6.750251961378768 9.200937691037602 -0.28777534931261406 -0.071504950018522 -0.07616327472613979
Ni 9.320279871853637 4.833567398022136 1.4227310475965844 -0.6225651197015537 -0.49669213645511223 -1.3440660319390723
Ni 6.366264593236852 1.7586257060075865 6.923280404571959 0.9574019412783447 0.3766409020967707 -0.07635867856639753
Ni 3.5486718730524562 4.477156062225786 0.1342179334480389 -0.23274268591750236 -1.3177947569473691 1.45607562693986
Ni 6.103604479398947 6.0959611721184945 4.5983958603320705 0.06107424160350127 -0.9972347570045665 0.12838880768975955
Ni 5.58706631157815 2.8337538967225635 9.026029850595355 -0.6937090868362311 0.9648457991508996 -0.4953235382423598
P 0.30842430230435625 5.698582073699744 12.341975315485842 -0.1513317896391781 1.1763498874046 0.18216188764615726
P 4.149350191102404 6.208816107267771 12.504775938555357 0.8270732362533949 2.1533747451201948 -0.462024666979914
P 2.3168968781808896 8.73912432794196 1.3545835385245655 0.8761805353030071 0.05718956183711441 -1.0278280564103912
P 6.782519654331523 8.009293247895618 5.535669397376891 -0.074216178302098 0.7863027392042523 1.2152010559438426
P 4.861507831191561 1.0047988317100998 12.437696123897247 0.7000679391747233 0.6240607304104737 1.7423535657713414
P 4.122858251207821 6.355150368109138 8.2979442504953 -0.18876422345402327 1.4230472357299815 -0.6981552955330428
P 4.9520249958382525 1.409894117574075 3.5286935978843608 -0.5766675858384908 -0.5769830601963806 1.089087160331189
P 0.5162666892070219 5.64644542582605 3.348665925866888 -1.1026605281402493 -0.23728325410033327 1.5944233456145442
Ni 0.8754948433718057 -0.10485633706556219 4.648756054189449 -1.5188064303101778 -0.16156118067667016 -0.8105292158517847
Ni 1.9648310222090637 6.509947838084641 4.7714898956735565 0.5474462270795281 0.2705808398111985 -1.0267584774952963
Ni 6.084209245549027 5.6408245431180175 9.051055988175964 0.8240177372565228 0.9392579233794662 0.5768105391742583
Ni 8.624593149002928 2.5146663153100195 9.949409695228473 0.8470201116889671 0.41532160649642025 0.2927154669267088
Ni 2.5393818011882883 5.41981544344725 7.02464031573259 -0.2990252111948205 -0.23102107524070534 -0.29403058619370653
Ni 0.4797974547551663 0.21274357798357552 9.184670838260514 -0.13423369650631076 0.183667011436774 0.20671669416738594
Ni 1.679423186941731 1.2164246101664864 11.700476817147155 -0.052699130165928594 0.8451941142238217 -1.341386685334696
Ni 4.122302539951436 7.1129492113866934 1.3191592234351266 0.6113574239111923 0.4285872132570748 0.06893616085008128
Ni 5.905406871301782 8.151701089859898 7.695805596143735 -0.25431269877879426 -1.165785224514876 1.403361070154964
Ni 5.581709619467416 3.01988983754998 4.998678322314922 -1.3502837307140099 0.01736523075132493 -0.7087402701377408
Ni 1.14181354148126 7.4506212348160705 6.78333226816873 -1.0398363937251769 0.3355065939503061 0.4785476043356016
Ni 4.955495913685515 4.881941607389481 7.031547533348846 1.6165942252846288 -0.9505355531758145 -0.8543721811786641
Ni 0.645785674031393 7.642970209690291 11.200606343009689 0.7235806775846829 -1.3550505559750339 -0.2353994068140591
Ni 4.720985763490753 0.9821604305278302 10.347492998239334 -1.2881070000749493 -0.7670027533240596 -1.3306135059785924
Ni 8.316455812347362 7.327471976392763 4.119818237334774 0.15400702247849604 -0.4009704799810707 0.879629413083556
Ni 7.321860203705326 6.292837827229169 6.743225402492698 0.5913619546258719 -0.38829314162371836 0.5307448551644472
Ni 2.500090282355641 5.321418110984597 2.437352303513816 0.7998257133913516 -0.13405680460881428 -0.2994515000989617
Ni 2.4895590985461022 5.531312985527651 11.347673960509074 -0.4666868483422737 -0.329760178384832 -0.8757295638085176
Ni 1.2259719117516044 3.5952514083622926 3.676001719927491 -0.15128165312753303 0.021220085721040872 0.8123220460861494
Ni 1.6288716826518261 1.4775542405441817 2.6976337909739785 -0.2121517491400282 -2.4422690385286003 -1.5683271627481248
Ni 1.2143748555322769 3.488901027918906 7.779593188575803 -0.6847737320198142 -0.33143216677061627 0.11107191367786677
Ni 3.908043965542664 2.6297714255466293 6.8438127839067455 0.015333802143592947 -0.29983845112473523 0.8174490829000697
Ni 4.178101416104917 7.009514037534183 5.80321794826687 -0.22848776729589038 -0.4983836652249224 0.5100248490082765
Ni 0.6390970969094524 -0.18718997021043024 -0.10203496368683025 0.821882693191391 0.9041759920746686 1.5098818741270383
P 0.4620001185178698 5.601022863131968 7.94088792524072 -0.18957926315615092 0.3532142956427142 -1.494767387083103
P 8.492588950559835 1.8429298366074747 7.770993329132719 0.36738673048835435 0.26146036556716906 -0.06418681909055399
P 1.9086313051493369 3.4201659225184144 10.417373233228805 0.33563360644647355 0.35276795213391504 -0.8467141504127741
P 4.218722997944651 6.389021424686876 3.414412944511733 -0.3537933080746358 0.9126444345569961 0.8224915304199835
P 6.963617753769084 3.982982994969364 10.317386202172065 1.201601205772221 1.2476825735113157 -0.4862915099470786
P 6.6702933106034035 7.855242799609028 10.005596658259364 -0.14583297130813594 -0.0766093611246229 0.10953439398741782
P 2.675877239785449 8.638075979485729 5.614149491809445 0.4369556398264281 -1.1878103226357155 1.2376935806194038
P 6.955500725417613 3.9969122164613924 1.605345965463459 1.38345481814934 -0.7388969962267791 -0.6646939305508037
Ni 5.623078222996062 2.8307020398227407 0.2427219227604344 -0.4039138788801109 0.018353305696207103 0.21219262968029262
Ni 1.1914176036291302 1.0172066797625146 6.786679289735879 0.46297468959800914 0.2982317687592477 0.8640554699046991
Ni 7.016219012693197 0.7869417991657162 9.115590463079416 -0.2095996721421358 -0.5962138834015345 0.9818405339366832
Ni 2.3271638713931297 1.8002493901129346 9.135030336030258 1.1291593457617264 -0.7456638826369674 -0.024270442511590457
Ni 6.857759314437907 1.960439992281557 2.6004070961579737 -1.087039790883857 1.2762372452205568 -3.2127402100172344
Ni 4.352458100301076 7.661527321645334 10.10458432005667 0.3844639976856153 -0.8700623382204112 -0.10653468792914557
Ni 8.1924137719056 7.3415287381731416 0.24987419993073612 0.22132570232981238 -1.4141252506500033 -0.51303509658951
Ni 7.659650657402459 4.00508390493644 7.85868729839656 0.36640019820536895 -0.2872043073004925 -0.028650059636524852
Ni 3.4004427279270204 8.492379420086117 12.248094731234927 -1.0059106875120096 -0.3353916656389966 0.49477023684205107
Ni 0.37076963925847284 5.024905160610147 9.972170170686736 -0.5334627683162425 -0.6351033613778804 1.422220883173944
Ni 8.798940723178491 2.5639059766340306 5.460949008444507 0.19806287514712986 -0.3212256585512597 2.2104763752291934
Ni 3.705919938568413 2.9940173790559585 11.633489924699129 -1.0384716521671664 -1.882475088516997 -0.3321147946599377
Ni 1.1996439522277578 3.6551224637224036 12.47264307390743 -0.8175120749275211 -0.6220598979303609 0.30178580465909316
Ni 3.0389480006378307 8.665743112037259 7.881633618274991 0.4927514066398095 -0.22017976165082723 0.1129688735902635
Ni 6.125933139880936 8.203737527507032 3.465013642912859 -1.6401187907691301 0.7491670106942194 -0.8149918796088287
Ni 3.2670082562502794 8.548059865971844 3.407319882475308 0.5886633247477862 -0.3428797464859256 0.08414037939434542
Ni 3.801183423945875 4.510790258268015 9.27152486362536 -1.4956212504429662 -1.270511141370057 0.0072844494765551965
Ni 6.987504227773071 6.189603073829782 11.452048377485081 1.0760861200858307 0.265991163557987 -0.9365988884900645
Ni 8.294336682339091 9.167322626038624 2.2305903650538936 0.5339561630128933 -1.644123283942833 0.42310253599341974
Ni 4.850794446970093 0.5034479792257055 1.6372392365696993 0.22694176296500918 -0.8311016406864977 -0.2761855875924857
Ni 5.898592575895609 5.388385872389371 0.3503376850646724 -0.5020775691367417 1.2853124680489478 -0.8706770889862746
Ni 7.971076711493357 9.076978551783267 11.543555801370612 -0.9515267134444902 -0.6531183098980623 -1.2830540110320743
Ni 0.1832307552591971 4.953992760287094 5.624683408625163 0.2041599891838032 0.3389816969831001 0.45743267673385735
Ni 7.159956917664564 6.084710296681833 2.3546979976439517 1.0268803477851411 -0.2017151271877365 0.13235910519141722
P 8.833577021486335 1.5334897670066103 3.6299478328060717 0.28779129015221405 1.0011927132110499 -0.09447004345512763
P 1.9332374707804476 3.302710426967911 1.1886108062833527 0.20399132481642288 0.2552627213968894 1.7385398484522059
P 4.733092980863485 0.8918537073569169 8.121035849530065 0.20534963861653022 1.142925032087251 -0.3689193650827969
P 8.6251853003417 1.7643012488391978 12.379641606644075 0.1887606239095975 0.8231931844726985 0.3617583285579834
P 6.483829409034514 7.862567256168603 1.3437836091074302 -1.1135283240926888 -0.32955294747003244 0.29926663778166523
P 2.224029328220304 3.5106921971857026 5.771658103914462 -0.6565425050882628 0.01054846493980764 -0.51364676203158
P 7.025902964587263 4.371361393038786 5.643309756736739 0.7860412580127495 0.42244690468729174 1.0377430015312579
P 2.341029322740983 8.784647100862603 10.162051240981368 0.36552422335831886 0.1438971877380038 0.5413812518323708
