# total energy = -340875.0922863562 ev
CRYSTAL
PRIMVEC
9.25038420303015 0.00000000000000 0.00000000000000

0.00000000000000 9.25038420303015 0.00000000000000

0.00000000000000 0.00000000000000 13.53887232429758

PRIMCOORD
 96 1
Ni 0.13450798834679717 5.843782289163978 3.1546789161175868 0.36303976637356833 0.14711312357214018 -0.7003260779321164
Ni 1.9244962062341426 3.646945518110977 13.471001674038584 0.79549571855743 -0.3376483228836572 -0.2734478769463484
Ni 1.4088335322139915 3.908888650952104 2.2252493264974875 0.1168216716774504 1.0726099886117721 0.9636348095619339
Ni 5.769057684612273 1.9039788538083342 6.5508104387650254 -0.5541632340883875 -0.3895522108418001 0.955520922205548
Ni 8.969339145359594 6.712088114300753 12.267869863027455 0.9450542183462691 0.9038931707269273 -1.2828886890988034
Ni 3.9536420103010945 2.615379660078308 9.993407566899425 -0.4174162842419199 -0.49033971187452324 -0.9520928703606054
Ni 3.2397436002642275 7.941769453353954 4.880993963602512 0.15850079658379157 0.3970035249135227 -2.116741153057561
Ni 8.500372411396018 3.764175638621469 6.7658217467493715 -0.29422393315143525 1.112620981787071 0.5435453493632252
Ni 0.43522410707285464 2.3994849403912273 3.838988121824231 -0.054971728250189186 0.8737690976480371 1.4229765303930462
Ni 6.318993032544786 4.193661732299495 1.9926373122640042 0.09450886711286303 -1.1557134421011708 0.6000615392823988
Ni 7.235354604233444 1.0723230513546314 0.526712258092571 -0.49745164032895617 -1.025772202322627 0.9122780523565128
Ni 4.260190496342063 5.494774539085832 12.57302246607426 1.0734558815518354 0.010447420585569103 -0.46069103577015497
Ni 5.794209479583317 0.7918042217568473 4.2920525201001585 -2.157173292930678 0.5277037543452783 -0.830682293760892
Ni 7.985773531572877 8.020712233156411 0.5372197696437324 0.38167409364530397 0.005727646512396588 0.4217125976244286
Ni 4.571919197603253 0.6659037160215084 12.177769269656011 0.8859638399420161 1.2571424333726349 -0.40399049775431717
Ni 8.232351776055452 1.728776574752963 5.779283984480051 -0.7479732474964345 -1.4244960523613661 -0.45588358707918264
Ni 7.136079479691615 2.8063168428651037 12.72000089752531 0.26568854471590375 1.6221827751159996 -1.1830134154677046
Ni 1.3061820173946965 8.6367138259154 0.3090016879631164 -2.091182844972482 0.6974297302209278 0.3532559475139271
Ni 7.116755426843322 5.748124064891982 6.068068957507818 -0.22150979331616047 0.15137935504766187 0.5089912655374395
Ni 8.17153049913945 3.0488896709363282 10.052707155594486 -0.7545143910490618 1.2266342374814487 0.4055460151668951
Ni 1.380120339279046 4.999980732095719 7.19249849870886 0.10555766872785693 0.2771677490000969 -0.09924818157006134
Ni 3.925937109257228 7.3895307597253055 8.861734049735961 -1.1436760513206627 0.23388811237585527 -1.4457367069076972
Ni 6.09252512357786 5.870525150238374 8.488412589506328 -1.526282426972249 -1.1411841381367445 -0.3647050698911332
Ni 5.301247248688925 1.5939429728780374 2.260192653273182 1.3048276552637397 1.8800613368691814 -1.9940825629833594
P 3.4520121692971526 -0.29566633392477304 10.593003603063657 0.8498889485963299 0.3440771092281365 -3.5895695739757274
P 5.746514498019985 4.16682636738188 6.682422131780658 0.5340862608328544 0.7515892469824669 0.28087656531025174
P 3.2267838118293506 6.510901505685375 0.5740362992445971 -0.828647008498418 0.514852609414223 0.3959426877491762
P 3.3401750228462848 2.2809967676129674 7.496771390206659 0.2961977690483544 0.05300971942781194 -0.1041949840523754
P 0.4162598941746806 7.348930822936815 8.631965603643007 0.26065355339515756 0.26395356430266803 -0.9107916976189734
P 6.703790519564075 9.297283770336943 5.847601772850459 2.0819489850790402 -2.4831490645724137 2.57490890818523
P 3.9976830900573046 0.06107196233112275 2.9057806752470983 -0.5440603413264308 -0.4787535496988206 2.217268458450362
P 9.241910969786499 8.975666408235723 11.806167455871806 0.6959230637684144 -0.1429386804794764 1.3380969588398308
Ni 3.685343863430874 8.80957575773735 0.8584486156034375 0.5483725955485395 0.43661034067186744 0.4736717643005391
Ni 2.2993032781858598 5.692621758961031 4.173425591557071 -1.0984917414745403 -0.12068835372170827 0.9081354909430489
Ni 0.05635611640385622 4.1735976487054565 12.301081517858103 -1.1243112736408056 0.9392229563764728 -1.8578405777977682
Ni 1.391664818912684 3.1628729065498598 9.171963263698585 0.265345302443872 0.4713078920540528 -0.22642188590579718
Ni 6.874571114913613 1.0220564629498328 8.872225835633776 1.097629650584561 -0.7450005380213557 -0.25736254134871156
Ni 0.6972745443721146 7.002013659715401 5.916202622981117 0.5050024560930206 0.3277061240692808 0.44014689307021615
Ni 2.6722325221202463 3.6387219264488744 5.521829138111874 0.3124916211123715 1.0283034533849127 0.08016391124510065
Ni 1.2051770709846863 5.512600029673989 9.729047308635005 0.7055700999398752 0.34846289700065797 0.2958941217650065
Ni 5.90445555993083 7.458131609855963 4.512113612885789 0.6970463787395801 0.21014474601232838 -1.7666317215924154
Ni 1.4915689695883971 8.016429305215405 10.524442529585585 -0.9105145326981868 -0.4112836889816207 -1.0607859993936504
Ni 4.015369824880635 3.1582107128516594 12.269738440660463 0.24557583312642867 -0.69216308250535 0.4900442921212916
Ni 2.1974935483398506 0.9489784268074128 8.898058458890906 0.9737225328152392 -0.6602343521175532 0.2699478342128899
Ni 1.3236467429943026 2.1207061080843785 6.592632351322429 -0.589142835487366 -0.8238272185122715 0.4421788358985804
Ni 8.344281426349538 7.611928499590629 4.236678794511279 -0.46820919852407106 0.5619217949878839 0.2731216039551812
Ni 0.3258669886586682 1.5213182055673873 1.651688497007032 0.16271432044450687 0.462286662392049 -0.9148054467640567
Ni 4.947660558371475 7.182386903606671 10.858094641689501 0.003445278236123099 1.2840611121403498 0.986524569675914
Ni 4.553224170888845 5.530212761422745 5.24782905434568 -0.022859678206992886 -0.04259289496986213 1.1364630785119911
Ni 5.732962684988511 3.3219795168852544 4.6494383432585815 -1.4906345958616523 0.3110641446372256 -0.5330367365224175
Ni 2.0524752733265954 7.173969053873811 2.341372176004657 0.07460955708577473 1.5177916158924183 0.4344552420020775
Ni 7.341123498569194 0.6234500022149235 11.459192940267599 -1.059841376092194 0.6118814147354623 1.1278956485579543
Ni 5.867703783020218 3.298751801853151 8.683318187167188 0.3728827206059191 0.3237862201895843 -0.04660870099747457
Ni 4.033889094292929 5.196227635483242 10.136215000059764 -0.18007312343792858 0.04960532173195328 -0.8693503997550511
Ni 0.24725722269179692 1.0642197146887122 9.992811842149099 -1.353215302538508 -0.7748397328699752 0.7133219759711522
Ni 5.923788863163446 8.486811347980222 1.865088388042516 0.2806739623811424 -0.0880656825906806 1.0062333609587508
P 5.315492840544536 2.836177083455956 0.3737747290614014 0.6745188870610254 0.21032009524792813 1.134299495201769
P 2.506715395449826 4.099872085660509 11.021617385500134 -1.7272637613177544 -0.6919329687724148 0.02699092676654706
P 0.13760871717147302 8.64066374002082 2.328821254556804 -0.8321056564709798 -1.7646763976382578 -1.0473938943574606
P 1.392774865031303 -0.015708077616891525 5.411853168986557 -0.9379325196998235 0.535819184363561 -1.0003874437009352
P 7.29503808387786 2.555381667366949 3.3873445825801367 -0.12034613989094113 1.456147617828376 -0.5649610960348399
P 5.667997235896332 8.423575720756224 13.171332698817759 1.5538878473943434 -0.5717302964378734 0.8672472373691192
P 2.270969351008109 1.4862592489876694 0.2849617891875568 -0.02600773691767134 -0.2347743716355505 -0.16625190128412012
P 6.113791757133737 7.870430489464037 9.059698749492048 -0.3474997617564402 1.9502529673929188 -0.4300136612909562
Ni 2.715172806142159 8.947795000274063 6.973562252656762 1.4606030824965683 -0.6837820575305062 0.7086664794770118
Ni 6.035218992704153 4.438038385313476 11.143493974055481 0.8425841874048005 -0.4534934895804512 -0.6359793362249304
Ni 7.524530868518024 5.552700445709101 0.2875047198376266 2.2070457522810893 -2.5440762390750895 2.447036892230889
Ni 2.0228370419594675 5.96101240967447 12.064990434081182 -0.4061047158838425 -0.21001053442730927 -0.10953387976678554
Ni 2.225115195924821 1.30832810655736 11.405200297057966 0.31533500409843757 0.6210417410784917 0.7569618241482898
Ni 7.9534896902897065 0.6395946979718051 3.3969168802763616 0.29096274590166016 -1.1797375729299102 -0.7732340789457521
Ni 1.6997118672137879 0.36199806478128566 3.315155508371044 1.556473091623016 -0.13409331427370455 1.1233933898122266
Ni 7.608459605469944 4.719610833685516 4.095536430528869 0.18415423548583768 -0.37114568331015435 -0.3768843855661445
Ni 0.26320211014732714 1.8134730936035954 12.732605471202229 -0.8072562015274677 -1.0216111289664018 0.11689700500007609
Ni 4.503309097088275 0.5516142926869247 8.339701561071802 0.8165684800673293 0.21106365828217202 0.401148914540464
Ni 5.439679250065041 6.211198304042556 1.0704683492981053 0.49023301109332984 1.226232888277972 -1.2102352272981352
Ni 0.9238284819132343 6.147009887233412 0.6415382037178207 -0.49934808602072056 -1.2422829997622993 0.23997879865462543
Ni 7.601882582217128 7.6662097547911 7.3325178660346 -0.08922576433705279 1.3364360261976402 0.10494163241041281
Ni 3.798328057537648 4.439675703338439 1.3713250738658544 0.25600679865176557 -0.6421924070141779 0.530642268148312
Ni 5.086185063590809 7.8814846987286185 6.541157662725201 -0.08619571926147736 0.05895102461291137 1.9685306826561841
Ni 4.241902486537814 6.435002102324798 2.9619258828884165 0.044222203043169 -0.10446417855336203 0.6234881457364553
Ni 2.9660894808716702 2.196318749530979 2.394187245290118 0.3777919849820784 -0.14584865503741978 -0.0934940526951035
Ni 8.365890324125322 5.651984820635252 8.560101217923611 0.3721988071650171 -0.8597961804077127 0.2495903536024605
Ni 8.082578803500779 8.05030421260193 10.148698393702066 -0.10978739053848834 -1.3612371444017202 -1.0830188426499219
Ni 0.4079086472089367 -0.09064914116172693 7.324056539495427 -1.4825091385410403 0.056899798510837485 0.9831314848339648
Ni 3.351775004785854 1.4774621334976135 5.095638956367714 0.3419754895041014 -1.1573206386872907 -0.3296473069560516
Ni 6.647215169051792 6.621554602943048 12.290182715050129 -1.5654570402891814 1.557154691071073 -1.7492466933467485
Ni 2.9080988215581476 8.144861641139627 12.371821981882398 0.6970168110532254 -1.6710183085614643 0.45673925021125855
Ni 3.7773759370487134 4.439897712562162 7.827024911110736 0.06662756732156268 0.2847622735179031 -0.25512079650238645
P 3.725490531387596 4.151637236325443 3.682085878072727 0.5221283171400298 -0.5063314593170893 -1.6354864342034412
P 3.001296443600537 6.726490962689835 6.63938194360807 0.09003206228843204 -1.222059987847205 1.0406270079472724
P 7.0774597942442075 6.626355552406076 2.650301710970063 -0.23863154059811162 -0.8864250958491507 -0.13315743272299646
P 8.034227044650597 5.423010057517111 10.779081558966197 -0.18196519825431887 -0.8272730109690267 -0.2589311713874121
P 6.050176864152544 2.1164139297590516 10.600923782120002 -0.5681811456340344 1.0169941990196807 0.5088804509911881
P 0.4961008862947869 4.374876761164053 4.971027029168406 0.23738198446172667 0.37294468419210614 0.11210678270028435
P 8.887325237962292 2.020616949722229 8.12861704123207 -0.10323981922795768 0.11646480255866394 -0.5591511742212822
P 9.053859906908112 4.091842752069164 0.9088373090812842 -0.5925210079309795 -0.3043425096426759 -0.261054388378002
