# total energy = -340889.9231537044 ev
CRYSTAL
PRIMVEC
9.06551266490082 0.00000000000000 0.00000000000000

0.00000000000000 9.06551266490082 0.00000000000000

0.00000000000000 0.00000000000000 13.26829414114281

PRIMCOORD
 96 1
Ni 6.402744883205603 2.043629430853642 11.484106094995512 0.6374001278318571 -0.39198678842522167 0.09862546038439789
Ni 4.518577818279661 0.3274998001857595 6.175900375523075 -0.0773819776245893 -0.04076998282851043 -0.6282297741864987
Ni 2.695666421720603 1.5052558364620363 4.792613758143727 -0.4189010963175624 -0.05882118390326644 -0.3600547156033154
Ni 3.481727950272335 4.682582005999844 5.270577496490282 0.7848966028853449 -0.6048635886567325 -2.108345472794698
Ni 4.95514570662419 4.571429756503567 2.7704061334690016 1.1857112740148419 0.43107604111719955 1.3497944497824172
Ni 7.014920815346919 5.941437211085253 2.8839036310645123 0.8627732607581657 0.8562951092329898 -1.4532558981028778
Ni 5.497208964627654 4.8217738858437285 11.524216455316553 -1.7401632429882419 -1.188368766242347 -0.03678451581820116
Ni 5.684493388601522 7.906405189457107 12.247484804571254 -0.23981630493483214 -0.22134909936858008 0.46339969295056965
Ni 1.9275818045750466 6.176841375726787 0.4260663985952028 0.6443745022671612 1.1596356599737125 -0.14206681939748436
Ni 3.2944163297607862 1.7324738432620297 0.4685582690657154 -3.558487764969259 -0.16652983753585515 0.11665326442038618
Ni 0.7637086942329185 -0.03616414270373975 4.327308194984484 0.01472805023879399 0.2115004887092745 0.48963574382896324
Ni 8.600696534365513 2.4041286033084988 1.3702694478946658 0.46016704494588495 0.7561264727311882 -1.0142541743806983
Ni 6.574128398149502 0.8266741182685886 4.865934717176509 0.6041184829605918 -0.29537270204389776 -1.3305294309052182
Ni 0.9076753795420733 7.354406129688052 2.4943857529055866 -1.2666760838946831 -1.0269693079545215 0.6729466574778992
Ni 7.571552352034055 3.898940969301592 3.902471079892396 0.08342869803930147 -0.7462632067838632 0.4107321873535249
Ni 7.636678994263993 4.156464984589152 12.784624582703463 -0.7350603960895082 -1.3190689956741026 -1.0448821836792006
Ni 7.8762804912207365 8.923120554069014 6.66975867704081 0.4585845309501134 -0.9794542930926938 0.28272441715226787
Ni 6.896244190425969 0.6037223416792591 0.48544278620842957 -0.40011147441488515 0.09945849780865453 -1.2972722115139852
Ni 1.61311730489909 6.715078987429996 9.455383992995284 0.977399210335878 -0.1754086280827237 -1.1736664270351658
Ni -0.02662813004203719 5.025838573565873 1.2064066821704156 0.2298352824627203 -0.4179202204615319 2.08143964954279
Ni 6.200393577357269 1.8086785418400995 6.90273691052133 0.8799824255476006 1.7434300866649717 0.7940456163744648
Ni 3.742044143428328 4.52161476498721 0.9218783180695848 -0.5977274918325834 -0.8779512540501848 -1.9897656807755606
Ni 5.7631095135205115 5.491561150302869 4.945504534016794 0.924797267869446 0.9226192863815207 0.20952022505445206
Ni 5.535537951730685 3.2030178321324136 9.192233920613083 -0.7264456578373037 -1.1910401424269228 -0.447988500601822
P 0.18252684298246188 5.605587167280619 12.387557852235954 0.8763209175356135 0.5579525259274907 -0.3715395763144633
P 4.016810763604717 6.043070672393692 12.634322010666232 -0.5525051296596742 0.8272814956094591 -0.4495517313238838
P 2.059938287948806 8.404364728856915 1.1916027001601863 2.8740906995625726 0.6925698310254653 -0.8476366622270435
P 6.407957552927514 7.546114523791125 5.8096019946836845 -1.0679719756191284 0.16511650212809625 0.6146738898789349
P 4.850692870909638 0.8751329091059923 12.667505412840294 0.6487623469222117 -0.4275569722203475 -1.2634516634201145
P 3.793681302969214 6.204255485707764 8.34213451788985 0.3798133862874814 -0.0031385456289816913 -0.09018838536063822
P 4.599061438785979 1.0243757227249775 3.9391175078643195 0.7396572714315712 -0.6984728267734616 -0.9666746248295222
P 0.202601513994986 5.523263247724653 3.6158757789279203 -0.6990482396609574 0.10327710022379633 -0.03747408568605804
Ni 1.4468195425012655 1.3077183177829805 2.2079636032310037 0.8103988609215076 -0.9694943536665044 0.9933161386764505
Ni 1.7569960547364145 6.558798616410802 4.786059392562957 0.44745499669585515 0.38662218167919865 0.07564494032882456
Ni 6.178609150675958 5.6936586217995275 9.280694285620807 -0.8367220721970686 -0.8702664838114174 -0.21079497800181762
Ni 9.02197996853414 1.7707031097269024 10.021078322588497 -0.1555694818696095 0.7900501220618266 1.0949053096748627
Ni 2.379416016070357 5.152356866851092 7.08399548829667 -1.607687409713302 0.26999411406979307 1.9033293062581869
Ni 0.731966708555872 8.869262343950965 8.61949478120961 -0.08184207027847196 -0.8190611645821958 0.19252651870993295
Ni 1.8781475645862034 1.2065562631276532 11.648659652776821 -1.0070417157926592 0.09098105646526265 0.46324079877520224
Ni 4.163771787712388 6.893597060758493 1.6890137760501254 -0.6693463417211505 0.0013392876367138225 -0.057170278563404765
Ni 5.531875484656506 7.572522361877959 7.908155739932413 0.36965598613850537 0.6792075507859464 0.17684304653640512
Ni 5.0581389948166064 2.9046264862250655 5.01950178028654 0.4544597101484625 0.34682279029407365 -0.6252789190882909
Ni 0.464743501380532 7.03319688866757 6.8983455762373405 0.11890812189283394 0.32372579926529405 0.599582028542819
Ni 5.193478031822556 4.642476178435084 7.164122834159385 -0.42962619604455043 -0.3760590614513717 0.4257248041076152
Ni 8.199901158582138 7.203320297365649 9.150133680285155 0.4633336155993247 -0.26984139054201267 -0.3705034217404651
Ni 4.388188551131389 0.47541270311221534 10.461306864904692 0.6316750524226218 0.012770412291790911 -0.14639115780445114
Ni 8.152243759055025 7.321471122558129 4.5894501823700296 0.41147677882903333 -0.4624478705602616 0.22703843644387353
Ni 7.383597080130757 5.8919757745587304 7.1580988010633675 -0.25550569064563095 0.21875999848516517 -0.5710605240643585
Ni 2.3502613276778908 5.1447871638636204 2.787350482994611 -0.12483785711370757 0.1619278199874695 0.08194542862555565
Ni 2.272479229914407 5.4077686177122075 11.340198335517996 1.1919104608470183 -0.6921785091243176 1.0515809358556147
Ni 0.8859127100909057 3.324441307358998 3.6260255267899244 -0.21335373986792935 -0.4414753820736526 -0.33577630267192493
Ni 3.9439059115984305 2.523158783219283 2.4998794535168534 -0.5187627431019066 -0.09592734472694447 1.4199362009048255
Ni 1.1768757750067156 3.2686974706285015 8.155316967812812 -0.7064712715979059 0.8172634492518247 0.593869551539074
Ni 3.4976651213525454 2.7088114149323808 7.014297108082802 0.4441285034257835 0.7508307715498875 0.2627960536594571
Ni 3.83940774832108 6.983508814327051 6.165776011096239 0.32415337372101594 0.29374596507375217 -0.280674990822407
Ni 0.9481800896594675 7.59079843519861 11.652560542831326 -0.6429850781188023 0.011630385150076744 0.15154570542219706
P 0.3242081125752792 5.271151343435321 8.313660649490627 -0.5805934032554582 1.3382540532429856 -1.9402076673417747
P 8.552721841898805 1.4015645038025117 7.959264380091059 -0.827053181648737 1.532129115561013 -0.3542759041380092
P 1.9623208487043784 3.134373771029256 10.423107514631267 -0.003896249730612645 1.7935704549647886 1.3325570028582083
P 3.984809504268458 6.394177973836548 3.947383442216388 -0.6388916247757191 -0.3813699321413238 -0.8677668573180151
P 7.081570463686911 3.8054574037844544 10.41643348428471 1.496932513055222 1.0859277887666008 0.760415072804213
P 6.398837647292309 7.783123284155754 10.09653511638038 -1.1865803068833565 0.9829828750712425 -0.0033504045294716492
P 1.959619325961544 8.360297272303502 6.083446652232737 0.7374643775453106 0.7167276592185915 -0.03752885018339343
P 6.92096584317667 4.109804791443622 1.6425222014382084 -0.22215385465806256 -0.9609613764948289 0.22527954477123785
Ni 5.458145671007275 2.6587153925266684 0.49920060806925265 0.6008254140316169 1.6622747580408794 0.02006283218814609
Ni 1.5153638829662652 1.319929563201094 7.000749606113367 0.200766390121222 -0.8587654251503533 -1.8369511359432684
Ni 6.668164959932789 0.9761199993689146 9.086724952685307 0.32750480669175214 -1.1759534232971296 1.2524933646363978
Ni 2.4552218320957935 1.5447633401978476 9.219593637518699 1.0656428132653195 -0.1093778138048955 -0.47902017309664596
Ni 6.639835233183269 2.0065514844838694 2.500383496015181 -1.9509170833394789 -0.13488547115769675 1.0502102807603335
Ni 4.154679078614862 6.9747333981691195 10.393107920468223 0.15403247639979278 -0.32081351071450553 -0.4154787008995748
Ni 8.079139465772421 7.255093439594933 0.10672193350828121 -0.8077405973630539 -0.9578385145951311 0.7974407580989428
Ni 7.646524140903986 3.642405094883055 8.25861032447096 1.396249141700531 -0.2306570070330673 -0.4366849026635447
Ni 3.17072647639424 8.265562666053105 12.316015546767412 0.3478548311030138 -0.31642566605945505 1.5480766400292048
Ni 0.3297480473006014 4.692173318288162 10.325333242019555 -1.8328484266288045 -1.4296971369463314 0.5370551136531913
Ni 8.620504679308777 2.032351933229193 5.732779028149033 -0.12146122733199081 1.5086775694062922 -0.3662518455529628
Ni 3.705473865761907 2.869144070065826 11.836565064361041 0.49298563413780266 1.1808554885844373 -1.639982522301582
Ni 0.9873340384054446 3.3729599305792966 12.649314555337707 0.5371738986192427 0.2290827205674119 -0.24183359247517708
Ni 3.164063324662753 8.70596526621045 7.970210986507074 0.06809078213065048 -1.1940082239163115 0.7369576131122211
Ni 5.738460384870289 7.961668554021931 3.6703685749251576 -1.1972866375572668 -0.2052182552449885 -0.10800073095171077
Ni 3.028851204832642 8.40707531711231 3.414993086114281 0.3005910130200436 0.160233205893866 0.1875673749324447
Ni 3.7055554553749457 4.348726374958377 9.546776144764864 -1.4098885868608364 0.8222102517341389 -0.014266794331659302
Ni 7.333519188750165 6.182326010825495 11.31784187499416 1.4728757292163346 0.18251078634514376 0.28589021647475926
Ni 0.239873462333539 0.035781578073714224 0.4005524200467707 0.7382863592259736 1.2231933301207 -0.5523809453769841
Ni 4.597610956776403 0.27675196742699465 1.5978609538121247 0.9597532151193406 -1.1143161101013066 0.8427947607537098
Ni 5.985250833286991 5.738886463960602 0.45460191247983167 0.07878554284033527 -0.12871893733566864 -0.21194143290143502
Ni 7.914056482057617 8.78749142066115 11.415562661081768 -0.012295015317269148 0.782277420094943 -0.5511933528267863
Ni 9.22279920275986 4.891460480891269 5.870092533790517 -0.24917897709665474 -1.4599775330974276 -0.6475477577888202
Ni 7.91094701124959 8.652596593770634 2.3695046911886766 0.5250190084242635 0.23371713401562974 1.3273862572905462
P 8.395634640261784 1.4567553442668575 3.5864201155184667 0.5513607316425859 0.3091481585614353 -0.268948189303782
P 1.9220971694763391 3.3442947798650615 1.4624847482046803 -0.3269641036969337 -0.15663751812280763 0.29255837252355427
P 4.608009099682548 1.3978839057032142 8.371616471285726 -0.12477460797593994 -0.8918570654979995 -0.4375421084575174
P 8.612191604291398 1.6569853201761875 12.359681401114425 -0.53304187872874 0.013344796738022177 0.14474333778838297
P 6.251985409335355 7.638056952173089 1.4321796462683696 0.09053111341203764 0.5917972423910776 0.1648467934064774
P 1.8187231297564093 3.335002629491219 5.581161956790624 -0.27048622321486315 -0.4374181812851434 1.5022035316461742
P 7.061979891045082 3.9508682252443927 6.034380472053824 -0.7410466955799302 -0.6862901686643407 0.24836753693895292
P 2.263223341590804 8.691460446114696 10.20112846753961 0.2900258359096876 -1.0516801804376403 0.507492569504726
