# total energy = -340860.50507041946 ev
CRYSTAL
PRIMVEC
9.33835013436937 0.00000000000000 0.00000000000000

0.00000000000000 9.33835013436937 0.00000000000000

0.00000000000000 0.00000000000000 13.66761935654700

PRIMCOORD
 96 1
Ni 6.847868069221804 8.988610094958052 2.707924454536118 1.0819847449584528 -0.071816824831986 1.5671753085318687
Ni 2.8100589220842984 3.4376707474290504 7.499108721516769 0.10525684965798646 0.37371241559606605 -1.0972524697508006
Ni 5.807426468034283 0.6020789088339558 11.232363459305445 -0.43666561938983506 -0.5153727435837511 -0.6230621139426301
Ni 7.485668034392933 4.594739001496149 8.982755883356626 -1.6188745366783732 1.5111165178650878 -2.0210930301339323
Ni 4.485928547548449 1.4834622625102865 8.325575106640436 1.3935548826978192 0.151961452803377 -1.9061099543271174
Ni 7.086939167017468 5.163080319528332 5.852898629418846 -2.1467562113624123 -0.41506423906997547 0.905574415084092
Ni 6.182286512865092 0.8046398597192763 4.970161214995655 -0.345279871286986 -1.2730251660411624 0.06294471915333676
Ni 4.531733154192241 5.922008022268601 4.233052566979794 1.3642052258911086 0.6244528236425697 0.23115117306066643
Ni 3.4911141243551307 6.947592308640573 13.125698042220359 -0.3124057462667846 0.8549866748342115 -0.444603386179673
Ni 4.405282557135443 2.7960140437168644 5.843385652295904 0.3951029654567002 0.39360426942398663 -0.7707758472132467
Ni 7.859547552476016 1.5769671608434759 11.73935088414489 0.17318359540694692 -1.2969127712920374 -3.6829127029152633
Ni 4.779404872317963 3.196731979637717 0.7384776501226871 -1.1160356638955748 -1.6549977647634917 -1.8812589567217084
Ni 2.4267476705230844 0.39801168209712773 6.440441462676507 0.18439746184489533 2.109390626229761 -0.6006372092802108
Ni 2.5616774893602217 5.049516645441654 3.244719892506447 -0.851026918855515 -0.15160741189806795 0.18570101114766727
Ni 1.30395116087652 5.9332233805925965 0.6643283497896175 0.5787702340037904 -0.2702638227914119 0.2520372724810563
Ni 3.7442581155681647 0.547998656439352 10.227260975940982 1.2695598332003815 0.6116772691444562 0.3907035508374239
Ni 4.721086876703185 3.975270217332515 2.883348160384362 -2.6649216871999526 -0.5759600182485048 1.4697626375086494
Ni 2.2782959209173006 1.3875480698826832 8.694122426885881 -2.0008594766958767 0.8668800838376877 -0.22471415918607104
Ni 0.2819714775961909 4.118156310351204 13.08131940161826 -1.790725786427142 2.454801623777972 0.9171688047899107
Ni 5.409211209907626 3.6278835981380024 7.677566457272977 2.4325764938311845 0.4099107198934941 -0.14789268205064207
Ni 5.862774868355945 7.696341209904444 11.888081850415027 0.14814413593981585 -1.3000040086228515 -0.08564704584685895
Ni 6.7936122558476075 0.03422131733065081 7.992098893573669 -1.6833773443474491 2.8178624731974633 -1.3462144457406429
Ni 9.097691361055125 4.110872397368094 6.001055287165314 0.9035332162843471 0.9693043491428855 0.28469876726981935
Ni 2.1867147226796506 1.225256885608989 11.706193204876774 1.2096906676485748 -0.9858560828539796 0.9938655834220174
P 5.680863810777744 2.6154290318355877 3.9356868194442973 2.077844475992363 -0.22637663449015852 2.81384075363258
P 8.473982966001321 1.484013225159009 2.3783572747702877 -1.005791902545958 0.6528853679516498 0.04879748111867725
P 3.2623152115356486 4.794420939083145 5.538707042892364 -0.21916031924737742 -0.34753601431101433 -0.2840346513232592
P 5.339154908370066 8.051749471730357 9.599369933931879 -0.19289572912389358 0.41512260311173665 0.014247511057949655
P 0.34401454101733125 4.683994950589191 3.2910810648089486 0.2287237945660964 0.4079548817187038 0.6079833652326369
P 7.578939473976664 5.17501473080066 0.39700594180445975 0.6734871033624014 -0.010674191884394519 -0.48897317054429973
P 7.532303754184798 6.161695451162838 10.550787177105821 -0.27956453136704756 -0.06311209796913647 -0.5557647742475524
P 4.672452750015953 0.08635639142476488 6.597387375422595 -0.34293271121104807 0.7125547587878244 0.007249225363245579
Ni 0.10785233923992207 7.317400306133097 10.927192718858048 -1.0811082558907703 0.6851074612101492 0.2910897583978277
Ni 2.7311592031172434 6.131859422982018 9.07397288594512 -0.1867687902905493 -1.07088272150802 0.6276289073777062
Ni 0.620540826741148 8.329061112687352 6.360950626155822 -0.6385766646384615 -0.42527434683375787 -2.6580694401648093
Ni 3.7069980991545597 9.2970371180429 13.130412975124425 0.24104992023161712 0.285433845663631 0.16343397221935077
Ni 8.733626448799285 0.17698321029462788 4.18807253663909 0.27493911677989424 -0.7552330143826412 0.987860257768202
Ni 4.43874186510786 8.325381802795883 3.9210900445931434 1.358043834275403 0.8111223693510934 -2.8371210643167593
Ni 2.2682852097405126 3.2469536258212672 10.345731952941284 0.35698224732557876 0.8025253717107018 -0.7628913022588474
Ni 5.528611352730773 5.354974073233387 12.917635869362794 2.5404633249128503 0.904812597217403 -0.7173542370589968
Ni 6.35280478346971 2.2192495340042115 9.698856979261198 -0.730295370600697 0.5034281696273653 0.24818241751134032
Ni 1.9800476993088505 6.259262531736607 6.55031555468674 -1.1630290019259775 -1.9141155982404132 2.1454107530781115
Ni 5.767878555875982 5.1661526366712085 1.5042989228169723 1.2190733944150551 2.8253307565500503 0.816036261712943
Ni 8.411434697846351 9.343112536836065 0.7830729404442838 -1.0360134204346607 -2.464513451749098 0.21174782883339016
Ni 1.169917823637304 0.6662221671652264 0.43008891427275003 2.777567116012526 3.4253159340685593 0.7564951689245165
Ni 4.796699496477862 6.302452400386463 7.48262466613499 -0.14191306742843945 -0.9583568489924462 0.4112710905761304
Ni 7.465852055738881 4.522646939663309 3.2699782615278803 -0.1604916017615752 0.6916869141998797 0.7599921263341815
Ni 1.3844944294397639 3.2754729466551393 1.9320411097401637 -1.415812408544439 1.4039166855481175 -1.076762320217249
Ni 1.6284588226240821 6.960002975761796 4.41458635521887 -1.1624826425042043 -0.6153094665804049 -1.5577607000861882
Ni 1.1863066278493033 1.1680688303415911 2.8572157218049554 1.1931137371265 -0.3126209476013842 0.7466676413111334
Ni 9.340684565841695 0.642302917530688 7.868544118845155 -0.06400427076610267 0.6908528483343586 0.27973448128600853
Ni 3.3595834649101124 8.184942357471522 8.040359486261766 1.4373981051350146 -0.15518458772636498 -0.04233347066088838
Ni 5.704620573122659 4.242160259713676 10.885684687039292 0.4432355592978689 0.28059477240377484 -0.9762044186968285
Ni 8.621603602459032 3.195956896589514 10.127186548398026 1.047908372100034 -1.77846882343666 2.422501883204002
Ni 7.04512203581443 3.006397730379046 1.4067262392332147 -0.08272935797943172 0.5173815464836639 1.138136352449356
Ni 6.1287404140892505 0.40012961987221685 -0.1246137436160573 1.2201429733301503 1.9662184895832395 -1.1028446191265975
P 1.9847448893479591 9.017232137641686 4.319869339058491 -0.4840618492856115 0.7102135122491575 0.723920834532921
P 0.7095614494147352 2.5973406479275294 11.821861743048574 -1.4370695181510025 -0.6504489905960152 -1.0730280499857971
P 1.0801949570453449 2.41496267285041 6.438542042290911 0.3510591969729244 -1.885911110781739 -1.1993358067768118
P 7.6878806648240605 8.845929445638886 6.091138614066437 1.0187073250560454 0.899845997240747 0.2789510661527647
P 1.7030255472011837 5.931673214496191 11.433045534175124 0.7268308090908644 0.09494903997407518 -0.058848180486459935
P 7.781086735957944 8.811237475469326 12.230550894510943 1.0077428556247419 -0.7690213264159852 -0.49400919030631046
P 5.25416658521713 8.645827282302864 1.2591812434103284 -3.5519437932031535 -2.02145581278999 1.9000367515498437
P 8.954478425787192 5.734643368303045 7.422623899854114 -0.07804275113703979 -0.07944245969804384 0.33522402971288073
Ni 2.3658989820641745 3.1781953549306974 13.267978076325454 0.5856255663627269 -0.8999028186206115 1.1616966562677993
Ni 4.344079011377356 2.5761519318266597 11.875726279558675 0.5050510499427688 -1.3821067887618779 -0.10417518655803348
Ni 3.3442779092956014 6.753279922291125 1.895124744605762 1.568451347030815 -1.2785401823221205 -0.31160536185267623
Ni 1.1849712438023996 8.415160699487712 12.643586114053235 0.8692856079553868 -1.5377009532218355 -1.7705485401483185
Ni 7.0058636125054585 7.3491787111094125 1.1932394188732278 -0.18409895676787003 -2.059332790341421 -1.3328951029239173
Ni 0.6904234349691107 7.5360204174761805 8.431212389265493 -1.4861768172006147 -1.267234013280682 0.3827709262539085
Ni 2.816100834520289 8.797808928200462 2.3008069473751043 -0.5590131059815211 2.0135041620430805 -0.8348451668893301
Ni 9.02906382706425 2.638942997081066 4.305449992856926 -0.1934757699970797 -0.40284687106817724 -1.0760100154322565
Ni 5.395782662638764 1.309899689812727 2.31554099597094 -1.5336532655150232 0.4899792432113109 -1.0795082583935023
Ni 3.4604563213762174 7.666962760872564 5.718600083040244 -0.2649521807705114 -0.06590765843640262 0.7731026955742104
Ni 5.7345779998531965 7.7284464571300004 5.711479591181755 2.177563683661572 -0.5844256325173548 0.3331926011051487
Ni 8.544291402988296 2.084338391867031 -0.022754757392238395 2.948767619551173 1.127791261769606 2.419151992895163
Ni 7.662358954333238 8.593345755424552 9.806229327312233 0.2504197914822913 -1.079574078634431 2.339541125940055
Ni 3.52682397467233 4.766125738648753 12.073906610469155 -1.4847534544905268 0.44283035343965027 -3.19102955781302
Ni 0.3805900563775234 0.4641225307688361 10.480630955223493 -0.5675021172891388 0.01505612300217407 -0.32173576541845883
Ni 0.5816288562163734 3.2714294411145155 8.271697496440362 -0.8031547777645845 0.44265706108657954 0.30454948344715943
Ni 7.010364697195022 2.7087191481192754 6.074750743689436 0.513656789333909 0.26891090830794334 0.2769828866828004
Ni 2.1318612549068394 3.0725412632756783 4.439078979542079 -0.4310953243909092 0.48687849279880024 1.1133519464158246
Ni 7.216490096267078 7.159395424499463 7.817303658678967 0.5321875011482448 -1.8011130431987366 -0.2386127715450342
Ni 8.174165901596508 6.97862364561862 5.295627925285993 1.438522191437129 0.35807136662469946 -1.0170859874025386
Ni 3.665825314100027 1.3419582452883927 4.296224636913316 -0.2556900387422951 -1.6150880730527477 -1.6076776395212893
Ni 3.4743611244939765 7.840338566570557 11.004866312472945 -0.7050466233362374 -1.4625023564018105 -0.2682035978282736
Ni 0.2756344733008846 5.373772171739799 9.732602040742952 0.8354712305091031 -0.7007721643305996 -0.2787340650459522
Ni 8.90285602710689 7.3253192269147345 2.75833100004924 0.49842351732392226 -0.47401012147656435 -0.022420276676729127
P 7.792937102080466 2.1268092075685536 8.243692718690296 0.31334985534760873 0.7850981773731899 -1.0207089288671067
P 6.600327087995779 2.6877825674678215 12.898009459213302 -3.1574447798790395 1.5363768350937732 0.04620195247735914
P 4.049342009360764 4.311544200052794 8.932746217717584 -0.6895909509027994 1.9570303953260684 3.1609965017860397
P 1.9788617288616006 8.774435038204661 9.393098856600162 -0.9116339910146107 0.6241527759036477 2.6994202351974543
P 3.1391517136712284 2.1678045639734975 2.016739010208774 0.89550109000849 -0.8484244482356614 -0.1496394895384197
P 3.746844838512166 5.100597419823211 0.4151167377524661 -0.8552008477275467 -0.3642972929297532 2.625066759986544
P 0.9724117215952627 8.018215456958112 1.035099131164909 0.0020221726363513558 -0.7951630178083596 1.7880492680362432
P 6.790101036255749 6.844319496230032 3.5423190987914017 -0.8644735312787241 -0.7514907737313896 -0.07835256906797473
