# total energy = -340861.13101605943 ev
CRYSTAL
PRIMVEC
9.34059197958405 0.00000000000000 0.00000000000000
0.00000000000000 9.34059197958405 0.00000000000000
0.00000000000000 0.00000000000000 13.67090052362914
PRIMCOORD
 96 1
Ni 5.253896245633589 4.376861350199501 1.5146405253946038 -1.6349069075508873 0.9719911519464293 1.05297524509998
Ni 4.60067127755981 7.602457361437043 10.321516799210265 1.9855572991211676 -0.1298805617439376 -0.06732922137427759
Ni 0.6866708262140514 0.8220234782483055 8.06957757028938 -1.4573146415532838 0.15197790786360924 -1.8607693214087888
Ni 0.3348817102249486 7.951244411124507 7.002399043608866 -1.91226157575081 0.2750974967346294 -0.10245126188839129
Ni 9.077831905752507 4.121246706731273 10.492784961936607 1.0146658079968203 -0.466849342062067 -0.7584260673986423
Ni 3.778503020133921 1.7207892612081128 1.1488190378903977 1.970464409343787 -0.42242093654536284 0.3950178619420616
Ni 5.497573612395232 2.372454350400828 2.836165243135869 0.29697115687926917 -0.23319905672863064 2.1791533967461953
Ni 5.0324775098514385 6.5784762710514775 4.278540409613545 0.9694899827911303 -2.103920347143809 1.0416675333966448
Ni 1.51723907811743 2.5944615434854166 0.9982421547888024 2.0374357331580137 -1.3234763807131786 -0.8364461928278627
Ni 0.19715561373753096 1.2987159258869545 2.920049364568697 -0.43592617012064927 0.22039676275763978 1.3224458825661354
Ni 4.1569931527063115 1.3599995506693505 4.859226339421803 -2.10974800956918 -0.5373070817629972 -1.4876276907145283
Ni 0.5419215385250054 8.188700943546099 9.369296675768108 0.08004821160284277 -0.9948297471074996 0.5590105348783598
Ni 0.3383909706777373 5.531311831068303 6.161188121064265 0.313482267160415 1.841888682454202 0.231980096719865
Ni 2.0072371992056333 5.018083657421981 1.4889660398833446 2.570986433202372 -0.3215694150439236 -1.346301091917178
Ni 5.513994373310863 1.5737683415198167 10.56194644209798 -0.11415646614046146 -2.783083674955381 0.24322044552037464
Ni 0.4535614053568134 7.208648657817078 3.2087240997233772 1.917746510124781 0.6061650810769754 0.8816857813919526
Ni 5.158930445730737 4.235416763996206 5.8217939707947535 0.504211584760609 0.6685768105449775 -0.8039844727547316
Ni 5.61249091702834 5.155324977179295 8.29189300291334 -0.4056689138980046 -0.15712551350281972 0.38017822582606786
Ni 4.918438220875936 8.594381539727932 5.763077140722037 0.6153426338111854 -0.24889101354259066 0.18111082067382356
Ni 4.955679161587324 4.850158492609009 11.651093107343607 0.6787144131996118 -0.7620495230838424 -0.1127485300493413
Ni 3.9076834089070545 7.827883211231029 8.035017379511318 -1.5812024760488963 0.9370316051521088 0.38783342837848045
Ni 0.6697923762854141 8.961616258817198 12.732051809552466 -0.11786014024429381 0.23001345991179742 -0.7801665443995274
Ni 7.63587799997864 2.8070160573625995 2.181273913431061 1.152996043170008 0.8691634805552257 -1.3805687548507966
Ni 5.19268734558801 2.5038764812784855 7.549235601698039 -0.23227860179689025 0.6958513299902145 1.4133055829621852
P 6.270096622798041 9.050155731353753 3.979216465403171 -1.9423062017420163 -2.51470858454625 1.0325282900995378
P 3.852779408530447 5.627557292089154 9.846740107011772 -0.5845289908644384 -0.6400442503229236 -0.7283634436853069
P 2.0515956710988807 6.83505299550623 7.000813945129127 1.2715159284854876 -1.0443296536098403 -0.3969181642885681
P 0.5437186684454646 6.847802903725704 11.399001735216324 -0.2502040759270594 -0.20479942254001507 -0.4044337559393228
P 7.768523748421682 8.95108007092594 8.797142442785981 1.520740156997781 0.5375847609044161 -0.017337977057815302
P 5.911604697916414 2.353548991986018 0.6838845275899714 0.7254406136115571 0.32680675218346295 0.26006065700616504
P 6.40770222564734 3.19338964966923 9.957049697560876 0.8111758482968483 4.115516750641215 -1.4731811762718952
P 9.257731709640474 3.674486186484056 0.3840076203271484 -2.585887775794237 1.7933899635228663 -0.483432957452361
Ni 8.882034414106633 0.905370515635258 0.83533195387549 -0.9128313537568215 0.48805014450939815 -1.414652583908383
Ni 7.404184612884092 3.116385808378867 11.841966238833214 0.29352947818757186 -1.321921120410917 0.40345133742139544
Ni 4.955072023100682 2.7670289825731715 12.485114576147163 -1.1197259682629683 -0.8284696023802893 1.0148936077369102
Ni 2.554707983498543 1.2497525420873328 13.129724716125104 -1.4688727787045284 0.12191991213596422 -1.8629133643349853
Ni 6.296810716210272 7.463609459838154 7.842654423581416 1.0852461893185439 -0.7305583944540966 0.17652422974440568
Ni 7.69019354305281 2.055733553400146 8.764852015888748 0.49673841631201543 -0.3197362184899268 -1.2325539453999934
Ni 8.629595571953146 2.093815147400729 5.866238376135342 -0.05432715268765482 -0.11518002230896938 0.6664399667076328
Ni 8.616079735181295 6.178988487433387 9.121703732797233 -0.7900519218340393 -0.43659337139100296 -1.2394902675085104
Ni 3.444576852481025 6.388787526640428 12.063557775569256 -0.7105719240298408 0.035327214546384315 0.8995518630390958
Ni 6.168134719410656 0.3313780541274214 1.851791999500382 0.7859831510813045 2.034569210243496 0.35095146775046654
Ni 2.071407066947602 0.11428494654778952 6.121569999662873 0.6798084175947389 -0.1039098487117888 2.6986116232532296
Ni 3.4420735737976407 3.2433431362316827 2.7961912451753843 -2.2418579748642684 1.162896075892539 1.8192496048984477
Ni 6.8004461017676565 4.522070195019974 13.626825423447803 -0.7173670925748032 -1.5141375640795989 0.6188660735834116
Ni 7.560163160398377 7.803607012357467 10.673774812922897 0.07654482643527463 -0.018953144063735102 0.9942394218216682
Ni 5.796154979533483 0.2976398354543512 8.409271553565372 -1.4762035080379867 0.9185559149454245 0.39645022351321396
Ni 0.5933853988303804 3.6439050879415227 2.6717997779730376 -1.0299633575858391 0.11976404213522601 2.093884303064045
Ni 7.541930324614925 0.24627031512920808 6.617317255189968 0.1808907342432175 -1.3632521179492199 0.5323713350242767
Ni 7.242321492345434 8.582864589665945 13.47450465180073 0.11409141723048093 0.2680462463148029 -1.1203728578183478
Ni 2.5356251538337915 4.893059832134316 4.953841867120825 1.0677747720066577 0.6637912162308761 -0.46190665334481096
Ni 2.161459715404709 2.3833361401998667 7.253779596677177 -0.48140050040336446 -1.4269303728344715 0.1612703889091287
Ni 1.7055640960815612 7.003118269200734 13.567535081020011 -2.120529673565716 -0.38993247699935424 -0.39954197506466027
Ni 9.230475861886315 5.598498710059276 1.5943008310788265 -2.0937467490449166 1.085206337219544 -1.255153170856748
Ni 6.9393313657349545 5.315319979297517 10.520906682578637 -0.05324471825675346 0.04058563473184623 -0.3357778453338217
Ni 8.270141566084996 5.587177912431435 12.56603212552834 2.482941319436982 1.4986610657105546 -1.3071681304714584
P 3.213938952294024 4.082585996020355 13.172213201479494 0.3703789803474589 0.026801693573876424 -0.11587781970694237
P 7.0483360755673825 3.501199521804433 4.298199553811002 -0.5299159315052486 -0.3222996083417288 0.7066563910255185
P 7.690688594434226 6.191327409600366 6.795121030210205 -0.0039394442637222474 -0.5641144317638285 1.1125189089915677
P 9.230998935044038 5.352663666522028 4.016565756982944 -0.8970717769297195 0.1625996492435135 -1.1141317620046425
P 4.007637084992472 0.22103670556517177 11.060319338064996 -1.279778682714912 0.8385192733068074 -0.0366616170870917
P 0.0778090003295707 8.152338018492316 1.026289150694015 1.4821029042415572 -1.5765222969644073 -1.0008083332884377
P 2.6022889596670424 2.768906441585709 5.233603809291605 0.6494791704835782 0.9216039577431289 -0.9343016078154553
P 1.5751040461904284 3.1844320218432403 9.198574937679744 0.9897181369125471 -1.0176580578559247 2.3848547622751894
Ni 1.6291673932778397 5.7637711467152295 8.93560177575342 1.3857047905257813 0.3888305021844271 0.5606231307811185
Ni 7.090153906408838 5.361471844874384 2.941089048278855 0.4878691388468437 -0.5739105919186438 1.0776305817548149
Ni 0.4787632569077023 2.2900423062833037 12.449610985566782 -1.1152195957521824 -0.050397735726261585 -0.3523329214790255
Ni 1.9547617527755918 9.244860373723672 4.035937210943653 -0.34992971135417156 -1.4490801694586333 -1.093330251878259
Ni 7.9550647132942975 7.485718641344011 5.127585286754244 -0.4926341643356549 -0.05337841562114033 -1.4381609514429683
Ni 4.24452384129583 3.353599485405802 9.552487170253674 -1.0051612109404948 1.2054925704068271 0.2924447297638254
Ni 8.073363312268393 8.415761396957965 2.5036205490548857 -2.0175045414517254 0.6399105529585366 1.053023324729096
Ni 7.4949378057488625 4.073703092931183 6.945788517055191 -0.7318089790317461 -0.729979382022175 -0.38297738583775975
Ni 2.312132806604957 8.151441321650506 10.97647538117821 -0.860880414610827 0.4340958017801298 -0.4114366696197172
Ni 7.040050970372749 6.6710602199682745 0.9808518404129657 -1.1102712506079717 -0.5100783279540313 -0.05064224763689988
Ni 9.383465419927905 0.9380009400850098 10.13586599276499 -0.7208005437363844 0.9511793574074004 3.1895342042144166
Ni 3.627839269525775 8.742187069152811 13.0008488306545 1.360139283351851 -1.9993301845355438 0.3186087897537029
Ni 7.580039940391814 1.1535631246190945 3.931764389405682 0.7119628908400965 1.4616070982810505 0.7725789618602565
Ni 2.721521617851356 7.252568121881524 4.606082282564602 0.010969097416994011 -1.1765113526831286 1.0707389968413044
Ni 2.6608077691871928 8.818443663075 1.457318245722742 -1.1756680308462268 0.44894829341193004 0.34506081329764443
Ni 2.81486215472843 0.6050807542015186 9.02991653638675 0.8360399585283795 0.1493307000487493 0.6501602557110029
Ni 3.363098867573718 4.224021241631548 7.32426744091706 0.3732179924581508 1.9384166368796232 0.6209049583903113
Ni 4.327029291334377 8.423934415047372 3.354538214912071 -0.5689990135496394 1.8470452869544771 -2.136728137702449
Ni 6.094017121079866 1.928869631468352 5.6669988762998145 1.7835657783435928 0.5576776749995492 -0.8980485390206921
Ni 0.6336601638565554 3.58070664177818 5.0184236549745 0.13773811011514342 -1.0560328009793813 0.09963873214026066
Ni 2.4877079163496134 2.39603934545883 11.174552911356225 0.36256308384746594 0.5850141580309731 -1.4483798009574993
Ni 3.551750806261426 6.798026888413193 1.0949163489871439 2.422118017502022 -1.1580256351741154 0.4673283385810145
Ni 1.3785312854000733 4.754594894811616 12.274117138973414 -0.3771389247791118 0.07760206405519539 0.24025930600952167
Ni 0.2731796269163753 4.101071027790566 7.958515128016842 -1.1239541474117032 -0.6957472003121824 -0.7054240612803141
P 8.158689621121797 0.7379600174471157 12.19166866654669 0.15824805714303714 1.0733988030616546 -0.8326669282910886
P 2.1713607430330186 1.1715624455999933 2.5935480335778234 2.7337460050625175 3.1706808189533398 -2.388010277185036
P 4.596850975390018 6.521040970215179 6.599544910597151 0.9633561019792506 -2.3285560876834603 -1.5915246839105106
P 9.37328417453653 9.13399688606291 5.067160062386039 -0.5447774219981134 1.2790621162638618 0.056496649535147866
P 3.553768374155496 5.599983864203521 2.9144580861363325 0.35960322988819354 -0.4244500511602496 0.9076593226375788
P 3.963670917967515 0.782291401623267 7.017915635209006 0.3165151404494678 0.15664446010134314 1.3741222278945044
P 5.211658088147535 8.227679234388491 0.9074151712464249 -1.3342811846381666 -1.9399963226619168 -1.1308457323252137
P 6.04044882537387 6.669248145100451 12.263850894193908 1.2791117385548745 0.09084221689455323 0.04253401670746868
