# total energy = -381167.17260614637 ev
CRYSTAL
PRIMVEC
9.20717828299904 0.00000000000000 0.00000000000000
0.00000000000000 9.20717828299904 0.00000000000000
0.00000000000000 0.00000000000000 13.47563609301133
PRIMCOORD
 96 1
Ni 5.829046016137457 2.1789431384099176 7.874312898431425 -0.1818746954230416 1.454243715937444 1.3359644858778605
Ni 4.984489986947258 3.9784952976334216 10.889741974460973 -0.1251700436421457 0.4745827061505826 0.637360018622541
Ni 7.190934966225734 1.0750209032380347 6.129850968418813 -0.6496712318897263 0.0820996948152328 -0.9359396576395106
Ni 1.8480647804275332 5.546044984072884 3.106039677482424 -2.9759292675676297 -0.752103210504408 -2.410120221710198
Ni -0.16097738050277474 0.6884142586051233 1.9073277027357227 1.4020891454210758 0.15702935424458764 1.686848076504869
Ni 5.458088812055027 5.824939614722198 5.949061582164124 -0.30920883659604165 -0.028740048247169855 0.9931649578105669
Ni 8.77450514249154 9.25247737717834 10.854557664218218 1.0942620196639088 0.9644557628013326 -0.9068429973838705
Ni 5.789344664337917 6.413342743074043 1.3994579194488614 0.24816416267889518 1.116325941442484 -1.0318340922459908
Ni 6.514750602239193 4.61495068828624 2.7930011477112613 -1.4916632942364827 -1.4237954267499158 -0.3168501551913833
Ni 5.36395462355816 0.1866156885317629 7.333252158952042 -2.2062780208771295 -1.073771355909725 -1.5082939608146282
Ni 6.03939320612175 0.22095017623947671 9.715825850950667 -0.1311494011540322 0.237288653416972 0.06554564711129356
Ni 7.733504762189335 2.6342749222444297 1.8132819031482428 0.5656851186850581 1.5284192708095934 1.6610156888227974
Ni 8.178717857334679 7.595139290286859 8.986995763528462 -0.8899462216285319 1.236528099556393 0.7023181686614808
Ni 4.932865339558571 4.29457772047159 0.6892815747784805 1.7782909030978986 0.3825688375454314 -0.4234748317311739
Ni 4.473022038474111 7.536765781379374 12.264580820492212 1.0563673015006647 -0.3513715860070207 2.154483661913657
Ni 9.16696110734668 1.988465038681516 13.362803812444263 -0.5072357162989135 0.07727090596802176 -0.1271107123082843
Ni 3.209567029037243 6.594650493453572 0.8407663547002431 1.188594766210224 -2.562319501555993 1.1359213470759082
Ni 2.2569371437656454 8.395813908837772 0.23293423920382744 -0.3116593550190633 3.015563851240116 -0.08877325018066647
Ni 6.8793180247472066 3.44638485594725 9.774660639479015 -0.47604797784219943 -2.932067533187673 -1.5083209573978218
Ni 2.513706925534094 1.7099202807985239 0.7946475997921048 0.06231299910660882 -1.8971332047498037 -1.005211604562456
Ni 7.814408235812376 5.921550534117506 7.335556715620739 0.06685562417196873 -0.5782408438628815 0.08899487927316932
Ni 7.831119263993305 5.426462155415088 0.3584428076617587 -0.9785253535205212 -1.1322310427085145 2.4350858905166
Ni 3.5546704771240543 8.63289874391155 9.072781803677314 0.7044025619943352 -0.5619809303605935 1.1783198666467771
Ni 9.253121879642618 8.63536626763193 13.213318831597375 -0.11759248840520392 0.8518897810764426 -0.08989990758594195
P 2.813695201121429 4.833151601156667 13.058955887813708 -0.09616671443126018 -0.1054432546371797 -0.8493988963337887
Ni 1.1929372326667682 -0.045253280170393206 8.447189041701002 -0.9226827926296045 0.48902793504163516 1.1968618913150226
P 2.8887889453879043 5.400415048680186 6.538365172530348 -1.0128269550158686 -0.08744861783197197 0.6500070179625903
Ni 4.519684016887856 0.09340590071223236 0.5941244687990236 0.14359199779275916 0.1574571858106256 -1.8473556191060443
P 7.459278170817007 0.16756511640550442 8.051598032716052 -0.5207633184717032 0.13938772990342446 0.42458811940001073
P 7.598960269182223 7.534730995027867 0.41250551580102923 -1.3097587740167702 -0.2986452021475824 0.48970413517305345
P 3.078852722103556 -0.1703447634621558 2.1344871998596173 0.6739686709845103 0.5562499414140871 0.7483856524435046
Ni 5.483509830681773 8.604181555538926 2.453562876285455 -0.15110733233319784 0.3098423564149825 0.8798227600412847
Ni 5.9567495758451585 5.858637886425889 12.335515682428479 -0.03013564304311584 0.5476706843855084 -0.15919268044449358
Ni 0.8045379504653574 6.932369784735367 7.84225442514042 1.0752764797003416 -1.4656028497040048 -0.6602461791920952
Ni 8.110658397106898 8.051732457515744 6.494878749829883 0.4278241098388051 -0.8234634074149496 -0.5410698912395391
Ni 3.8005757887803844 2.837597035368091 6.284483682519671 0.6963678646153169 0.6491510977201981 -0.5726119277118783
Ni 5.9310155131643345 7.4477784054186715 8.100151165503549 1.415304101449453 -1.1779961647587711 -1.491416211222683
Ni 9.080570155599213 9.28682015134631 4.663607862185828 0.5742440639986626 0.5272121594208404 -0.026368719801515873
Ni 7.615339838952951 5.4481358525709584 9.917448319004246 -0.006769714623665761 2.559421096962276 -0.20388051027017146
Ni 0.6227127566787939 4.938969698613092 6.395941176538531 0.4261690907338854 -0.729131432199583 1.1076070735122474
Ni 6.9790041416149275 1.166696775192583 3.711203552776728 -0.35233394992028993 0.25655264385290655 -1.4162325268009932
Ni 7.4243185157189435 4.190490572490655 11.935438015574348 -0.19925715256554716 -1.2940573041211132 0.4818782113707314
Ni 0.7025666120028672 4.7637478929319625 10.404403997325279 -0.298472424015144 0.2630022561329922 -0.2811817552554964
Ni 2.169938518266145 8.298982017168997 6.533055392942501 0.37376332343865953 -0.8762692383620715 0.16465910287570354
Ni 3.212936856207612 6.991102373587236 3.8452729553958864 0.08683720950021818 2.540338112188896 -0.06628895303522132
Ni 5.451376779248473 6.569376789675804 3.7614268676645124 0.4913105604282248 -1.224919054562555 -0.4735318962885651
Ni 3.997231904987796 3.52752771619988 8.797245030866888 0.7608719578359735 0.40903808748055365 -0.9784963000547986
Ni 5.851714088523928 3.21884786452285 4.628840637109242 -0.06560401115305475 -0.20299013724541817 0.6649330431448033
Ni 3.152464110702191 5.680755206285096 10.790116624968455 -0.08416840441880344 0.015346400549083247 0.2093104230364911
Ni 5.267371325697036 7.03190858675411 10.139217013373354 -0.14086997087590578 -0.7299354161581171 1.4686830312912253
Ni 2.783007676643724 8.279241827405961 11.306206576828284 -1.5775062581442316 1.7225702124968267 -1.7603656860780459
Ni 3.9714518064166664 2.8139806236413234 12.677770429623182 2.3303160077973613 -0.33880120554117776 0.20064323427979638
Ni 4.762550959784017 0.7485555457003438 11.729004796983835 -0.5180258649358821 -0.30324670547533583 -0.5302692010796094
Ni 8.699346947978636 1.6802547530856027 8.84197073973438 -0.08533259993023368 0.3896244588406322 -0.16561349636917283
Ni 3.780900049263776 6.509659032771395 8.102320376654749 -0.5235169699574402 -0.49576756775831393 -0.23858860317531816
Ni 1.9549969464293533 1.8150570470784262 2.9336058053182006 -2.414555374663416 -0.9512063539905942 0.20172489737974936
P 1.2234774422954955 1.0316550945701706 6.3940003034032475 -0.8384948478267752 -0.4862328887950013 0.14973513457601953
Ni 8.571311929860736 6.596676072627018 11.973856807469973 -2.040647555227092 0.38137944522302064 -1.4599826753037501
P 8.791262206562774 2.2202005033017858 4.136467455217048 0.6451489185393406 0.734983777215302 -0.49510602291491507
Ni 5.123168502903812 1.9866328102473534 1.9483880340170832 0.8166834083786387 0.3293094640006587 -0.4123607240958833
P 7.659442221865706 6.445687559602749 4.67782466583 -0.29306719383917273 1.1914674597723287 0.688674352625801
P 5.08904670100931 1.1346926242521382 5.230042663683847 -0.32842731850602147 0.06919738493126792 -0.0804171649064873
P 1.4516129002938685 0.7197186640129232 11.934481389773799 -0.35273812733724413 0.2480708316341405 -0.00471925985254026
Ni 0.9775997521733489 6.859660699586721 5.194035231722428 -0.5123840932690723 0.31067230851544564 -1.2050359424853827
Ni 7.19675390276036 0.5480093967621098 0.7049494296850844 -1.9167990586098473 -0.9281034494245436 -0.5766475312338327
Ni 0.575872159010664 6.564349670454434 1.1717284980029838 0.21415103895824408 0.544282741749882 0.08470705053109283
Ni 7.989353826151673 4.370573768188056 4.876159250597953 0.5905541140125959 -1.0959152389966158 0.15485522941140428
Ni 3.180859047842678 4.7007523806377955 4.566178424660888 1.0527677570748644 1.0149182903272584 3.111160294990203
Ni 2.116748650607068 4.606516913182256 8.64017333529764 -0.6928701358747035 2.8061120175297547 -0.3555108049863748
Ni 1.4888743499072115 6.734590392804499 12.409834182302209 1.8002681786999382 -1.5390525821537235 -0.2712678385758941
Ni 1.8020104757658226 2.411415177275077 9.90895838011409 1.3058010749206028 -0.6143812983391806 -0.4277343783384763
Ni 2.7368705073794635 0.7788471615214206 4.942270471948002 0.8449521734163449 0.19068972261151032 -0.6045810244193072
Ni 3.7226186121369014 2.812931005342356 3.7353383286283357 1.5611872092692338 -1.6794224734647591 0.17368238942023634
Ni 2.9815512643536644 3.711634448709988 1.6929302751223434 -1.2892544834158313 0.4544386271025399 -0.24849094989069462
Ni 0.834612276884192 7.291587836789872 10.160076795988624 1.35475462200117 -0.4856525908114991 0.6169557439345762
Ni 1.578368120661275 3.1068241290532312 5.085220197807109 -0.5415350038014157 -0.7818274770417181 -0.8576220555745294
Ni 1.257470343697142 8.319145737122845 2.9290233927971827 0.4664420793213192 -0.847617893173966 0.32151773587038174
Ni 6.3379359547534895 8.374701849543628 4.650333873575115 1.3686475779331786 0.6032407083413288 1.358843704468879
Ni 8.801003400951437 2.5498450994239805 6.429118321963962 -0.05577159844366524 0.8898248655593192 -0.18981246221287956
Ni 8.516658120889941 5.481235657700677 2.87871905474246 1.2984718882490411 0.694746784072126 -0.42536382122377064
Ni 1.8773436066618872 2.812700825890828 12.340758249616481 -1.6803344437560672 0.47400883592498366 -1.410215631182952
Ni 6.931679246380783 1.725498826077935 11.541316472207953 -0.5984047204052663 -0.2634419147735721 0.8172871034009086
Ni 6.928088446936947 8.459674895869684 11.855055668229566 -1.6042889255547146 -0.7639295137153747 0.8800230489775489
Ni 8.938917721128917 2.612812990183964 10.957605321796054 0.9108102095617346 0.25527557691269587 0.5805306683383228
Ni 1.6476337212150631 2.807618463601091 7.4880874309702445 -0.410062672090326 0.3260755304443933 0.5155347230829121
Ni 6.797981813755293 3.950892177806191 6.843008597345384 -0.5627152374234566 -0.5609296062779436 0.782623233470136
Ni 3.1091627522807554 1.0735201332140725 7.689265192323471 1.2093705653049946 0.5531769589157182 0.11520033402394353
Ni 0.44419109838055953 4.656640790546981 12.663095108511566 1.0046338776821149 -1.0588669279940666 0.9343180628756876
P 6.627354389926661 2.558637954472348 13.575759395973272 -1.3478414398211045 1.0072250354480587 -1.3578949674023646
Ni 8.01800656427787 7.8577003870557505 2.86726532523443 -0.401924616364224 0.027540114401797728 -0.5610260226464918
P 8.670160193524895 3.901090551673606 8.557069346117991 0.9443659340299928 0.6563496723511664 -0.8478318089569848
Ni 4.225754064464736 8.192123508591667 5.535413455565711 0.5650991642746009 -0.24307543530207812 0.52704349505346
P 5.6201167315745755 5.242401458795285 8.678120719676537 0.12748943580394173 -0.2741323046078827 -0.0005481591939861528
P 4.122606048646035 1.7843234867104156 9.875134890788766 0.3712495558778703 -1.3372544083338775 0.6092478337673572
P 4.166340144436345 5.063312638328485 2.7310129006969803 1.7352236395947793 1.2730315937990657 -0.6365151541237425
Ni 0.6836854519529332 4.053736356748876 1.5312770877498827 -0.7015735771859725 -0.7876610530043596 -0.34230536203969436
