# total energy = -340864.384064074 ev
CRYSTAL
PRIMVEC
9.28566135748983 0.00000000000000 0.00000000000000

0.00000000000000 9.28566135748983 0.00000000000000

0.00000000000000 0.00000000000000 13.59050400572369

PRIMCOORD
 96 1
Ni 5.73781445819964 0.2834383140047179 8.158692239436544 -0.06576419088000288 0.8267557050129761 -0.7629370678951184
Ni 5.122630105368403 4.441043987928386 9.750697527943952 1.1828010423465822 -1.7285845370117068 0.3582888819521442
Ni 0.20421862241146757 2.26805065179527 2.7240128401847254 -0.2583282476960906 0.9107752425587412 0.580511127954297
Ni 8.75770654152107 7.992168759442827 5.121758181763765 -1.2970289851549277 -1.2659371488461295 2.568423300460886
Ni 5.7963884102556005 2.3578151404644156 5.216144144107331 0.23336514999284969 1.6163044619583518 1.3237077799976944
Ni 2.861376557711522 2.2018160290915336 1.788877095626124 1.1811779049208624 -1.0068558250340982 -1.0611858059352304
Ni 0.10681760581416354 4.345132391418237 11.561740425877112 -0.8738027790994499 -1.5557251577133981 -2.1466906482317993
Ni 3.4687330979899427 6.307220500372051 3.2417153911645564 0.10383014451378891 1.5660432518099545 2.1523792139761446
Ni 1.6221586167431912 4.709251031553047 7.493409886267272 0.2972094981423204 0.7945158711426639 0.41189458309274224
Ni 8.085229657905865 2.0148863796244214 0.6788514901602958 0.1553437390120486 0.1394725763077469 -1.3278603687134873
Ni 8.05426197716607 1.3147475107247013 4.884590318471611 -0.2507614910924262 2.2581495129354403 2.262028279164556
Ni 7.126485119260027 9.003414427594752 10.793238660682784 -0.20368279243706858 -0.6332755641405222 -1.0300543746377486
Ni 5.392285712170098 1.5041657174446668 0.6189255458057701 -0.621434091420904 0.8801472332602389 1.4750449689535112
Ni 0.966767350087871 0.5017683560324574 5.5066414179016725 -0.31233401248858467 -0.7703827255398862 1.1064732170181202
Ni 7.935804794797982 8.611949514662731 8.390899702413495 -1.8592734535895528 -4.025559507454776 0.25753120571609195
Ni 1.0920587792399123 0.6858435931879016 1.0285689980434276 -1.278860798886333 -1.4846171860229787 1.536985672322366
Ni 8.432912677378175 6.099518826372728 12.708276323367167 -2.96811517083985 0.12085573253750799 -0.2793009932930158
Ni 4.854218777193133 9.549559887982097 5.451423303872507 0.9554687288113738 -0.5575714884389882 1.1647367286457038
Ni 6.345449568319798 5.455911064022895 0.38126368532760174 -1.3651290232569586 0.08551797646816241 0.08722467474662397
Ni 5.673056255657112 8.444965465864009 1.6043320040042828 0.46324336987836345 -0.48219857082462764 -1.6858759423995868
Ni 0.6947875422399469 5.073146815814469 5.031435624845005 1.3474861133642149 2.4498000567983227 -0.2841251541545365
Ni 2.311971830175849 8.16325707057648 1.914507451418946 0.7013663462711728 0.09063704286228261 0.6930879083124644
Ni 6.605624514841035 1.2967054706415162 3.158609650279071 -0.7974512996219041 -2.518084442997018 -1.0172780488086868
Ni 1.9343889810237362 9.184215540543644 12.499104729169611 2.9516454553196003 -0.45826185750337206 -0.6087827212054805
P 1.1192843384390367 5.193683986334194 9.706487565494106 -0.028258480625061005 -0.2873907122796857 -0.057344599357739945
P 0.8072044018730299 9.038904225432082 7.8019956284517535 1.4106840861789383 -0.5097811084285866 -2.7552653671915324
P 4.6540849172276735 2.6406006724733295 3.319684304168406 -1.2170486506755427 -0.745834860997193 -0.27571173327986065
P 0.5265341435290415 1.6651698003074284 11.323757281514807 0.1954920290961601 0.4804705323899273 -0.08400205404426822
P 1.2769455832009513 3.686472571953199 1.4052446380776162 -0.37816119539603904 0.4287093406572359 -0.4103346948047901
P 7.318410454555628 1.49007008345276 9.442396855564182 0.21993447840924057 -0.6633857532623414 0.20156111810837543
P 0.26705190734759143 3.1293607454627943 7.116558747232788 -1.4222957022759377 -0.6105688665716259 1.2036295490561593
P 4.642524268795576 2.175946176455531 10.726115400183906 -1.6774622644145951 1.3153357538839154 -1.539001160090498
Ni 1.2489493141063537 2.336504547571513 13.214590939216778 -0.365712428109725 1.607017123119155 -0.7570453850010317
Ni 6.648384985547708 6.918059163672187 6.791269957337738 1.01230219286065 1.0180208405119822 1.300718518191373
Ni 1.4744423153312982 7.362238776322296 6.589518535157924 -0.2820001373917337 -0.027585108707120234 -1.9312751407388355
Ni 2.8440680848782454 1.6637119514690035 5.119896406654821 1.3793927322648245 -2.272176937562784 -1.7175506477950484
Ni 6.324101832781331 5.38086434865887 11.483283087084082 1.2637532538209333 -0.27388470737345083 0.9206660193098918
Ni 7.429179109291765 3.6269421967739404 10.188298249498363 0.044846209780413086 -0.7980282551712966 0.5705002806855142
Ni 8.995967327158976 9.364682369682452 3.4591094385240586 0.7732266227465845 -1.6926849949016205 -4.260475289764199
Ni 3.9058648936440967 7.182171230623311 6.650159475439575 0.862977663459488 1.6205352122102479 1.836934166662404
Ni 6.859856638071877 3.021944214488896 7.9042233318402255 -1.2469027579224978 0.43756524838596894 -0.4087796916128444
Ni 5.186868310873021 7.117338742789653 8.85063929785691 0.5284493742620512 0.5194230023937247 -0.8950516611758972
Ni 3.0195577995113463 8.500865147439292 4.713635720861992 -0.6868442413955977 -2.063626532620768 0.2572522410230924
Ni 1.3858478199974487 5.838554598633236 2.0853404068643386 -0.6735956039158076 0.03395707367173507 -0.003184825485884837
Ni 4.161109153966584 0.42490907956486107 2.949261628515081 0.03320682576927185 0.3140013728886786 -0.006293032097563356
Ni 0.574446299175577 2.594952361073979 9.278807644570097 -0.8474703118525082 1.331601323813158 -0.24099129907953978
Ni 8.276133570448428 1.1476984622962403 7.3109169258128945 1.5146322443278302 2.3258546295918974 -0.7914567726013659
Ni 7.678489831985248 5.458316050323226 2.5205899989544878 -0.8846507775575474 1.1343210924683238 0.7432231344059588
Ni 6.280923507312051 2.169084072687402 12.021439164410403 0.6549864734550527 1.1289983947038298 -0.6954106429083701
Ni 8.465579634152569 4.388691429004558 0.8298010588686198 2.5740853838426703 -0.9536851545483898 -0.8378111914961893
Ni 6.795729860503952 9.533124267319598 12.982872830595143 1.2814321591579352 -1.2732246836464782 1.7496606409557158
Ni 3.229515889228741 9.077941145920867 8.04141990746198 1.0357743078406614 -1.4883365438560947 1.1859246755772286
Ni 1.815643943152521 7.06308262328062 8.74834380914028 -0.5658962062545996 1.4019086539791534 1.2467929718175108
Ni 0.058373381769909825 7.318020456777196 10.559142494178852 -1.1410010755916609 -0.9706518643097153 0.5806242564933936
Ni 6.762208622881565 3.2286523227193555 2.204814369154766 -0.5361541991054766 1.410017656239533 -1.0864250401179933
Ni 0.20641932416119219 0.1917600505228369 9.650073458277747 0.5787733193275839 1.5866933239601382 3.08788486940203
P 6.570339001554311 4.545080538155871 6.350828751963745 -0.44934398618845195 0.8967539885789847 0.35586356034010325
P 4.861981590116212 3.575443918698107 0.3294450519337703 0.5078203851577899 -0.22644271184140355 0.09052494276445054
P 3.31183327746211 8.400412862508825 10.244820998953 -0.13690995778689324 -0.45144072081648057 -0.231092294798273
P 7.819891883651096 3.421933364578078 4.161439723512112 0.544288655287153 0.3098899218234663 -0.32946321596970357
P 6.242090871373873 7.569392596299534 13.008422327913149 -0.5929550101446046 -2.0176377245954797 -1.0694367330901131
P 7.121925859516927 6.513037185108952 9.779984503971932 0.1558638731815767 0.729965498065104 -0.7827885554034067
P 6.935553349733289 9.167315636811582 6.0472442670045865 -0.8875242424506006 -1.3656401585654223 0.3622075002802601
P 7.897362156638236 9.376568016263242 1.4464237606493615 -0.5943719450967893 -0.3290335846314527 0.48077957898991397
Ni 4.764120004713902 6.900843547452824 11.088370408077493 -0.7352331742219467 1.3390289837357972 1.4206985329921469
Ni 2.2843841301824663 3.8666422599274863 3.2729198562698283 -0.5859032455041457 0.4274271315107026 1.9316330382988862
Ni 6.0840674858177 8.072313302910645 3.807719167003215 0.26968661013170325 -0.31262506136644225 1.1021877022688888
Ni 5.390753578040544 6.124367256255694 5.1843695393926374 -1.7375600010374397 1.0928543406831048 0.39169908198147385
Ni 2.8866056997115295 6.712251764596679 0.22582078507205522 0.26231011516197406 0.5112268397361777 -0.472285939696606
Ni 3.5252734902012213 2.338825962919324 12.597092599566842 1.1862874582332859 -1.2413915982962813 1.4964026086936808
Ni 2.4250619002597973 3.7004846349925846 11.267506601938935 -1.4259795788854281 1.2338040157570107 -2.4994362317682115
Ni 2.4340225635023467 1.5420790729051117 10.331745932368703 1.4024231317217266 -2.578049510696741 0.42289376241672333
Ni 4.688971147074573 0.28219124967987397 11.938863634790359 -1.025198589207344 -1.4146317579727765 -0.681264176204659
Ni 7.79347417699301 5.725594527808765 4.83870893697134 -1.180527415821057 -0.9813877626699808 1.3202151934634037
Ni 2.3086104207522196 6.44870612299042 11.285881068699927 -0.5273265735115177 0.9329116694464643 0.42476552551813945
Ni 3.8225167969963003 4.828395352864086 12.5810831907622 1.7583558547368685 1.1614027791764643 0.1279211240247216
Ni 8.145372886736945 5.1195844084320745 8.393902685307424 0.7718166297729352 0.01782854354098865 -0.17538188860984633
Ni 1.5287262918245044 4.926470508478394 13.07621229889992 0.11446859806424159 0.36286955934429116 2.4968908396385383
Ni 3.1051344548930415 3.200962480450669 8.893326411838592 1.230355652197094 0.3679549442869986 -0.23508650355933058
Ni 0.9671387765435207 2.9622931257115512 5.2245978102379205 -0.7350832789076437 -1.6492883730835401 -1.1274343926508197
Ni 9.031373554043785 0.016314907064413905 12.457843892777625 -1.2851147502158449 -0.38632753325691527 0.28263468565193905
Ni 3.5098407209689753 3.6309628881563487 5.36553093600351 1.3959629779186797 1.994079734769882 0.671478814683121
Ni 4.249647935332085 4.793109839577363 7.4947145216927415 1.4259060453350154 -0.26190953728944566 -2.001081620009012
Ni 2.187608967162932 1.6194286322941658 7.421067155500376 -1.7742879525860926 1.3781676016084716 -0.43397136038712353
Ni 3.3914021099236713 5.630017215108701 9.366534859130004 -1.2098256505645422 0.023227088848740644 0.5510560559179736
Ni 3.8325545969602337 4.708359608059488 1.820080632165257 1.0488367974515742 -0.6330567632614968 -2.0314844006705854
Ni 8.932676259116263 7.428454827703249 1.1917106401584536 -0.07680245097203547 0.5058781738297545 1.320937159231093
Ni 5.547560541954463 4.5508005055728775 3.8052055384646053 0.24747253592850932 -2.1894545215618875 -0.9531076847783649
P 9.105398846654774 6.750805830693119 3.4776064760154144 1.6470993358520212 0.23191813313367798 -0.959349809033335
P 7.484503079860791 3.84261096824695 12.61423021623052 0.2742120088058826 0.2166072138082205 -0.5605668236218861
P 3.7390294154276345 9.421696330624684 0.5061335454524808 -1.2472519137318003 -0.6413272308004052 0.49405238483942004
P 1.8482087576516102 0.39263397770117875 3.413051629457354 -0.12702483746269735 1.3550670110352663 -0.5695191477191676
P 0.7606860240013199 7.18552335438555 12.970192331399263 3.628911051887828 1.6944382301473013 -0.7405728412673053
P 5.573671821786639 6.154536370115842 2.403901735081433 -0.25885738072668324 1.6408351001098647 -0.23900717876997546
P 3.154617744446975 5.7188717089615055 5.498079109532807 -1.685648142659497 -0.23949363148809075 -1.0138952483793828
P 4.477898777990229 2.072076768133087 7.379195322588844 -0.42481514780915225 -0.22050089243567184 -0.5448028759194101
