# total energy = -340853.2738620319 ev
CRYSTAL
PRIMVEC
9.41312896870518 0.00000000000000 0.00000000000000

0.00000000000000 9.41312896870518 0.00000000000000

0.00000000000000 0.00000000000000 13.77706573935637

PRIMCOORD
 96 1
Ni 2.969465695795686 4.609373976379739 5.123153856666822 -2.3486973385180256 -0.36430269224639195 -0.17138536585594355
Ni 1.7738947597381638 -0.024362119340926944 9.94099381332552 -0.9207752911942465 0.38426036631524146 -0.04486163639938081
Ni 3.400624659626997 3.5582098533546187 10.820989597377872 -0.9662871595831165 -0.5086161415862079 -0.6555467168338968
Ni 7.456704322517943 7.210438039840561 8.543764471931027 0.3777228223070398 0.2959038919570194 0.5795248527816277
Ni 6.765149969278161 0.6440952391046693 6.0156314498633625 -0.567044718036746 1.607217412055419 -0.41788062547284804
Ni 1.5373710656461768 6.55144370004704 13.822530530472816 -0.8889319214314045 0.04379488569776328 -1.0323537121948867
Ni 1.162766181255493 8.835699491594784 7.516656541552124 0.5745238000226106 -0.5872877845564982 0.32140332177970454
Ni 4.717107238563159 0.7520195878081698 2.247300788139629 0.5429946190660778 -0.15055043138846327 -0.9660663018215622
Ni 2.5474186409022113 1.9564153323669546 4.501532463212037 -0.33978799493447936 0.7477099665327187 -3.4222918025302542
Ni 7.489104312770047 0.920740513223252 2.9228462327734395 -1.1351520730100515 0.6358260984765178 -0.7245808367144231
Ni 4.026748352715014 0.07929525795604285 5.139258779189288 1.0298646272244458 1.3517358897795044 0.8756555160374725
Ni 3.168920487617833 8.874199189482962 3.3763039580539695 -1.6020068143887571 -0.9492577149046555 -2.0943028786587026
Ni 0.3426011868723431 2.2757274966121246 3.302844840120095 1.0641837122212898 -1.3407701347966199 -0.3124895642298425
Ni 8.390072548385936 3.7918060643064537 6.252459188024246 0.6991228016526346 0.14374189310706212 0.5215750157397211
Ni 4.156866035822172 5.932991707149454 3.3263484820900193 -1.6264250953321213 1.0616941130302169 -3.2518281771576323
Ni 1.032027231629847 1.5617981355776733 0.41482718489830744 0.01924933514791524 0.8916565194514193 -0.27048005256727614
Ni 2.7709804562675435 6.055174122452275 8.897876974340644 1.154295478707722 -0.07485972542336784 0.007109614461587755
Ni 0.4669533284253416 4.0018412132010495 1.1897856269323204 1.0369323327045046 -0.7534365846038509 2.8906174935730027
Ni 6.547687861548902 2.8096401773498765 1.988154520958484 -1.1096235897216438 -0.5332622222696622 0.7099808274130612
Ni 5.992388551568623 7.657957021992082 10.804622989867317 -2.2390194769742084 -1.7767652104819915 0.08552029046100755
Ni 2.2932076772914263 6.890570500980379 4.367357721476566 -0.7494315772095158 -0.297262719977759 1.2626754473757222
Ni 8.19009062133598 0.17488087707719063 0.5125938260245141 0.060371301999205707 0.42548877683740916 -1.0991440303465587
Ni 6.99460440344007 1.8181552926159654 13.210663021358307 0.3599071342818576 -1.5657869128247743 -0.27526230444726785
Ni 4.285449378891242 2.3257394513504823 5.946553202197742 -3.2412863970860433 -0.7705277357581827 1.2089285926715696
P 9.664930270583339 6.816235020730272 7.5169596443081135 -0.7451650886236779 0.026033447949284194 0.40239487113242306
P 6.609212073137441 6.236631011496381 1.078988391237262 0.16140434338383172 -0.11485452064875057 -0.920356715599589
P 9.321642866601938 0.6009849905989788 8.916599688056923 -0.604020781040463 0.22356950405866657 0.1474388823426751
P 9.60572168874553 6.67467097267641 11.950805120330783 -0.7152680439539294 -0.6579185595001831 1.0485305790650652
P 6.441808985791882 5.261383774404794 7.609886054467547 0.8979922318614599 -0.2655952136711491 0.10191055889357287
P 1.1037458619990455 3.14784449163455 10.951596763196566 -0.12789027078678622 -0.12792086691440552 1.152032393705158
P 8.491028357640385 0.20538694576081032 4.493982192386583 0.8696777011874829 -0.7267811867998515 1.7147604866444208
P 3.9101949885948653 4.596120290651975 13.223930826779672 -2.024755309476868 0.14826394934713175 0.10937678536363099
Ni 5.039177449625257 6.755859210888031 8.38797342060377 1.2751054456089588 0.6866575793060885 0.9344756714994745
Ni -0.1014339962111049 6.307370676442506 5.327963777615763 1.4869818296004131 -0.3316026309102096 0.6098957517640012
Ni 8.354735661864611 5.569946145254292 10.717923364586374 0.08170554470060767 1.095859960278648 -0.49781442298501366
Ni 5.198344049036304 4.67487052843498 1.6546398275754948 0.19993618091044277 -0.01764805209906638 -0.5588652675497471
Ni 3.399457431622564 8.350688016365366 8.378192238189195 -1.4369831290847832 -0.634358769902372 0.4336294036666725
Ni 6.536627434893986 2.493763805214532 11.120599141170782 -1.8475065428616115 -0.47067745755890555 -2.7844980388044047
Ni 2.9518066656640913 3.633637256576615 1.5906860873745012 -0.1057121920278502 -0.061406171021623275 -0.09428955201320535
Ni 1.6602971181453714 7.475370557459815 2.175647108361 -0.8206241381939415 -2.0093541444304495 1.1138535686425912
Ni 6.965141309457186 6.963211617998243 6.274296706149132 0.07627023261764929 -0.3716552759567212 -0.6301485884757664
Ni 1.1407582854944764 8.966033676670506 4.561214525441966 -0.3287435641948596 0.052514782069264396 0.8573829429805297
Ni 8.335909403728584 8.762098235411985 6.8698512625887735 0.7936483809360461 -0.4778415794075126 0.5615872944666006
Ni 8.35024559929917 5.147146040035376 8.532922429870489 0.8195303909091305 -1.2252116461023093 -1.9561045410776892
Ni 4.500614683127905 3.8885636179965695 3.8995157936672036 2.398938236951449 -3.148770392033493 -1.1442699761509196
Ni 5.004621852816578 6.474689045626454 5.112779647120964 0.3158083441904303 1.0538190811575143 1.132935782085023
Ni 4.6478171954935075 4.261107027121358 9.011743831424782 4.348227040658886 0.608069754298856 1.315511103119515
Ni 4.550005371347774 0.3584095958291657 7.210820212880723 2.7210267577236364 0.557609026545143 0.7192985052695612
Ni 4.575016055281488 5.144679800219556 6.733182982963185 -1.3556966741994652 -1.980131757230222 0.6420851920123523
Ni 2.383884349603605 1.121668459744544 6.483666346818619 0.9809617308761558 -0.658766252212459 2.704376550761465
Ni 0.7956550889158553 7.058425418521204 9.76547378478461 -0.6737092466755364 -0.23120979421274374 -1.0033390701300915
Ni 1.1857906949558552 4.315477260618207 13.010041942844632 0.7049784891024633 -0.7723848435715794 -2.72966412168366
Ni 2.4611473129938632 9.133257914563774 0.8548363726793659 1.4682019778897488 -1.9781792614895415 -1.4479910501595128
Ni 6.0303893536161945 3.1306749442144928 5.621662817666867 5.002577937412468 2.2092311899681825 -0.8755580712276598
Ni 8.460501580072815 3.9253407132653 3.8649489011036424 -0.7139791499391769 1.485585720583835 0.30838145559873986
Ni 5.941981245409408 3.763143086294351 13.26367776426936 -1.764742989210135 1.0693976523220614 -1.3715706651172443
P 4.998804539052545 2.030684920713585 0.5278063839113315 -0.4033469506330472 -0.39907429139962236 -0.8967969260017781
P 1.4569641171472016 5.170283511284555 3.4666681144810902 -0.839460039953522 -0.8850608685117725 -1.3910495997774623
P 3.7726032810077053 7.307252072305085 10.335623247182589 0.33502245522503593 0.3842305415185705 0.6941654576473594
P 7.617216999385717 6.434909162185027 4.207984033226021 -2.0297123963718273 0.07495434201970318 -1.1222235378738414
P 8.44322848823301 2.373172208724205 0.9048586818596989 0.9574572199963124 -1.2227708978713006 0.8964819658645206
P 5.519228205835833 1.4965839773944722 4.0526344576520525 1.0220669855568978 1.2035742703381918 1.2654902911166979
P 2.2912497464452795 1.1362493966708977 2.2808896565930232 -0.7831893903862511 2.6350778643656425 1.6489140204632569
P 1.1476204565850587 3.133498882934897 5.631733924456735 -0.24613864760843415 1.8561408214978419 -0.10125647024934173
Ni 0.26007910827178504 1.303577178983914 6.06277710680051 -3.071406155020717 -0.23000986036737162 -0.08990453557163226
Ni 5.947101987622408 8.428365157434616 4.5101567720641516 1.6745319781416774 0.016935342302757932 -1.6915423966567449
Ni 8.753673484896112 5.6797220564454705 2.299047582565222 0.2492049452385837 2.5642064341660613 0.8387758694023039
Ni 7.800405904178337 2.158825846716459 7.989513784528924 -0.04889929680386417 -1.2486513651824882 -1.2706798057374376
Ni 7.078428317790734 8.120828817653532 2.015639916524178 -0.5091488741612263 -0.9690194709126149 0.38424262570342854
Ni 8.17605564589557 8.165729443307958 10.709326353808557 2.6435154536100343 0.24791090901750854 -0.5482288708818237
Ni 3.6543367273971774 7.734551653218511 12.67538261296697 0.9753261298569331 0.8178108371148626 0.24706758718060676
Ni 2.455160562906607 5.592066998564125 11.382515692236643 0.24428308245693411 1.0226693950275871 0.3008301256140432
Ni 7.725345612989993 4.352028440789305 0.6803668493424474 -0.1457319269538974 1.665499949846396 -0.2728436677034462
Ni 8.556515496566558 3.13813014243636 9.863759089322464 0.8859568979634806 -0.3490665920229279 -0.4581824104156883
Ni 9.450499190413982 0.9312126193114176 11.529792568321882 0.12286942053342712 0.5815891915098242 -0.09571317183360936
Ni 3.715023170498664 6.371182278394572 0.9285647061045853 -0.34542770971875997 -0.16333627029922193 -0.2347985400052666
Ni 7.532423532741047 7.573973084447261 13.028530269647117 -0.004194497697321809 -0.37819384840618736 0.25444485348128437
Ni 3.1869748691702844 2.4496821217890226 12.774439794088403 0.11144960873225969 -0.07348547078366054 1.6192817994191209
Ni 1.7500230644216803 7.999371213288947 11.747524832855394 -1.0344499326022827 0.3988832584347389 -0.8091919850975998
Ni 5.493756278577787 9.276497499591743 13.451982704710446 0.470848435919131 0.012660369076487873 0.11442026132480941
Ni 3.354481500935593 1.1851882546955024 8.89738090243876 0.34169549636983737 2.558667506625703 0.26843911087784733
Ni 8.233372188790707 3.6806181837550724 11.966842268323958 1.383474358533366 -0.23730176604309453 3.1927509113795014
Ni 5.30026941058476 6.213785347248311 12.726261516892492 1.3522498533014453 -0.7252174418571574 0.5653161653814135
Ni 6.28881739904945 -0.2296323423012939 9.017255218494103 -0.12351039655153567 1.4290268503521841 -0.29871487904325333
Ni 0.9887174247879149 2.477808551444248 8.213005001426247 0.5128525482650587 -0.4423251316684576 -0.36338609396939353
Ni 1.1204918186110424 4.598031155852782 9.28483282538147 -0.7689619339329596 -0.5043396256980411 1.1436300285740757
Ni 1.7280245817897317 5.267539960815275 6.926792221634097 -0.9461749622142739 -0.46494492595050246 -0.398919510989313
Ni 0.18548947353684242 9.395187644010331 2.3063493467832807 1.209463382129117 0.07984535156341732 1.082349070276407
P 5.890547908181779 2.40485680116714 8.899322830965492 -0.3566773144906502 -0.9846558918982914 0.6226646213938954
P 6.487594445578702 4.905238036116486 11.390147857284989 -0.9243676365311951 -0.6337327062825989 0.013948234649975978
P 3.1558174119551583 7.806251457329574 6.071401415652625 0.3843670670964348 -0.07719582975571221 1.3934276130913357
P 2.34016036508268 0.41049714552702105 12.598423693645609 -0.1466978904115925 1.3618061295313129 -0.48475887535263606
P 9.271433236153152 7.7570584448201325 0.8930207307437645 -0.27293339920377513 -0.9484305910176698 0.4456989332366969
P 4.599894955408248 7.871795075030155 2.1824942184450733 1.431837837438418 0.0036584226881936992 -0.11971699094737447
P 2.962923571093416 3.8223987337774994 8.211516785720592 -3.341490771921787 -1.0793547635347733 -1.6053520767119063
P 6.763935675628387 0.09069549857031456 11.43985576795445 -0.4894267131419507 2.2303324907231716 1.5410143338657847
