# total energy = -340893.7218681982 ev
CRYSTAL
PRIMVEC
9.04884277796599 0.00000000000000 0.00000000000000
0.00000000000000 9.04884277796599 0.00000000000000
0.00000000000000 0.00000000000000 13.24389607660173
PRIMCOORD
 96 1
Ni 6.386519522796114 2.0019388674207845 11.369818681634559 0.12176204640186128 0.6079016041521079 0.40235141948899733
Ni 4.747520697200974 0.14029416595948502 6.153657503240977 -0.29960113830294854 -0.5379593706350154 -0.8691125727126323
Ni 2.695496484059654 1.4846255648919182 4.924623746506799 -0.14215835067002613 -1.3739941869570724 0.908611402138203
Ni 3.5766004196513346 4.25083875659493 5.037461913191623 -0.5084837297734016 0.6880668009487891 -0.7178921118403379
Ni 4.824806864825019 4.3697315040966656 2.548324292574933 1.0274503613559982 -0.1913738931627285 -0.7230602863048387
Ni 7.3050585216661785 6.109054851463003 2.6744588290884392 0.2567022820568934 -0.22518107152016054 -0.3023478478101503
Ni 5.25685292024917 4.376156182590177 11.884397423824357 0.046809761264687125 1.023025235705109 -1.4462532415327995
Ni 5.525703093095208 7.802563906980546 12.411080803226506 -0.4410025562022921 0.6908307368471716 0.30916667050419655
Ni 1.894791518066339 6.470827592548277 0.31882150314542085 0.33548114002900936 0.8224125975529321 0.0645251762665792
Ni 2.617766923131127 1.6096353302269129 0.2936105218063092 -0.5547530451535865 0.20729673504057203 -1.3117017566757538
Ni 0.7351080936902789 -0.3215533488316051 4.8082628652620825 0.6579740953284668 1.4057128582165919 -0.0667725775398592
Ni 8.686943523719622 2.4108651291112464 1.5572570077032004 0.5795083977213955 -0.3636223783499157 -0.0893859440640009
Ni 6.8108107198133085 0.6144870171853586 4.648660278218862 -0.28864772461523835 -0.15430835576899876 0.39683203233266495
Ni 0.7418585305299391 7.373739239646099 2.5976576794464394 0.6257777131015804 -0.27354172221173534 -0.37254950563621647
Ni 7.615026636870683 3.7322224206814636 3.613835503500554 1.2396897851138262 -0.10031467516136272 1.7701718735351901
Ni 7.510811112631585 3.9820247791206858 12.703386481879626 1.5481365467328627 -0.3797005148587009 -0.359883994353406
Ni 7.9665651365810835 8.841941154586296 6.771935080737507 0.7299181897669365 0.4471428647720751 0.625157048798446
Ni 6.675539566574595 0.8830602954371694 0.4960449020624626 0.574072828528121 -1.496386667854081 -1.298497599280654
Ni 1.9901120296869563 6.612025737918328 9.21710256369833 -1.4809016848446044 -0.7243520085330686 -0.3623198574884083
Ni 0.13788807861945065 4.934216424916616 1.5447813679299573 -0.8221516305820615 -0.6340474093095403 -0.7438144881330544
Ni 6.311296491364351 1.9787195364146615 6.766664129719944 0.7560354556792785 -0.3138483922505821 1.1891681222151909
Ni 3.3317749248338457 4.346340245074519 0.33907643320158093 0.608849569887674 -0.2958424425914647 -0.09002871985432237
Ni 5.89054339194006 5.328139704998289 4.7428243477106475 1.3507550139234739 0.7850310715806803 -0.5235683920206661
Ni 5.418908648615758 3.048573287071318 9.149519470368073 -0.25089698822902595 -0.6301527022408244 0.11106779991280871
P 0.10384271190961476 5.726343087794652 12.676329536578997 -0.5900260094232678 -0.41479581589993725 -1.1652823167365285
P 3.933197222570007 6.1751114049878275 12.53879164818166 0.5225180963792807 0.2782776942348239 0.00013086915090945205
P 2.4159686765342605 8.560458796984005 1.2081408832501412 0.04784385895615631 -0.429119431611461 1.4097255789204108
P 6.54650306612747 7.622129978585338 5.7969855949258315 -1.826466691472177 -0.22737910761274388 -0.04866532641618715
P 4.649485532695774 1.2215123584752965 12.41802036088379 -0.04849769049007132 0.08465588557818324 1.3103452426478595
P 3.955059227133839 6.191526006096599 8.1142838781799 -0.027461181534746255 -0.3249576147898662 0.9382572500290938
P 4.551233195959809 0.9251356053795983 3.924762796057611 1.934657941168139 0.09458959975212741 -0.7608125653529477
P 0.43404494483149764 5.411298571695981 3.765491396666309 -1.0503002693709782 0.26338895004844964 -1.5140588883228634
Ni 1.495294150728325 1.0245914382277288 2.625602316240325 -0.7527837815112003 -0.1786351054398214 -0.11042785233596465
Ni 2.0287958332922478 6.422000035997598 4.732772892963335 0.8741773888300493 0.49186951825548836 0.5479941291631981
Ni 5.779369307473485 5.558360367296728 9.173795706230596 0.16426752386423968 -0.56900826952102 1.2630184325374376
Ni 8.524471548577397 2.594954790057691 10.41758269650818 0.17435036202153842 -0.0635484141756067 -0.758661580448216
Ni 2.363539680490036 5.229181558512332 6.991187640497939 -0.34143478650928294 -0.2738057745063994 0.36865377012623607
Ni 0.6648112523597369 -0.07012310354592871 8.879900145871405 -0.6253262273864586 0.2381756840076156 1.3694811295780673
Ni 0.9678732906258654 1.010249022154188 11.341516615544204 1.3361719739029763 0.27488075273813306 -0.08780548695075846
Ni 4.038199996145633 6.902457401196792 1.6119147337656667 0.4059764178360944 0.5926873583055147 -0.1923401137307397
Ni 5.894334857135527 7.5629867410732485 8.12510357969355 -1.5276636235904917 2.277458497676697 -1.4173360442778171
Ni 5.373601091972087 2.909872622355083 4.717581695421216 0.486612126511291 -1.211018642431379 -0.46182206405080456
Ni 0.8772970873632021 7.388506951338224 7.106304305837223 -0.11257369503437387 -0.5045337439867181 -0.8632869671697907
Ni 5.231507111150124 4.601128515978423 6.981493615047097 -0.2217543052267987 -0.4726070704814506 0.5209522945540576
Ni 8.126539631069493 7.19039158382144 9.082995091662807 0.3025615064828531 -0.10229159638207545 0.8540546499382453
Ni 4.673483064195477 0.5135797499282716 10.387214779572657 -0.004085482923283287 -0.8641698839953762 -0.4506981862235012
Ni 8.305580037650614 7.039058734348951 4.759512223876467 -0.4084058532131934 -0.5028383585621662 -0.07060352125017517
Ni 7.288028599236901 6.017100509419267 7.108025395766048 0.6301447318210244 -0.6003366473206564 -1.287876629231698
Ni 2.2615863669880905 5.235380015932128 2.4036079570664644 1.3910683688305396 -0.22441385433683286 1.3818404224743686
Ni 2.377818754662937 5.215526854502885 11.257205831139157 0.26429320703027387 0.49261153862783547 0.9709007470957279
Ni 1.2299911243181405 3.205796933303351 3.724885618818734 -1.6507482454585183 0.8158858521780078 0.8316228032972904
Ni 3.3629300911058966 2.568523119804812 3.0518444437972394 1.6990541316527579 0.5701786356800373 -1.5811811358926575
Ni 1.0246909755001634 3.1405547756439 8.058592774252704 0.6002376598489468 1.232462928348084 0.6706966851014577
Ni 3.8176706446451516 2.6749194151945237 6.989837553130007 -0.39406603955175357 -0.07664021436255833 0.030767363089843784
Ni 4.2503320213898075 6.62674820539571 5.910975679318013 0.1227850883497369 1.3948391487268816 0.32780691131320316
Ni 0.7482786846019752 7.470154661263497 11.391750362289097 -0.2550241230235221 -0.2731925664024327 -0.1460995947059613
P 0.22682282177123672 5.446344740435931 8.107741564728057 0.8120711064176079 1.0005928748435218 0.4661510304434617
P 8.503559672523169 1.6449801107841684 7.941821980422415 -0.38103286051687923 -0.7837984847251599 1.3330180016550268
P 1.7002685412001521 3.240625929812536 10.38677772045824 -0.7405399311468408 -0.5213173912029602 -0.1441573833779259
P 4.077182411568228 5.981013723740224 3.690001424367562 -1.1882916331475084 0.9190883904101267 0.007474196889858097
P 6.97044135826967 4.190808732473876 10.396816506825424 -0.42711525669723865 -0.5268069535626216 0.39973326513985996
P 6.2188716094872865 7.804455115156805 10.228605755485196 0.23523228510857552 0.01845280738854887 0.5766642434043812
P 2.622101318903509 8.340056129284804 6.05031519234642 -0.7126527178182694 -0.021105157409731394 -0.833947337665409
P 7.123041045754965 3.9544529546562828 1.607133325151623 -1.9525602753698568 0.8933156523213971 -0.4008038724962194
Ni 5.436083352532212 2.9512348834731617 0.5372098984042618 -0.6520212201791417 0.004020434013302753 0.13472606276169702
Ni 1.4769792926003462 1.0065842407600025 6.9919830337931215 0.4872312481525286 -0.0768790698462418 -0.5907104370848021
Ni 6.9795444942759675 0.6917849483052371 9.132938370549049 -0.7445781057719564 0.33006665388165735 -0.1542589905883021
Ni 2.892525990422605 1.6590239150404051 9.156459028025361 -1.1979209287071562 0.0981174103997278 0.5376438962771256
Ni 6.385858957260865 1.8545875088456818 2.5423511513445582 -0.6786455076348893 0.48370189484303155 1.359093872806472
Ni 3.926392492672655 7.0510936954705965 10.422111642403959 1.393066373097175 0.07009469993455669 0.3459578711906171
Ni 7.966945187984926 7.479502116029408 0.1562318930448651 -0.4658018746341591 -0.41290476952481153 1.0390354950904364
Ni 7.6716904914148545 3.883491928253313 8.17562960406568 -0.03698917562983953 -0.7684286871373088 0.3808487695305312
Ni 3.0221054214466454 8.513812011583939 12.284256744880317 0.6132376716530407 -0.15519975723501658 0.715913133737096
Ni 9.207921607642673 4.983433081714086 10.346754688096556 -0.6363747718911362 0.2577746891854657 -0.09626055969664712
Ni 8.773242338920479 2.4829934562545866 6.0150998102433295 -0.09995163539498915 0.227709237258653 -1.4718688852183748
Ni 3.6032402132920316 2.9191838817491984 11.390584871317316 -0.2732319042808004 -1.0054903121451393 -0.10638170729104904
Ni 1.0781153442687343 3.462069214450826 12.547664943577063 -0.6872479045919196 -0.00574718689642236 0.3557172645702261
Ni 3.2944484476708453 8.4017511405084 8.263145488643126 0.3426732869020744 -0.009493541312732038 -0.6978897005764819
Ni 5.632578977161196 7.654416250225966 3.711761177006075 -0.8930567422330555 0.28840552669744524 0.48192551966889907
Ni 3.0200513340973116 8.424961422671576 3.5379084720873895 0.6460503473076874 -0.6660756413896787 -0.1454881863742075
Ni 3.1621181683904283 4.2130417395986015 9.158141207929507 1.0498688382605144 0.3664927579191753 -0.8050275693072652
Ni 7.176619244853661 6.258089294826546 11.49768878622561 0.4357019699249851 -1.1392527254419864 -0.9684713117186288
Ni 0.4842995039151718 0.12041657265428185 0.45623361262577483 0.46038018939795544 -0.7445405676658017 0.225369790492199
Ni 4.429490062929261 0.6951764546423748 1.3418049619811823 0.4336430305134274 -1.582911231209887 1.3535783423048817
Ni 5.959830382397538 5.6867543998945 0.5011303517995793 0.03198118089228685 0.41768085075721617 0.7024613791075645
Ni 7.769933779307872 8.952056524427885 11.34796663079797 0.07543359564896687 -0.21229444536547956 0.13770879953910478
Ni 0.23845510938167 4.993386808957553 5.905519227020004 -0.6059336817924597 -1.147033912049302 -0.22380193178444682
Ni 8.035119170759724 8.891700741960683 2.387212358527885 -0.4332249691394023 0.48498487532051315 0.8378356169762214
P 8.651779720021338 1.5415156405098054 3.9898031645193077 0.2978412181890483 -0.5332072006620108 -1.667989034816837
P 1.9152600008160863 3.1637379112782296 1.5202010909443635 -1.078132203981582 0.6696409901434338 0.38613547185076724
P 4.701072986345779 1.0222115925322455 8.135725111546623 1.7168705910088882 1.0819299804611173 0.535936940888348
P 8.45933797703333 1.6191728106947436 12.70449858467801 -1.1331998343796872 1.5802090017873751 -1.3676918988881284
P 6.23378410266659 7.807757942833046 1.626707782218048 0.058847666265827686 0.26565280638196187 -1.3906999297475273
P 1.9240373784762344 3.2382641818029496 5.9389338893763215 -0.7176380868480028 0.01425085349205933 0.9460397221879902
P 7.054061715957739 3.8925860154166623 5.919412820483294 -0.2992239574691879 0.6373553906368508 0.05431352584090001
P 2.326611352416774 8.726342185917852 10.269291163150719 0.15480663556165597 -0.5685166745965823 -0.6269851031461202
