# total energy = -340871.54684277007 ev
CRYSTAL
PRIMVEC
9.21831618748443 0.00000000000000 0.00000000000000
0.00000000000000 9.21831618748443 0.00000000000000
0.00000000000000 0.00000000000000 13.49193754206166
PRIMCOORD
 96 1
Ni 5.715973660643684 6.095482519581572 12.32259153227695 1.4172769089051076 -0.7459878416352895 -3.9043150241192826
Ni 8.583109669777151 2.325818046235397 9.120496020823174 0.7969915863766661 1.0472972208785962 0.7000982781920265
Ni 7.181160489718104 2.979046367595077 0.5544918585551952 0.3758153208716818 1.5729476922392716 1.1304328131575112
Ni 7.016060446880591 7.644030581898853 13.615523983324232 0.6494380328329976 -0.06667230451656905 -2.1920438795556185
Ni 6.749098010220938 3.1187960409293427 4.046245301111169 0.925776858173896 0.9008512985768098 -0.650964239669537
Ni 3.6125935839040535 7.758328484251858 2.570996679923005 0.5399463191580572 1.8500622194039298 0.3061834195061565
Ni -0.1354926549209569 7.4940209226529095 0.7883181358634398 2.2491511660915715 -0.2709695906091849 0.3998368805972598
Ni 5.066994983044365 4.5668275835872025 10.68987839954565 0.1714712407015305 -1.2439629585678835 -0.48069318992369464
Ni 1.2439011491015284 7.853046683032174 11.797323579685099 -0.7107714416351566 0.9368778531830639 1.6631448193506584
Ni 5.090409506149183 6.464159857004437 0.7061746421883534 -1.7798091395146383 0.7779492250332343 4.136540918301367
Ni 5.884751811638213 1.525677419867261 5.619244025272238 0.3110232640969612 -0.6396004779172856 1.9859774173777214
Ni 8.774085526140343 1.3878728112476078 13.417907251982808 -0.46883886168827 -1.4854042007006485 0.20165907713882042
Ni 6.046809810135336 6.27919434279256 6.449712911882441 0.29846239671281505 0.23991760639938683 0.16909785537334748
Ni 9.3001748307041 1.9347033272231124 2.3804503970939406 -1.025570370724466 0.5612237404795948 0.5581047352346389
Ni 7.476045206096061 4.170421551085876 11.698346518828238 0.029969035558264516 -1.0286122428745832 -0.14193569313625878
Ni 1.8222029965257918 7.98360569513199 9.46306985231064 -0.014877688442780831 -0.43400375628695576 -1.1727500858684836
Ni 5.049701421885059 4.882868335605143 8.290229015337378 0.7997580933782098 0.7966378025816732 -0.7840684505570948
Ni 0.26814606845755007 8.44493632851018 5.1397938696047465 0.4802273060308697 1.2812488395025352 1.1580747432444958
Ni 3.9386915188776457 7.495597254720201 8.21354092117939 1.3488973918894445 -0.1928615334518485 -0.20997196787988998
Ni 7.826341221050026 2.8457956071698254 6.895365033096584 -1.4226749399922272 0.590866245936376 -0.9106248330238058
Ni 2.5779482121566044 3.9681993489794256 5.459472169188498 0.28425987996018787 0.875002455834506 0.041165932715348456
Ni 4.917529204453219 8.379891889522936 12.720859664647241 -1.2371191961731727 0.6551829057365749 -0.3779925310286587
Ni 1.9474153852394682 6.307144277459414 7.183080664979023 1.2861143951249527 -0.4278102258817341 -1.2354677766126787
Ni 8.85928120430362 6.0440074420157055 12.170469956793482 -0.03532052967816498 0.4616030060614631 0.6984142056213842
P 2.1112156454951787 8.534658199919308 4.233216720924466 2.036442516006809 0.37807146389571017 -1.6872237146767328
P 5.362755439459708 9.221542593663118 7.255073870705009 -0.8563653003492929 -1.0410095880976717 -0.5408053247242428
P 0.13166705370501228 5.621780905885799 3.993640057981267 0.5483106319623525 0.05861678120194421 0.388706317901737
P 8.04296243303432 4.551488305458692 8.92710220012518 -0.4217023132117834 -1.8459258286380533 0.089965984937187
P 3.698222522927932 4.891413714706782 12.39311349474013 1.5712913875827714 1.1182491266071257 0.21152568552025505
P 1.2633517962476564 6.188145033853078 10.518638036298642 0.14567587690498138 -1.6180769804777426 -0.34010269796142073
P 2.6555111245203586 3.012204650905325 8.607842412096138 0.2481569635900436 -0.10264126641201032 0.808820203580478
P 8.267244065766688 8.329117403986977 11.604118734468857 -0.4389022220298376 -0.8542235714159417 0.661295446392216
Ni 5.666213189887855 4.52468144199853 2.0650761293360316 1.3452184003759606 -0.39677983893849084 -1.0353588175697976
Ni 2.0985128057950058 1.6435151556345378 4.400139224871358 -0.14785385839290663 -2.137913416259802 -0.9515100012739419
Ni 0.6352092787167717 0.860668090425708 11.326805050567314 1.1864797767497501 -1.5830014769308478 -1.890965385376195
Ni 1.1973117791126509 4.011101392495103 9.999953805124688 -2.003709287439846 -1.2041000609346748 -0.24060589071566305
Ni 2.048844518201007 1.3404814477508094 13.042561384633164 0.6428778631169767 0.2710809193760686 0.7451979987441424
Ni 6.652029140813958 0.6981731437415102 3.5949405084136106 2.488711646261856 1.277689661396367 -0.22987487745140409
Ni 8.207048461091704 8.145073721393402 3.3051065074723187 0.21302103911885892 -0.7869092624399996 -1.152792411799634
Ni 1.4384076205628087 0.9534412244914106 9.026807507960498 0.5183133142693137 1.6036019267900188 -0.42078905736889466
Ni 9.329673442489698 6.246727433196037 8.427671344131038 -0.4575434912801088 -0.25158527254530216 2.6557685599457748
Ni 6.005567063532599 1.1696383939312878 13.355912231988903 0.4672244660132986 -0.625325198945194 -0.7462467517236309
Ni 8.715475471848835 6.466823950381324 6.047706752299942 -0.43751485476400775 -1.6187269553569152 -0.19950989200630154
Ni 3.282301315067197 2.965145146791114 11.178029723858275 0.07915012526860561 -0.1916124915360958 -0.7303020554689164
Ni 3.8819066911903715 0.7925392028436351 8.898998319578071 1.0452755624628773 -0.5277328078110007 -1.9091963065619248
Ni 0.8714350837274509 3.1867442495142284 0.43856507973265385 -1.6596180371443223 -0.019600804950063017 1.5683209921005377
Ni 2.5467442118771526 6.4757564987626495 0.4845497281799264 0.7185580275591109 -0.08028706708652625 -0.5511622424785346
Ni 0.5311768932651539 4.106151450658007 7.5428835294125145 0.9078333863215978 -0.6512372908252655 -0.47683627807144974
Ni 3.2104537587369024 0.659551164429599 10.918255730158124 -0.5471058130209739 -1.875765794817621 2.2536585670436216
Ni 2.945805119439182 5.167502284387605 9.162468858067605 0.41600937659206416 0.9267001413191137 0.2326645243813993
Ni 3.9033945862129427 3.666935557802833 3.254592900284339 0.073894276186305 -1.388659759389047 0.5548664308029992
Ni 6.204885496041405 2.7452329959294888 9.446636360051206 -0.18619697694747933 0.6662034252167947 0.7746404723749756
Ni 4.650668169271579 2.6388259722291303 7.652640489213774 -0.44845129917085347 -0.3762338964663391 -1.11034838370281
Ni 3.1211098382912756 3.497576652888774 0.5255666260361808 1.169992320617688 -0.23544594378127837 1.270768765906818
Ni 1.6956908252303127 4.422182984359764 12.232600486035277 -1.4171069589861465 1.7249685375256745 -0.28204770280021746
Ni 7.424118431037228 6.220289302383196 10.13805800902029 -0.6614386568382996 -0.42456626502313977 0.37522859513027634
P 0.8007822211744728 5.3056940622869435 0.7283917060209995 -1.335537939863403 0.3623003171043825 0.38273158837554083
P 3.8610732966167935 2.102347625327133 5.364191653121019 0.800606557421434 1.6075328864133087 1.3396560757968348
P 2.667974287999773 8.536391243361711 -0.18692164090590868 1.3505845497838804 0.8904812681963954 0.20051313645983532
P 7.259073698096812 4.745257311625332 5.559325891914362 0.009898490060634564 -0.5342736942533122 0.028178519316745018
P 2.2584782465185884 2.303924545300774 2.3468689930708937 0.1561479800808988 -0.3556403885857036 -1.734066900282517
P 5.677155331197073 2.1709318977286465 2.193343468032754 -0.17777224321889384 0.35447619307427336 -0.6968476324652129
P 0.1296030727116388 2.7535202621780046 11.719596581293287 -0.7857118996977888 2.6081715268931016 0.28940671426844994
P 3.885040918692591 5.703132546200765 6.28488204387747 -0.4013486892560959 0.5083389766654213 0.5162348344737303
Ni 8.50822928742265 4.2569815400442375 2.4135589014968004 -0.0319140750997773 0.09597850967985405 -0.8144797158591005
Ni 5.929119567426988 8.705851549753785 1.7288297500765761 -0.5009172302800534 0.5070284853841138 -0.7540929872409271
Ni 5.093700445026514 4.061479490435193 5.58790175025004 0.31454284721444536 -0.6844106922534405 0.6518224739047742
Ni 1.7392473691949832 4.500815221400746 2.79909100822866 -0.3433507725850732 0.16299611335098382 -0.3437526360091822
Ni 3.3642705825664247 7.058344863212008 11.252060177460704 0.9587198887588197 -0.9401405830947357 0.08406144652729393
Ni 4.437466952591176 7.817168996447942 5.42423146825251 0.4864750867127944 1.3576625396765845 0.690229612928063
Ni 7.2207531577240855 8.373346885033007 5.5626721406887905 -1.7797608027752057 0.5540048541336523 0.3703463273373106
Ni 5.032020691446068 6.013273575861586 4.081176266623408 -1.217631519762206 -1.4019261374806502 -0.0023420178696153216
Ni 6.259688385749334 8.33038031330405 10.305276420916655 -0.7245908640167522 0.6494992250882362 0.6935923587527086
Ni 4.025786170174621 0.8514387122632893 1.0407617245348693 -1.143798950051772 0.6013542899518934 0.6478997418116004
Ni 7.220310678547301 5.95377856321651 3.44782447861751 0.477046594310043 -0.03666110286645944 0.4267966970155553
Ni 8.479486577564058 9.145519140101925 9.572597276038943 3.3421271199542053 -2.3899540311749674 -0.2657319963593294
Ni 9.249105359050285 0.97919719990671 7.011018027928491 -0.5173589207758446 -1.1483521166400934 -0.0053550936643262615
Ni 1.364532034672254 6.94087586009205 2.664171732574286 -1.4833429472962452 -0.0734762148122799 -0.6399169807164399
Ni 7.377114236820114 7.57185116618597 8.102165225056396 -0.5018276579094647 0.4771476386642815 -0.9954121019735308
Ni 4.364089155774503 0.7786665588198398 3.6541829391952723 -1.2569961376027576 -0.23688884687539202 0.009576073724209313
Ni 5.169677807006792 3.3319696026611965 12.793015112738049 0.8203765409595097 -0.2716241934740483 -0.21862732956204284
Ni 2.5181674317098555 8.689461383580412 6.433266513980351 -1.060594966428767 0.9056767449899111 0.5769102979769162
Ni 7.555986444035029 1.1796218303574757 11.252086910577633 -1.7984509229855412 1.3663209866825308 0.7364392787149059
Ni 0.45241283430275503 3.0896753801072485 4.5831034426399055 -1.590459732981106 2.2327454710400385 0.282540583276236
Ni 6.9184384785026305 0.7438369947856145 8.474407285347226 -2.1904253701155887 1.1495286534466977 -1.9211141410454333
Ni 1.4097110022851325 0.047075175251721335 1.995902806530425 0.9903817386384749 -0.11060114468903533 -0.2061831902614191
Ni 2.0317537599977267 2.144125034268485 6.779334087301175 0.45627593742159483 -0.5672591480403972 0.3254474099420911
Ni 2.4103500056334983 6.37534138058124 4.598051864162256 0.5504857852368004 -0.6212327740433753 1.2029255810105992
P 8.164856227922117 9.420473856892238 1.5849788478724938 -0.15932997735330623 -0.5334265157616684 -0.11952955752691673
P 3.7432632157980654 5.721762763206606 2.3396095690767815 -0.6278824181494089 -2.1966245569477656 -0.1524666745745697
P 0.5789628006945846 8.06091049464262 7.432209347151046 -0.3265103039889667 1.2637573675859912 -0.0017174969117389775
P 7.354179066156814 5.333524158843417 0.617834596375055 -0.7309204057792057 -0.02581593262183941 -0.5043740784804024
P 5.777911527077253 7.940685214983946 3.63150311589024 0.4759765011743158 -0.4032628755596732 1.439340059352734
P 5.36423958836517 1.2136374170727422 10.995187187863344 -0.6204974385392475 0.4472570217524362 0.40016032537494955
P 8.428905676667943 1.425446668009512 4.946023019774869 -1.326486371184096 -0.7154426218585808 0.25846734437711616
P 5.12608438977739 6.501503255861766 9.985841484880135 0.03524828167933284 0.945149863383869 -1.3609203844922497
