# total energy = -340886.32909997425 ev
CRYSTAL
PRIMVEC
9.09724250910064 0.00000000000000 0.00000000000000
0.00000000000000 9.09724250910064 0.00000000000000
0.00000000000000 0.00000000000000 13.31473397543654
PRIMCOORD
 96 1
Ni 6.6591451608773795 2.363527296340512 11.418143811064052 0.47594410527448355 -0.10553607146130213 0.9218752091266446
Ni 4.795502245660605 0.8026215091260231 5.884420346044536 -0.7129671637348947 -1.0731563480335453 -0.6458582859015393
Ni 2.806872314988426 1.8949101378763733 4.926212336407005 0.7243062428967978 0.35399385412121614 -0.839562112749025
Ni 3.0035001155600183 4.60947273266493 4.6640052434332455 0.5378308154769511 -0.7834346736278378 0.8947850377780718
Ni 3.896567319886506 2.9162029760076447 2.685035674629622 0.18153145315100994 0.8064468182522949 -0.01129562751847732
Ni 5.370966517926601 4.9250378823932275 2.7851763012203494 0.8958309625440831 -1.1913059944938 -1.1943244696051496
Ni 5.698794750618279 3.2539381058411037 0.3406171362747046 0.09411985920456048 -0.5338268365238806 0.3125229885709392
Ni 6.015851848125503 8.125420521316363 12.606962370835273 -1.0351772976866107 -0.11912615144091097 -0.711838192336774
Ni 2.411478861844947 5.923824142444824 11.441910357237518 -1.0184959803761877 -1.179451923368691 0.0517323953772851
Ni 0.5050525246189126 0.42923155654896067 0.43236100798768695 1.2050259151830538 1.2756371497427128 0.04026476105731775
Ni 7.653291827226212 -0.010919420238090262 7.37042398668707 1.1566763202350725 -1.258670182871071 -1.9646431746763198
Ni 8.987138627800261 2.7669718091446667 1.2662088021818139 0.4334121454495438 -0.5381596595712796 0.04583814138003719
Ni 0.8353606656309296 0.34674867775639484 4.616244720022453 -0.11038928578854537 0.44842018882260193 -0.308453703597572
Ni 2.1415181890420407 6.637757543631899 0.5692035499400332 0.0419460054144826 0.4020973944966623 -1.133179522664713
Ni 7.662416361508312 4.189953392267086 3.9419070670535628 -0.27080015491085624 -0.4104856185603576 -0.07022479775451776
Ni 7.731036862096427 4.201297653732468 12.836748710793533 0.8998130871202826 0.6237583686787063 -0.9536604719580414
Ni 8.036658725712725 7.419656443943172 9.130099975094723 1.2495790192030802 -0.17384051226465547 -0.44324841481367533
Ni 7.06959455044845 0.8746944132635471 0.3994726567048877 -0.13656594418391318 0.5805165272709357 -0.0177210714288469
Ni 1.5321575910182135 6.882718993895214 9.272487286383999 1.5990947829482847 -0.9374476096436049 -0.22062919048342003
Ni 0.1334665552403949 5.194852999315263 1.449162537469833 0.7139729792915898 0.2796138965477442 -0.306156422922963
Ni 6.388493097640336 1.9802422730369889 7.01530675550485 1.4840651701742504 2.2017101990007886 0.46330713323676337
Ni 3.9086484579987975 4.6216175514751034 0.4376929018488422 -1.8731473833581676 0.7564491461779295 0.4500906345464893
Ni 6.302715197594553 6.027641874476053 4.932097342615471 -0.7964020324217832 -0.35457955142135705 0.5562759095560161
Ni 5.536527235174793 3.043418815888886 9.465817336529609 -0.3565323042723537 0.5528218895691447 -0.9077909631194365
P 0.22223198974105468 5.953726778721256 12.47133885938522 0.7646756478527799 -1.491141874515374 1.223393361946648
P 4.083624821290831 6.68449007863404 12.476917288519601 1.2658972967471294 -0.8739110225425402 1.3169303520645448
P 2.3710416186904766 -0.4669987590137043 1.371830517411589 2.0277447311224948 1.552915713289061 0.10975088087359808
P 6.461980622995076 8.197588946500709 5.811268508940056 -0.42545792359947365 -0.14149012095840793 1.1014063440181743
P 5.012171271579621 1.3543428880491957 12.845722230849228 1.0388840571142366 0.06035793226276701 -0.5917563618508132
P 4.261821608447136 6.343179732476687 8.257052162733528 -2.7197656316230256 0.14413604322168724 -1.7044372503415421
P 5.196044738089894 1.512371088462314 3.6510727712095012 -1.6681201610780625 -1.0540512517729783 1.669094866286506
P 0.7049853534105324 6.003552376191906 3.4967689818981693 -0.9346854735174354 0.3285952115424534 0.7507824348104554
Ni 0.6789008298341962 7.9380537136651865 2.3809275921743827 0.4607511995841291 -1.1324377594026818 0.8195720427803433
Ni 2.256953099815287 7.225666843712365 4.64304792576059 -0.9347474371036225 -1.5441634210177275 -0.3358590921937183
Ni 6.0179897001257965 6.062739036251069 9.169964091968263 2.0338485300273876 -0.5967497013003464 1.8279653875048905
Ni -0.20649830874315658 2.552740844230239 9.952004909263385 -0.3589915644461237 -0.010236333016027534 0.3714907253543989
Ni 2.4729216380576124 5.7592277329074015 6.6523340553768735 -0.4348442499103802 -0.7557953146440145 2.0897479122981686
Ni 0.6552743811960688 -0.0049334346372709725 9.038574437203046 -1.2676795854585328 1.819802134967808 0.7864724320128972
Ni 1.5807914497142317 1.0903500063619997 11.548095191781414 -0.8289128605652949 0.7230859973364515 -0.25432195475017494
Ni 4.295535989353877 7.034597458341533 1.9884625414091777 -0.09146493808021666 1.2426252135930664 0.0068530183660914235
Ni 5.429234356487767 8.39948405051132 8.139616768322561 0.6067674905476647 -0.05020824542327482 0.038180881945095536
Ni 7.064245371826442 1.1098635916412662 4.759724610142517 0.27268323086618196 -0.005888597570293084 0.17907296430818836
Ni 0.7785938720912452 7.835955360476745 7.115859487183293 0.20473900161572484 0.46023132252491705 -1.8385243939676594
Ni 5.2389109450064 4.494983935117346 7.458767309133205 -0.25137367075512834 0.4534852620503351 -0.27708521658861957
Ni 0.7167417199636308 7.709367230331759 11.477526971562392 0.7510421162297453 0.773075698991017 -0.5721396160611502
Ni 5.032712845267539 0.8349330952308712 10.187568907967966 -1.2409159442114435 -1.1074615490733186 1.1989236589400578
Ni 8.416350338207247 7.660815246818731 4.884083915861665 -0.02048063645185505 1.1772099214120502 0.05186892095514938
Ni 7.540331366427773 6.523086801233226 6.925605214745339 -1.041748266035909 0.384195574515577 0.8043611393678599
Ni 2.570043799568777 5.468434374654835 2.609781464770812 -0.22914442704328278 -0.6591974262126067 -0.9122076041298935
Ni 3.594174977377033 4.597728192527153 9.700981966286049 -0.4956492970128948 0.13552336185201178 -0.9475451030889229
Ni 0.9598591591611609 3.683309759925403 3.9758325039875677 1.9984105009347517 2.3023352063137184 -1.826051201201313
Ni 1.8918716588631916 1.6125590207143243 2.421323897737359 -1.2681105023483645 -0.6647124424935649 0.9874069722808672
Ni 1.2506616146562815 3.7873094368077225 8.296863515600254 -0.9415752586587333 1.1492309197006207 -0.8407540761745973
Ni 5.119600608904964 3.5986235289861526 4.901699816344076 0.6699253541530721 -1.1340290151492016 0.3096178991090022
Ni 4.133259376667838 7.392100896245783 6.229670707952215 1.6504152875991318 -0.35947570317139377 -0.5743325099474108
Ni 8.413684846138796 7.657613017439569 0.23652648696684092 -1.2807091649489815 -1.4217652836937642 0.4098752386698683
P 0.406863256556112 5.8511917578902 7.748962068825689 -0.1705135047739515 -0.703520159389382 0.9880998845828338
P 8.683954825188554 1.828454781016214 7.817999223122797 -0.2105710349164696 0.4343210304170584 0.3409344498340967
P 1.679705768008621 3.516520914932362 10.454502928173012 1.9331600164663736 0.26379004214161017 -0.694356747722559
P 4.303823577320969 6.182549720692999 4.024018778349907 -0.6030828426072258 1.8196843784430208 0.9847723628714976
P 7.147976392297476 4.333234962499463 10.302288775476434 -0.6918740905100214 0.1780866891355191 0.7550257834678415
P 6.5164367169259325 8.221914973091272 10.321221956680727 -1.1918955484486828 -0.7359008897129327 0.7294111682235309
P 2.61634876417086 -0.22863826794788894 5.95506771227378 -0.37452925507040663 0.9290951239138515 -0.821494970834669
P 7.274464452774362 4.232655848817612 1.7174938941312399 -0.793062169415273 0.9185242903765406 -0.43811006514584544
Ni 3.0531346709370246 2.011291161875281 0.4280207135649652 0.3737057307278467 -0.9350055758610155 -1.09500378292594
Ni 1.5864772263107545 1.3521413553510218 6.965003552800092 -1.3098125100728408 0.3296989861295935 -0.2559314653291399
Ni 7.230815882998176 0.8917617500199257 9.357794858989717 -0.015664188899818184 1.23488593596728 0.2899103933777458
Ni 2.3475707329000297 1.809059459890155 9.095707849617675 0.36828918769796576 -0.560486605203254 2.939333213611151
Ni 6.657471268247363 2.220882533086946 2.367985854916441 0.8551052026899466 0.83503311453042 0.30493154937692646
Ni 4.095933390466984 7.239094373722713 10.292888594744936 0.4500384411523152 0.9478194397962322 -0.07103418102969057
Ni 7.556351610566136 6.462289929241926 11.275982111390126 -1.852299593374881 -0.18815615755637918 1.3665225611703755
Ni 7.70838472813588 4.387800223340974 8.070886191099538 1.0137728638689056 -0.8117908561730277 1.0871742595791922
Ni 3.5286111502872086 8.95900085657939 12.454309731047573 -0.5468109074883745 -1.068319074545902 0.06479154255408842
Ni 0.06858593106640848 5.294413221831018 10.207208035194483 0.7968360346354083 -1.7305126072723551 -0.5221332022360362
Ni 8.79848910894891 2.7324477736505797 5.6293500398547325 -1.3193273915418116 -0.4518032463622219 2.713798358295997
Ni 3.5611337924193194 2.4501057537310853 11.426158481754511 0.7560269710388463 0.9013840311518283 -0.7316639688134495
Ni 1.4558772121992627 3.825536050021465 12.520416663517896 -0.918852620250237 0.16559087066135356 1.009108625624017
Ni 3.011915064922872 8.777237950341746 8.227414256215429 0.9586988057128973 -0.851816761746662 -0.8167903662701481
Ni 6.060364655944362 8.116950988498182 3.7216146094251132 -1.871082787519655 0.860410416952944 -0.39104473622692654
Ni 3.4583986322520666 8.969235254453132 3.6452150567286994 0.1126829669187285 0.45590158480131165 -0.17134962752200167
Ni 3.4096828983730587 3.067262688624065 7.564566420592792 0.2866947146539256 1.1624849564970496 -1.9393933989705954
Ni 5.014436484975676 4.644979270354897 11.687847031902667 0.9981413279792358 0.40585377621530105 -0.7931130772578664
Ni 7.962925574809017 9.290649931143932 2.658579983557065 0.5691807905431423 0.5732014816667612 0.1424789672342385
Ni 4.668377378204907 0.44217966187669033 1.6845800705692882 0.43426086660308433 0.08735425834595278 -0.9397137799699623
Ni 5.8338160246112265 5.948705100831207 0.5496344714811846 1.5712757038534875 0.25745021596651146 -0.7141030771115509
Ni 8.17368139306765 9.269544328417638 11.539986819492643 -0.7906389046857609 -0.036878875304220356 -0.257799114665498
Ni 0.0828258448368681 5.599134458434426 5.618112216127236 0.8130542962664837 -1.741277559098343 -1.1792866014354206
Ni 7.664344976929852 6.545748032436327 2.9784927055021275 0.47905693987185227 -1.0029876003279434 -1.5814379890984698
P 8.867819194456272 2.140872284820676 3.534542552432701 -1.8261998109640356 -3.1682130741391368 -1.330793226089566
P 2.1931632350235772 3.667526044093455 1.364813814229352 -1.504738639363202 0.3120308794258691 1.0171379236863967
P 4.613411838691001 1.4580423559272184 8.127127164019575 -0.1071016161762091 -0.7506914177585459 0.5578743643913876
P 8.766221189608324 2.0587059900690043 12.334543623094158 -0.3845097633218862 0.4825135309618851 1.051047431949648
P 6.5961285617027965 7.905676627413946 1.5961166645214357 -0.6660812978166335 0.042929195263358325 -1.4567585119394977
P 1.72065245674614 3.3993302363461098 6.008873353361996 1.1600112981455764 1.1270428136393558 1.1135319236371144
P 6.891588805385789 4.201843488285735 6.141354677233745 0.1398294454265334 -0.04602608902112718 -1.7105338501575829
P 2.3756630179081304 8.637486110220491 10.277097601118944 0.38474810458493736 0.731764498947056 1.0701016203676215
