# total energy = -340865.51984193 ev
CRYSTAL
PRIMVEC
9.29656804430436 0.00000000000000 0.00000000000000

0.00000000000000 9.29656804430436 0.00000000000000

0.00000000000000 0.00000000000000 13.60646704434076

PRIMCOORD
 96 1
Ni 8.55821621812543 7.924738760137856 0.9509673496969859 -0.33061764128912097 2.7930436143815704 3.2088951252395317
Ni 0.03057455370231628 4.562355950890182 8.900140280199656 -0.2646289931031378 1.299571549071123 -0.5462912875394785
Ni 5.235074223514546 3.7816301481899504 8.393788744920158 -0.5940618700555382 -1.2212086955905033 -1.716098231619238
Ni 1.1052782973188044 6.228319576699741 1.6402325841721026 -0.04194471986290196 0.7475603283287319 -1.19705266716959
Ni 6.34384803050012 4.669006181999697 12.857254310229688 0.9058407813716013 0.8025348847923985 -0.7354231787455656
Ni 6.363342934146969 4.583301119186009 10.1863865049767 0.3575674304050874 -0.23940081466396834 1.1090890573744125
Ni 8.918355976053558 3.80583841194598 5.57335867911393 -1.5451728361188484 -0.8746011066310293 -2.1776721842149787
Ni 5.457141349605288 9.006933678460415 5.985730276169124 1.0524234863615682 0.8968133810620103 0.6751364660403664
Ni 7.947859325407152 8.630022911386403 3.2737028445899283 -0.17033738420740344 -1.3600899181711543 0.6563900386707986
Ni 1.423202338766084 0.6756513399112416 12.795168108744175 1.2316502026388014 1.1900659514391116 0.22586781317454005
Ni 7.787372667488432 8.369114723094167 7.075839363053708 0.03359454812599375 0.6240836132286091 -1.3839811229664554
Ni 1.7083652736556636 2.9393331738859607 2.0565496447979803 -0.8379849980698922 -1.1713622043820213 -1.3603922799029218
Ni 1.1783214341587154 6.389819560559094 4.172614060300013 1.5451525244038744 -0.7757691866627802 1.2317329921605946
Ni 3.4234612627335106 7.0138424086235185 1.7756714982206718 0.4806548804865916 0.9823339286333339 0.46539178367993395
Ni 5.028690408082954 6.745227365241517 13.552817040045946 1.1282329772927149 -1.379929835715217 -0.4188072510521755
Ni 1.1771965493989305 4.917466265388198 6.641384697747332 -1.865886073810064 -3.1483317618341777 0.690425788099269
Ni 3.4560550310624816 4.461785675424462 4.927759425768643 -1.563847015489584 0.493766221057569 -0.6514229244735104
Ni 8.479901927080578 6.3642539978367125 13.263938266821771 -1.075823096232431 -3.334240261006961 -2.5640830212143197
Ni 2.787966449432934 7.388726523816265 12.964691031014224 -1.289762019179869 -0.7358044733443845 -1.080408144499952
Ni 5.0988794984662205 2.7439100124360727 5.843147879067509 0.6099808552786398 -0.4208178537243011 0.06305527658927206
Ni 8.127208720330858 0.9028473827125055 11.904434154477949 0.8664825912889529 -0.29653098401805705 1.7971995670769434
Ni 0.28044771546674613 6.590578952191763 10.628991471678969 0.5004899129346477 2.0237533505749146 -1.1730563042549926
Ni 1.956481384018446 3.149575065146567 13.159889215512155 -1.75831060332123 0.7758434915441412 -0.13097610880096155
Ni 7.629172965362333 1.4397409337053992 6.262444489821577 -1.5030442823799146 -0.43633394708202916 -0.6745970485971285
P 6.629485090371097 6.971496540186991 4.561976650905064 -0.07002965102457616 0.0927288923943048 0.35764610616182274
P 3.372674110314466 6.842897111409279 3.926431636135869 0.00046845499598628995 -0.05745078591830106 0.9981827227401325
P 2.783150827072863 7.15639598636352 10.763096328181843 -1.1952140712989545 1.0038748880289035 -1.071544266351419
P 5.984758784785675 1.3431681825926343 8.054320836180933 1.406536382559152 2.4863331187273503 -2.247695150371335
P 3.732423412375562 4.585216212248122 7.006146709415669 0.515850454551118 -0.26142257035069816 0.6706102960352386
P 0.5200528175850411 6.608632887757897 8.028850098454832 0.2257148325364435 0.026027020191380985 -0.381936089057439
P 3.8611436965406893 4.534754439718272 10.499607412539886 1.1012608195792453 -0.34487312276687054 -2.4293307332003775
P 3.797071748074269 1.1654177974101096 5.203003851978765 0.18081437247932733 -0.4565952684342266 -1.4087591012420837
Ni 5.792784650161243 7.729055294776614 1.776922816308829 1.8540140049628262 0.7686482593472826 0.8786678205012352
Ni 4.987636762634939 2.447079884376824 10.422512831251098 0.21457244276637885 -0.38828080032854423 0.5132287006575548
Ni 1.949239357341815 1.9385390072714652 4.10584703669424 0.938455482082829 0.411804080261465 1.413082925428418
Ni 2.49627732362295 7.69887863419594 8.58358562325747 0.05767575744491358 0.2693973610260586 1.127362915982936
Ni 2.390696197863644 3.58481250150066 8.553379213658355 0.19309241851573195 1.2131436591941818 1.3536045675571269
Ni 8.222098792588078 6.055096620261144 6.180696976117315 0.7549141975906418 1.313495615351383 0.400669146690568
Ni 3.3032938213700525 0.19715604177405202 10.564877688655368 -0.3093741585293123 -0.14285794784021202 0.7877191599358047
Ni 0.251923984723178 8.144658378959917 12.442447941946496 -0.07439538419243961 -0.24139650493775847 -0.9117936565209266
Ni 4.424264725916268 2.989980877781065 2.9168596497677473 -0.2794552594826929 -0.766137577110287 0.5900010697226032
Ni 8.787320846391022 0.5703193621813754 8.573788899622253 -0.0016943569832874046 0.6847045693447756 -0.23497183235833727
Ni 4.699443146491725 6.632450695646893 5.825227814084359 0.9123053060500224 -0.6270681497782297 -1.3053048520104746
Ni 2.9865783337969223 9.028864282992087 6.522518775940651 -0.3396188163464667 -0.9256344190587606 0.5970160675878557
Ni 7.757521386796952 1.1410700851301394 1.5661863476166478 0.2862152039143458 -0.02522380756379527 -1.0464873233827914
Ni 8.868544963302096 4.140198786081686 0.38416487928938403 -0.38735597452142967 -0.17183788001232986 -0.3776660009271754
Ni 6.410801915127973 1.0372831970455312 3.619605837880582 -0.2388176884669887 1.908403378346984 0.9950405775667251
Ni 0.25725091833769614 2.711660217132821 10.301333923260659 0.03555989938248069 -1.8494860351854856 -0.13921109511624413
Ni 9.101107914961409 4.29938392444363 2.738668607249571 -3.009755472088455 0.568222540394931 -0.42772203704330203
Ni 5.598272552401099 8.466663613874514 11.86199625001562 0.6516818345618519 1.743081187965985 -0.23366262662861048
Ni 2.5023851689715335 6.3967455039147945 6.575529667488129 2.931983972334931 3.713136277686496 -0.18268099337442087
Ni 2.765282822871984 2.7837272143051495 10.939014359759792 -1.0104651396519113 -2.237822885562946 0.2110019518063011
Ni 0.9303912551611867 9.035585701846008 10.23975066611816 0.7233832168618962 0.7733045271723714 0.2803317485503753
Ni 4.7088791632783495 6.4121406209578 11.413336428403865 -0.1925496586383845 -0.3861424138293027 -2.0231098034536448
Ni 3.2968698927005375 0.9294234824050412 2.224643684526055 0.5974469844776872 -0.5907199501664987 0.3120465631551529
Ni 5.900531876325755 2.1754062700363996 12.892644486292076 0.015162309562735175 -1.7677362675105037 -0.7305141714797225
P 1.188231575926737 5.466837670303267 13.164692752333487 0.36253017372700147 -0.6650528565521191 -1.0717113880569027
P 7.40731036377337 3.061555156835471 11.694037940184183 -0.16491389919898694 -0.6905281180050882 -1.257464592598744
P 8.129207482507335 8.390441050688764 10.19988419243729 -0.18257763502733718 0.7981043598248706 0.3575216647688165
P 2.128718904221199 8.551903848275067 1.0301973527157133 -0.7192154586374516 1.2697477808414712 0.1294740703341383
P 3.864546240524832 1.293552397774688 12.3743068855515 -0.6004783151048432 0.4350034011960638 -0.5523099829297328
P 8.810766791549513 6.576578320388161 3.0230441228073013 -2.7677848398147815 0.9094467535553048 -1.2172738793124713
P 1.5508163313079517 1.606000760515246 8.665850026157136 -0.3491357546979665 -1.040414377715834 0.971519097406017
P 0.09737225598335585 0.4372417764715278 5.438899623360248 0.24775561438656685 -0.05132564685716968 -0.3217555629128007
Ni 6.948794320489515 5.624126308739623 1.5955625736699042 0.8540525930557162 0.662879245939568 0.6007289976630686
Ni 7.093216508450317 7.064090360083327 8.724725192964717 -0.7621503103277649 -0.8452303667783958 -0.4028273306841514
Ni 2.743882122731285 2.582716815329389 6.537621980740208 0.5059879599347415 -0.1315101269275606 -1.3938788416961414
Ni 6.4013101189317725 3.372692703450991 1.2062836521792175 0.1242174499208893 0.2161932661992535 1.5580916010630457
Ni 5.152139538043139 9.204141781016737 9.19252943759982 0.6787951458388761 -3.0495479214950447 1.8752461748687252
Ni 0.6741796931552587 7.875559914028256 6.138366911846834 0.042691368220939385 -0.4804610193082306 0.6116415308105143
Ni 6.896101371576621 1.1966077839314155 10.05388716581279 0.9456946801437456 0.3262110275809931 -0.42006272072583134
Ni 8.871408306327002 1.5715104922606873 3.72747856771664 -1.3804512554363257 1.6364079175764463 0.9778805208476706
Ni 5.359016071592654 4.913784824356175 3.7201305601618144 1.8925052190594893 1.3347627522602752 -0.5588842937131406
Ni 7.871618169084877 2.8554409418834967 8.084160031333672 -0.7262937056404717 -0.23713901521298517 0.39305508178873594
Ni 4.508045399099579 6.059363745093716 8.887063727281364 -0.26762972760267456 -0.48456270018143005 0.08220511004484551
Ni 2.114839127805011 8.85182973356579 4.296296534123592 0.3934242922026966 -0.6747454012495347 -0.1374887131084987
Ni 3.9869448582713343 4.512498455297405 12.53359707513481 -0.5506832459595871 -0.48033503525332766 2.1050133230976713
Ni 2.8338078275362304 4.840602238992324 2.3630621487028143 0.9978610777346555 0.037971851258082986 0.8938730674867638
Ni 6.545992610803929 4.62430828179271 5.901655831428713 -0.8199523089378975 -0.4975182319008335 -0.021324729619705208
Ni 8.639988832564002 4.683062593212875 11.236370673582709 -0.8699978035310629 -0.36757982033576697 1.497126374233583
Ni 0.553130007463672 2.075793541101737 6.76152982734696 -0.11642006536365755 -0.16296757410589352 0.6481928475719869
Ni 3.913901721431423 2.650386535713468 0.530421280168413 0.3808325715806151 -0.23464735913938298 0.709368904860675
Ni 0.9740758294275403 0.5101956662561169 2.3714848395488066 -0.6462568068915386 -0.6141151891619875 -1.9419035669869587
Ni 4.37014010549092 8.90839005487596 0.32363399367422 -0.15858461454684947 2.3467049906783455 0.22385901027462735
Ni 1.6173983532052971 4.735736948989246 10.699105259859309 1.1416785612746596 0.6668320599397289 0.7387591850973342
Ni 4.930918399664303 8.571501014172807 3.7555207362242014 -1.3720172657363594 -0.6834550132083907 0.14990816981877408
Ni 3.6945491932733856 1.2549251566432345 8.261915064800329 -0.8603898481276537 1.0862232085198325 0.4709232550211244
Ni 7.046975377911726 6.6108826572774655 10.979643152038204 0.6960043106283109 1.0328188247567631 1.7443893652544473
P 7.209033155866839 4.890143651264169 8.121931988184958 -0.29356521652151374 0.6077262549165082 -0.7020152927090813
P 0.1374804404390549 2.101247545004967 0.3775838386162298 0.7740892278571958 -1.2290685579545542 0.5164412940575814
P 6.852574838970733 9.05571277213472 13.596126032954487 0.2153741127320678 -0.7172868741561711 -0.144261513055958
P 5.523165577406871 1.4412469777639543 1.6796779233106722 -0.9784577335073793 -0.5528961944505059 0.023451289044404775
P 4.73852591946805 5.194792193232335 1.3810424016948102 1.129338808762384 -1.4989983944453151 -0.015451301558063712
P 4.729610510504135 7.8193156760390155 7.664537111033583 -0.6494794275938943 0.013702694298073175 -0.44509780931758824
P 7.229150929587287 3.3768575660326734 3.971006821641788 -0.48085542653317187 -0.040096353800253524 0.42678229883785207
P 1.323357195624854 4.1052343928457296 4.005376234508932 1.9754263813347528 -0.9218232728427866 2.2515140098967934
