# total energy = -340866.9074328438 ev
CRYSTAL
PRIMVEC
9.27265482245138 0.00000000000000 0.00000000000000

0.00000000000000 9.27265482245138 0.00000000000000

0.00000000000000 0.00000000000000 13.57146762696821

PRIMCOORD
 96 1
Ni 3.532204553911043 0.3972349656674815 1.1547607859688545 1.9469902374812469 0.21534454504571302 2.5903450402346415
Ni 6.963476260926692 0.47292764634796847 3.35226127046753 -1.1888521336366686 2.1929365665732172 2.8178599020943023
Ni 2.953377626786452 8.737891472860783 5.357730638797582 -0.05318146911898583 -0.5926781023341342 0.057556715368546035
Ni 6.95353597504044 3.44576486638152 0.42949731332050345 -0.013872901327350301 0.0436079664979378 0.11206718771160054
Ni 8.858204168172472 4.540244123855477 1.4025029391087431 -0.6259196379960833 0.23833509240361536 -0.08421956937171302
Ni 3.465886527177386 8.939766439306315 12.517805725620107 -0.22675047288980946 0.32560399012461344 -2.141222168918061
Ni 4.011563713589893 0.5960063745699833 7.761115585653373 0.18690325898588456 0.5688403764845881 -0.7178831129792732
Ni 6.5488773219844 7.490914135456494 10.200953192841288 1.4469566953577275 1.0421385594957924 -1.1424120970065745
Ni 3.9967645566174492 2.5467438982698045 11.586965642752165 -1.5424289548251242 -1.2676376764770039 -0.20325238976786933
Ni 6.6054776065456755 5.275380192010445 12.635972728623887 -0.4183858472440408 0.7657082028823522 0.2895216425797595
Ni 4.728831376051942 1.0286712267512554 5.413671637606514 0.48819772583085597 -0.17910150355327867 -0.1191120103735239
Ni 6.713040401583486 7.754498619227599 2.297486593344642 0.2856747580298435 -2.384081374444275 0.1439205847767715
Ni 8.49893516009144 2.3316090355394388 5.486727175277626 -0.8111179984757193 0.8740269792951142 0.0566894822722443
Ni 5.4447266856117835 7.198510240739053 12.04741878667217 -2.68927800455713 -0.4304967715749618 -1.1094122450417863
Ni 7.719262531197971 7.365223300392914 7.429822176936916 0.1556360734414868 -0.13894961392474134 -0.7657467694297716
Ni 2.1877994331048347 5.316402416600727 2.260816025626019 -1.4420147779714199 0.4441752975033189 -1.0559433265893687
Ni 4.197434077946179 4.84776244580668 11.513680143243386 0.3213207893682273 1.0242655358701134 -0.2268242635505384
Ni 9.08455894314385 7.108129674943058 0.9800593342524861 0.7495213087098446 -0.34465329344658063 0.3149236275926318
Ni 0.6491414680531873 4.303967608307334 6.18242757006912 0.8015028439834583 -0.4312233653283412 -0.5182094417015979
Ni 8.565466457884224 6.8586210810743165 11.66155487751804 0.7697211806964873 -1.2811197701238386 0.7294600191835954
Ni 5.6959229026440505 1.202756046927105 12.819472075161968 0.40101393162449644 0.896234882850721 -0.9030367362639028
Ni 7.5205031767466375 8.156857653906968 5.175451573623895 1.3544977687953577 0.40118928086009614 0.6438206866462202
Ni 3.5134181553984045 7.306351215419203 1.900548352628989 -0.164146167795027 0.6209237274433888 1.2490393446495265
Ni 2.0673661932814653 0.7614509350547786 3.4739426096195283 0.38495327861720796 0.4528098332498653 -0.19855755539536127
P 2.9446984219454704 1.9960316603309587 13.402570914327415 -0.19652304146383573 0.4036549687917693 0.3640075296034763
P 4.034689714523022 6.491266318055959 5.233632845819132 -0.7079198311189744 -0.43841242687761267 0.6321725608843306
P 0.6128992969837663 8.386448585384226 12.751493315963547 -1.2289986239485673 -1.0814260442415053 1.0900541522301486
P 6.456558771346775 3.258605603015729 5.0594970260421865 1.424896116013262 -0.6525184715305343 -1.1297291022222673
P 0.8896917501731338 5.445181045694272 0.053248219871088596 0.38919971259838776 -0.7156282555068255 -0.28379733850147254
P 5.460990922033881 0.15826659844697033 10.943678928904742 -0.30089388897244307 -1.0980983626908636 -0.853626304151575
P 4.702969941969145 0.056490867235288796 3.300431766772372 -0.923437668517758 1.3291016973197562 -1.3032734234027428
P 3.3372377152502666 6.771300491344052 10.853264981551668 0.5159070188206664 -1.1192806531954336 1.4812554686395973
Ni 1.012045356794118 2.0833058867874996 7.237934786916834 1.3462021044454686 0.4726525790074053 0.4305872744062391
Ni 5.5086801853855585 5.9968669123813045 3.4358208714333687 -0.6587058312881687 -2.3085035399079596 -0.14400928783583586
Ni 5.952858892963248 0.25418386639098905 1.2585755739588822 -0.7284043242255713 0.7187917408364718 0.3475334432078531
Ni 2.9461727740498675 5.3737537861963185 6.915001603718144 -0.8485450329739257 0.6077080000840631 -1.16366972083377
Ni 8.676942313224272 9.130885126248065 2.1543891307944265 1.4977789202159173 -0.1225889131785308 -1.4254363047874483
Ni 4.65800683911239 4.242582633897825 5.459217990446707 -0.43232585436390064 0.8783520890330292 -0.7586502675943063
Ni 0.21370223757231926 5.73176171323208 8.146463007938227 0.9012706455024155 0.6404455995264002 -0.8378564429118279
Ni 0.4022737262557183 4.493324490847605 3.5396690409804776 -1.4725198885388124 -0.6534281278289972 0.9272938090390546
Ni 1.9591357671020406 6.021921625501319 4.7351525447913625 -0.6749382339866312 1.4384568854168323 -0.05205609726529099
Ni 0.2042673113696492 3.747608323629003 9.34091539254151 -1.2337369099645012 -1.1161230814030585 0.8493623866688984
Ni 6.326509788553215 2.0232005387327505 6.863959348410805 0.8996889028375925 0.2495322466710154 1.4155576122211557
Ni 3.695245642286028 2.971969299549453 7.178830885574506 -1.8265600225169318 0.07635379347039108 0.18747558654958682
Ni 4.958190491160584 2.461899107356359 8.946732057550488 0.3754934187558888 -0.5977616875046285 1.7885478049392167
Ni 4.763594558689593 2.7488414084292083 1.0457421841361356 -0.461726676123521 -0.22489567906925784 0.0722233162417853
Ni 7.407339698243065 0.3079151915742734 8.889012563561534 -1.5296050635875784 -1.6626359980350396 0.16260890521489416
Ni 6.213003221824092 6.123503558228838 5.841593526885903 0.5767069237168583 -1.038137151645883 0.738178887113832
Ni 0.5839574869947995 8.41012167294729 4.480416028177593 -0.07687958406687405 -1.570199440070173 0.844884810513519
Ni 7.372910331176221 3.2463471534433164 2.932495608301525 -0.24000682367908344 0.19873727550633516 0.5568821756814475
Ni 8.656115930667811 0.27184085555573034 6.8850629833441275 0.5976773553209385 0.3096083860273055 -0.8360702975456826
Ni 1.9337936016849429 6.684341535148829 9.284498706544175 -0.04593558618984992 -1.0095865937017 -2.549024069998668
Ni 2.746949786861302 6.265644082809406 12.951658404874168 0.7986859433599536 3.7802143022819155 -0.6633746975187478
Ni 4.84778099111617 5.542590283786703 1.0448779727139352 0.1710961167502989 -0.3355749852943963 -1.322249193174297
Ni 3.7282933837959207 8.476717879323283 9.676442695414366 2.234086301338649 -0.8772786534631922 0.35980094772129645
Ni 0.21809747592127807 2.225075505178283 2.191995309376784 -1.6859592461420125 0.12006383276383194 -0.13122781980045142
P 8.887932299283783 6.132646395807051 5.734623254486276 -0.32911071772629125 0.5608614720441696 0.5107370445839526
P 8.433006584857056 2.0018734328200813 8.445076799538153 -0.8163627918144264 1.7896598070564727 -1.9647676160693255
P 4.662411350116093 7.837386879989926 0.2553225483936307 0.9953527094905051 0.6063764257568331 1.3833648295386949
P 5.364351314285255 4.3679025627716195 7.6481051059530865 -0.2940228728842227 -1.477223464662069 -0.6686174339749259
P 2.0499614203257783 4.198852794122108 8.537809837842863 0.8272221031264333 0.3129333366354804 -1.5808481780332708
P 1.02418326185485 2.768462345868864 11.130815937899145 -0.5603076564232286 -0.48805451538477235 0.03298931044182706
P 2.7399489325290998 1.9659882589583286 5.534254167171273 -0.8863219946123833 -1.1463484559465031 -0.5178723700771531
P 9.157061830592182 1.0456494575886892 3.9651485130001287 -0.04680436194804842 0.28824406141891645 0.24085425928104326
Ni 1.3845649885052391 4.706586277319553 11.609385994659227 0.00607705943201534 1.5107426794654368 -0.12671604797302694
Ni 3.80842766609909 5.477737336502698 9.010192252091846 1.7969913077208792 -1.0325547724620991 1.259316043985186
Ni 8.198816416626459 6.370508535316527 3.6914531264954706 0.008387709843062974 -0.15719056241280027 -0.643868252054704
Ni 4.431652064141011 7.581786151953955 7.217116749749645 0.37485398539967696 -0.6677507150992564 -0.31309583035527366
Ni 8.32649159980539 9.132146207293337 11.338757075078622 -0.3916461172563513 -0.13663664952084856 0.15442328408030823
Ni 5.00052016006986 2.479934420834682 3.5072472036658477 -0.4644772422854646 0.15106336646913984 -0.30699177434006486
Ni 2.7966512162925663 1.2525038396320927 9.960792362220616 0.3652851107643193 0.8922095637414117 -0.9830371253479457
Ni 1.5492195188057911 8.146815368818523 10.786235742199095 -0.4310860684195285 0.31009175342162726 1.8397626372501348
Ni 8.095806495068265 3.973851826743447 11.487813145567742 0.9105415292813802 -0.0810609691380733 -0.8231664449998212
Ni 2.959914848381423 4.263742832025091 13.568495798327982 -0.3494039207576886 -3.0661580192479 1.1291359487229586
Ni 6.1782585844959295 4.283280315572045 9.76705971390635 1.4358356457439012 0.4562767087525432 -0.1159500677057745
Ni 0.47048152002633276 1.1026021030302608 9.821100745758105 -0.6746834376633477 -0.1772485095049399 -1.592441025077193
Ni 1.4170841886946874 0.6067385451714282 0.547448263468733 -1.725999807003666 -0.2921050870362195 1.4521032725556733
Ni 7.117087059426379 7.723166318845464 13.409451224147936 0.20870364269042765 0.7042714357331097 0.914470174911825
Ni 2.33375101878545 3.7245750492433207 4.345854971585291 1.6955702868692155 -1.0669489336712528 0.2472074551925807
Ni 1.3301530504636982 7.686168426414354 6.927623541356546 -0.970457231800406 -1.169753979354637 -1.5805679277886908
Ni 6.9453482209009225 1.6335543137082813 10.650005607752759 0.04199074260948897 1.9482529062437544 0.20912196117476886
Ni 7.740839998788745 4.575220577552255 7.328429406366188 -1.1355441662421475 -1.7039644244701817 -0.9794728050354551
Ni 5.45265480541845 7.882340710191935 4.584700012497699 -1.2531531097075836 2.289799021519921 0.0805176950400936
Ni 2.319202223491112 2.752114655554066 2.0559821550514723 1.8516910132566045 0.1733142074475402 -1.0633833278071816
Ni -0.04430103530798657 8.024138146546951 8.994068960021869 0.43015507196482694 0.1628043090551519 1.019180408037722
Ni 6.184044721056584 6.047810877548351 8.442281094132644 -0.35820557820971854 2.3629587335330466 -0.4015052694386182
Ni 0.14822245882757754 2.678628866702803 13.282544744047335 -0.18352534365258716 0.1481940153411448 -0.03782092750251551
Ni 1.3804479297986194 0.8500372421576858 11.837793735391068 0.9196810296888032 1.7802210302410757 1.8437455331572827
P 5.885576510136149 3.3601411724695245 11.524903764546297 1.363066484300975 -0.21987277193336974 2.774269676208177
P 6.273099297224096 9.03964220356082 7.074195467639577 -0.8783592881218807 -0.44688575445594647 -0.9937696812741014
P 6.845796999562481 5.618746597204422 1.74419099379394 2.074531866679363 -0.7342070469502775 -0.3245542087038604
P 7.659240637035924 1.4773749898443294 0.715878618781302 0.9302719178307721 -0.2282489118122069 0.2539956817590077
P 8.213087032278457 5.847363899933493 9.84932948859721 -0.9890455363255548 -0.5639799630684932 -0.6228515405937208
P 3.942983159098544 4.253709819591392 2.5245099267231095 0.9011829708846159 -0.9902763234088623 0.8670351213583132
P 1.5292925837595621 7.361699691589952 2.8564134761217637 -0.7791352749215356 0.5245407832362643 -0.4360814647515909
P 2.0944516177905554 8.9427336888246 8.308411777584293 -0.19174901711396009 1.2158600296840802 1.2514001315722192
