# total energy = -340890.4244378723 ev
CRYSTAL
PRIMVEC
9.10441871899215 0.00000000000000 0.00000000000000
0.00000000000000 9.10441871899215 0.00000000000000
0.00000000000000 0.00000000000000 13.32523708399838
PRIMCOORD
 96 1
Ni 6.502494211951949 2.5154325367048322 11.32599886532925 0.08740156664412044 -1.8536324532536914 0.7709954194232205
Ni 4.977367508972403 0.5697053600469446 5.9410966339929905 0.6718755359009074 1.3104198046395368 -0.5181307659448625
Ni 2.8355530035493763 1.7237487019181597 4.542920124852839 -0.1933428439636412 0.02761133395936535 0.6030000530854325
Ni 3.666959417240026 4.306098716263201 4.6247233271109724 -0.3207898565654217 0.09989121447069893 0.17469386140388624
Ni 3.9166481008159093 2.8936209861873703 2.4666210165861306 -1.0598308345692329 0.18381202165507055 0.1783473989960735
Ni 5.272550972924901 4.773710766478003 2.631227996720446 0.9655176284069437 -0.8281680119794704 -0.9903082050880623
Ni 5.630354628878674 2.7499805719384476 0.4814198116555011 -0.3879714966182415 0.5406502872036172 -0.9086162872342093
Ni 5.832745857170083 8.063109939127623 12.375520748893948 0.5110440343014102 0.6318725131454086 0.3383700315410302
Ni 2.2347159941088357 6.775499311886551 0.2991338712379529 -0.9112799501093015 -0.7714600177644649 -0.2511438141325094
Ni 0.6282121756675587 8.973834048764056 -0.27062247355386043 0.5851141739439472 0.44248402584382496 1.6537739196587193
Ni 8.302847493035378 9.041944205257444 6.962836383813594 -0.1834726360377808 -0.42391577592333446 -0.9744051607045605
Ni 8.762001538253205 2.6747325511634363 1.2742762955741542 0.6367964328095872 -0.031091579198481933 -0.3026694928156271
Ni 7.258880215335752 1.3433114610101615 4.844709755033328 -1.3921153220378153 -1.3127870193201325 0.7378801249264906
Ni 0.8900561686852708 7.973613503045548 2.451097072215475 -0.4303011106243879 -0.27038569308125693 -0.59730865912761
Ni 8.013017427294095 4.138076668664553 3.9606333685676613 -0.06564823412742887 0.7475806400437061 -0.5393572794238065
Ni 8.001454815511366 3.8967003193860186 12.363247992450546 0.3162338617636231 1.245837292772461 0.6198502918735518
Ni 8.504574098759747 7.295225054892176 9.19257499220462 -0.09387534729392219 0.3083287479839335 0.0938411516218771
Ni 7.412335192971906 0.7474855236367187 0.46897680258191277 -0.7696993263196164 -0.21186378558596414 -0.4512625433674034
Ni 2.0841653260464543 6.820684542026463 9.090702919747532 1.449980826896032 0.8416184810574215 0.22095932012932912
Ni 0.1923235620635796 5.185130344312481 1.2560474283998377 0.607573788499044 -0.1281286120498374 -0.3477694704780591
Ni 6.499863034939974 2.487909878894444 6.991205752565551 -0.046741112810280795 -1.9184016272102766 0.8085091000979625
Ni 3.8359010111300567 4.5077342778003056 0.23835550314506238 -0.5512054370116443 -0.5496908001393308 0.07960803874163064
Ni 6.226247938950693 5.93419639504013 4.746063378131061 0.09628781339015675 0.05392914591828777 -0.11032243710635192
Ni 5.512133751714304 3.001663123215447 9.35145165119244 -0.5590537294114695 0.8533653371807045 -1.3745724280580456
P 0.2926342267090623 6.002670728282581 12.209395151716041 0.13214313252586918 -0.9131614834027305 0.5678438168992735
P 4.198894185757968 6.391256423950851 12.565965158932364 -0.15656115635891746 0.14554166531996224 -0.7231795854915223
P 2.418843758434767 8.821162051138385 1.158451701418615 -0.20066483154635117 0.4336898245909628 -0.6073256770439799
P 6.6429389752278505 7.934710321826961 5.7484935662745045 1.2359174625555878 0.5327958241562051 -0.7613265288748888
P 5.17288490112526 1.105850011784047 12.425863632242457 -0.40718226521873746 -0.25492719243434164 0.8040502929956604
P 4.4009121328815874 6.619067189326812 8.061821663877815 -1.358565511106828 -0.671734639447669 -0.5162980836114979
P 4.88003216836676 1.4249780969873962 3.8492480889831926 0.8505165548779997 -0.13394059074592415 0.08884524106918247
P 0.37893956402747925 6.017747645693763 3.4668934574913806 0.02868451241888608 -1.4600068436734661 -0.6166803787860025
Ni 0.5310015655984692 0.3398697719461963 4.794220290543323 1.22893203237669 0.9034802515592246 -0.7824949354223878
Ni 2.215687758970327 7.049360227181448 4.206417166951724 0.39698629852234213 -0.13673383722034516 1.5818964167921272
Ni 6.196949919488626 5.991299309293109 9.041319642132802 -0.30712418615287107 -0.877579986753695 1.3953410280639647
Ni 8.934366393584423 2.4863894409671086 10.035875418519645 -0.1233198778072844 0.08423062511530655 0.09144308370334574
Ni 2.6856396447978543 5.448584909002921 6.932001538470484 0.02598588254080041 0.29635769166498643 -0.9704212363561481
Ni 0.9031155469066472 0.0835221165137078 8.692718732627835 0.0136489582420023 -0.1754201980469495 1.572636588756756
Ni 1.6260400801447275 1.2162410888435762 11.243075819567748 -0.39240587824051126 1.7900760686582848 0.9614545140811634
Ni 4.417300086589393 7.048859484151487 1.5509641328836485 0.516448236036117 0.7497485942293023 0.4067724313748285
Ni 6.184968504444474 8.193039098774348 7.812600036982604 -2.1464607916091807 0.33324016651363253 0.557963324560768
Ni 5.750742357699965 3.2454612478752463 4.84279054356577 -1.1251589663530814 -0.2895005595338369 -1.0103304138462599
Ni 1.4176217266563367 7.562030045673991 6.7385726999735 -1.1334340618776804 0.2925730278115735 -0.6265446731745918
Ni 5.098383442685826 4.503482514255002 6.855287706280496 -0.36564635075847995 1.3046070546125015 0.7705179655661697
Ni 1.3726367937284083 7.6835649312548275 11.315485082583818 -0.6722555449481454 -0.43448043881305815 -0.15553682885946116
Ni 4.817047799616424 0.534182649501529 10.138639724011936 1.0392093016641393 -0.05047229771793888 0.25128162526195436
Ni 8.66549469975168 7.434622810014522 4.8790625477723815 -1.0153674620495352 -1.0196105535966051 0.2433672555108841
Ni 7.382782249785495 6.295924055465051 7.139128885383448 1.5138773684396767 -0.5723067377666338 -1.9852760204353228
Ni 2.6401721776774183 5.35429044425195 2.410322022506707 -0.7571104339110122 -0.40493743504861873 -0.2980757027973577
Ni 2.4833576695311645 5.468833136250789 11.08313303314705 0.7316829949768432 -0.07418172551973676 1.2591694911049927
Ni 1.2801632127227476 3.5010769080421196 3.6072744898361955 -0.057739263692997346 1.3647459288859272 0.313234412815667
Ni 1.5698476077644046 1.519909871049228 2.425552804594368 -0.07406242633305309 -1.2255960260249215 -0.8617381346254321
Ni 1.3825970278152637 3.4629384979965634 8.124156887572948 -0.11027615724944878 0.14949807886454897 -0.5957148322779289
Ni 3.5589719067243086 2.571533964897889 6.848078827532807 0.6128931438294284 1.2185044092854629 -0.7029789421739312
Ni 4.526371022933572 7.40348569796969 5.869114368215196 -1.1979008741024981 -2.04115046300544 -0.1894892745455059
Ni 8.113912595621823 7.3140529928186995 13.608531266589972 0.7898477762430333 -0.21856305198301065 -0.719500079757406
P 0.5932548495250624 5.925665554693345 7.932433306703448 -1.250456536712027 -1.20846965075728 -0.7969548196014598
P 8.809808840986367 1.8474777524120976 7.837184698869932 -0.631507673606822 -0.2751841429111647 1.42609167898326
P 2.092186318944553 3.4154407455001046 10.257647222954281 -0.18291187843830434 -0.10019434753341454 0.30210770677488613
P 4.231160245724893 6.1744346919778454 3.726109004822735 -0.2978291340041903 2.255142350678 0.48306657525187774
P 7.291974777406794 4.165253358563332 10.167249449418275 -0.7631468699130792 1.2339459406515134 0.003961812861225435
P 6.542462610161544 8.053268062484213 10.119864591714027 -0.9158570279570227 -0.7647982894735731 -0.15090884316914654
P 2.7802709730417092 8.81324120684628 5.533237794322468 -0.7604225290033807 0.39720072852599336 -1.3156175467903923
P 7.086961476522137 4.05963299691652 1.381693869477589 0.6177988086611619 2.368176787398876 -0.9865489951559461
Ni 3.220396783121029 1.764254260832621 0.4329460654715552 -0.45471270669953306 -0.014996730519148368 -1.027623396598753
Ni 1.5421610704169386 1.1855500933163454 6.748166936427547 0.16773157115344017 0.9575713769766734 -0.2662158779742835
Ni 7.138210249533938 0.7524629093545285 9.097765217353723 0.4515517924730481 1.9233124342483328 -0.15211726165495093
Ni 3.0436344935448845 1.6682481653610555 9.009445982612991 -1.8426247892892782 1.0574988440019464 0.8194625137856726
Ni 6.622599703792717 2.5248374012493677 2.720640672150238 0.01395183419440178 -1.309380564741745 0.017824429775930593
Ni 4.363019542141648 7.343924590660541 10.416884416923672 -0.5094075271392517 -1.2710567294608819 -0.3260835008641933
Ni 7.1962145012408465 6.343485538892595 11.336445275376102 1.2169185528555817 -1.1661760321953916 -0.1849872729100943
Ni 7.978092877059014 4.029506475350336 7.9796715832661995 0.9455409281747006 0.5079761940093639 1.3826606043828187
Ni 3.5017779482840647 8.605888070348897 12.615428555431887 -0.13781138655524008 0.47185579413772283 -0.8313512948034587
Ni 0.3341540178696625 5.011563705709359 9.992568429963022 -0.5285262502465736 0.15962693976843476 0.5567757320105702
Ni 8.7567209753918 2.7596403602073267 5.9240677292068336 1.61889999059967 0.4698559900988747 -0.6831302828791203
Ni 3.8980932954511816 2.507284081944562 11.208003777749298 -0.25298858065073204 1.042677719828714 0.8335822410165064
Ni 1.330683632236424 3.6860969054032533 12.530879460485824 0.06522940142245541 -0.16482159659549678 -0.6140401129496779
Ni 3.3225028391393896 8.82641530074361 7.607924510032702 0.6990703511481444 -0.9636862316251598 1.470585133409945
Ni 5.720242554965992 8.302146452793433 3.758969583332505 -0.17704693501709506 -0.15344137978301314 -0.44660987508674055
Ni 3.3200082284083123 8.940566502737209 3.034849639915628 -0.3350293972035714 -0.7521543754573176 1.6176872012384915
Ni 3.482512998258666 4.641114012144397 8.920540423306269 1.1441943857179777 -0.6708141845159286 0.9870932976951903
Ni 5.080174605232708 4.803391171526585 11.165988706209973 0.2502267016348787 -0.023501682666365976 0.17750767670359752
Ni 7.984839251335394 0.008416124670831226 2.994193858092178 -0.28598791839488813 -0.726864233431961 -0.7966745693568796
Ni 4.98242956578437 0.8047823620085731 1.802398133529413 1.616104430132404 -1.178211623203687 -1.3315671281411132
Ni 6.127319325067902 5.812233601779145 0.1905245289232115 -0.006871530308852682 -0.9160922838962804 0.2652645698046077
Ni 8.175012349695761 -0.22020948618115743 11.145374481329299 0.8838964158900261 0.6091737859963122 0.9917788760963177
Ni 0.42354120092701963 5.137286623904413 5.806445012352799 -0.18588355947211857 0.4353540996672631 -0.03896352574739097
Ni 7.343023253206611 6.1318169079188225 2.3821392943386437 0.49252514956161625 0.11805245876075797 1.105867208003005
P 8.74418419080533 1.9544819857053468 3.4749017042032624 0.6507099575668858 0.8203986524466969 -0.12755371338297386
P 1.934625248462721 3.472743956965068 1.2638317064110458 0.5700050862166506 0.24185133308698992 0.6810273776035046
P 4.883464534226672 1.407952833968731 8.017315623374904 1.9590759650011873 -1.1794418960663622 0.3095626203910346
P 8.800158157136215 1.7291385178042826 12.263215923018096 -0.46549591335796603 0.3285455892514406 0.42125262726887447
P 6.6488659518188395 8.040640233710475 1.621535213758826 -1.6156722276909916 0.5254051881190887 -0.24652585574452385
P 2.0116031087957786 3.542993651859198 5.748547282344991 -1.2566441535799777 -0.10632951389687494 0.19549151487552782
P 7.107164181676372 4.346230994009874 6.009175835462709 1.227582203217015 1.1045325483519817 0.14222519935221956
P 2.6165735243381767 8.937598462232351 10.144849848025324 1.7877854728518952 -1.7151991168437364 -1.5242707958588588
