# total energy = -340894.5862797122 ev
CRYSTAL
PRIMVEC
9.05812996902623 0.00000000000000 0.00000000000000

0.00000000000000 9.05812996902623 0.00000000000000

0.00000000000000 0.00000000000000 13.25748881948438

PRIMCOORD
 96 1
Ni 6.5167176464863195 1.9246624061000353 11.493036878097977 -0.4635447031688662 0.08709740514014033 0.37177740335688225
Ni 4.683415539653153 0.41889956293930414 6.118171701676369 -0.10774696306969186 -0.19940293411479207 0.011608016552573555
Ni 2.8358287617964035 1.4602520805584578 4.900869537704915 -0.14787339877693242 -0.047614773664485736 0.5738126328881988
Ni 3.298726379626543 3.9903689545641803 4.473474354630533 -0.2796861445465764 0.45160450008785447 0.8907774592805755
Ni 4.76864348490419 4.285011807484337 2.4851957956670097 0.23891333350458857 1.077958911628511 0.25287288100847416
Ni 7.322565124572547 6.099038213659175 2.754230409239817 -0.20740189315986862 0.20293562985839889 -0.7142719985892474
Ni 4.9154576560837855 4.400484848834132 11.415095292625864 0.21550318211076436 0.3203571399033773 -0.07940363604030841
Ni 5.847684164050179 7.988029703785293 12.486552505328644 -1.1958493908901082 -0.485292636368919 0.48287991316236833
Ni 1.8328582584627446 6.676711396828447 0.2545850845830683 1.2298627717210755 -0.9792303500073458 0.9521504630714182
Ni 2.8020238206042607 1.3065084399222733 0.4760183191476146 -0.043810569427047134 0.368387660949043 -0.31947319463652724
Ni 0.6458845253861293 9.393009075031197 4.7530481024683615 -0.2921313122884646 0.02073080478944817 -0.4283810107835397
Ni 8.475764714099048 2.5440754523489946 1.3877145754494868 0.7106595986476406 -0.268366348658383 0.46028017348498146
Ni 6.69399430888488 0.655621109332387 4.782731594506585 0.39751594577356697 0.9498572961618673 0.14107103114311834
Ni 0.4456427859767325 7.434161286278656 2.0872196072346 0.6378009628147016 0.1481230528938933 1.4992431634662695
Ni 7.831930949346869 4.072580542522349 3.8963763627168087 0.4322343230913589 -1.3548937186821954 -0.1523921125828924
Ni 7.776377438004047 3.9317356790184297 12.670698853525737 -0.5043154573283251 -0.6775820993673813 0.0691873576289389
Ni 8.190859350938151 9.194183121342146 6.744986145955365 -0.9204644448220469 -0.3800910654289002 0.3540645594581516
Ni 7.00239646128812 0.7847945723202098 0.46709606108913104 -0.32126936730500155 -0.11081506047205432 -0.17249505398035453
Ni 1.8552318395840182 6.5463196153544665 9.16350957569398 0.3613106994976035 -0.08876656531244712 0.380952384987931
Ni 0.12508462310193477 4.96512338292101 1.4887625447605666 -0.5401504647490634 -0.6221786828964123 -0.4732819850612881
Ni 6.375102841931667 2.202366555904086 7.110998911026383 -0.02067166941673859 -0.6069297271571419 0.18418251762061183
Ni 3.3376582224035602 4.207990528021102 0.45841203184987395 -0.43314115117634433 0.8144964280296488 -0.32292747173371483
Ni 5.900067329889987 5.407422813111563 4.692328739581628 0.05686406017689561 0.8091197370987678 -0.08390049546939744
Ni 5.087263207957145 2.5273722606131126 9.524896353769599 0.7777522785310799 0.8842771962682126 0.27077701498240464
P 0.2724114844400182 5.535568178343409 12.499876108758313 -0.03445175391996647 -0.8159424164475559 -0.8255066630972235
P 3.9748070872093835 6.0793730134104775 12.645058910723359 1.0335289634499103 0.9597974380937148 0.8194722839776856
P 2.533323452028771 8.380699639658657 1.5534729197290955 -0.2671021372339787 0.17662038900263777 -0.1439468100290166
P 6.49784956167838 7.826423606301633 5.959453336039453 -0.9822267136315085 0.6977894275531917 -0.5910642208797949
P 4.897096826556329 1.0561326683542074 12.87809923308094 0.14599597924856147 -1.4888505073780358 -1.6566766951278111
P 3.9025232097406537 6.127843067086564 8.138732530177588 0.494302038956381 1.2106499462380507 0.16653163730806803
P 4.66965624017007 0.9771729490691297 3.803706257850695 0.992339633695794 -0.39905680789812564 0.05139892329726633
P 0.38080650300108393 5.822366690676106 3.6789268937300506 -1.6673087209203605 -0.28251332958272635 -0.95884407304151
Ni 1.1765967393387489 0.9275253384919231 2.3340735778553174 0.15435463562590188 -0.2455272392766804 0.2953804153533816
Ni 2.0841036105116375 6.452115063264893 4.744788899526508 -0.18006001081180603 0.1162819971238965 1.492547496613649
Ni 5.91879048461779 5.695353591695338 9.261377235559037 0.6590927823139422 -1.7610843094116253 -1.2584552386467875
Ni 8.591971463979542 2.5186311651548015 10.404688970368138 0.7401609505408672 -0.3072648254957934 -0.3893226113294972
Ni 2.3676593123012517 5.132934299460571 6.986391651375902 -0.04304643756751296 0.23979342211669671 -0.39664845556694917
Ni 0.2496203235253476 9.143819918494259 9.248703100050985 1.3661273826144857 0.7267313073985227 0.5889913975111664
Ni 1.549746405043552 1.1663791686890335 11.529043850695212 -0.08000861661415898 -0.09593274404358318 -1.3260292290420195
Ni 4.22713941485931 6.831542013065666 1.8065715651777505 -0.5085598344269758 -0.4168146461021789 -0.3496895703189074
Ni 5.723442852852046 7.974813892102727 7.978754178656475 -0.22330545176400254 -0.1443201342080353 0.635216489916977
Ni 5.2315048702142946 2.855077288064706 4.870708682215238 0.5878577981273554 -0.4264305719253882 0.42072555112081084
Ni 0.8278768502671738 7.578946436336324 7.1971861122453324 0.010489072456781936 -0.04659687392293266 -0.9166373577664729
Ni 5.01076730003441 4.653442187454654 6.968056184612467 0.027731147366681273 -0.194276154411188 0.13608977587844304
Ni 8.068049224281378 7.237165074851346 9.078462793043116 0.6246937360087822 -0.7147705354922207 -0.3888091620281885
Ni 4.788317743282898 0.27368415170622834 10.47360141184766 -0.32466708013264084 -0.8800117361236393 0.18975204128858933
Ni 8.15873922192761 7.550268396729055 4.7321682069855076 0.7094717489871265 -0.9995317805688594 -0.5412398411585001
Ni 7.161774258789661 6.086230017826996 6.9760110343860315 0.6850516682715492 -0.6391186531848606 0.14537891448985285
Ni 2.2080641196795034 5.170136039405943 2.5883389104490817 0.6581422454752149 0.2738677380925864 -0.04071059034548472
Ni 2.3930492507153933 5.512995318361946 11.384616496772885 -1.3957254079865768 -1.4096921545793142 0.020562911753016198
Ni 1.2850225555418435 2.9184026749549177 3.7117789196452873 -1.8019386244238256 0.3202661228514678 0.21776935243712175
Ni 3.464426751874096 2.2651122224737468 2.553604605118055 0.1128115220767928 0.4925323486504679 0.06666253432455617
Ni 0.9488572346622061 3.538630952904652 8.254589636239748 1.6380387683116497 -0.6990538960879122 0.1035051570742024
Ni 3.6655715868453513 2.730383070366142 7.111264314235635 -0.4200215830752508 -0.606188221005427 -0.10003673890962772
Ni 4.389415813963607 7.014335076639471 6.025422791079179 -0.6731775425417826 -0.4318383732045208 -0.4372286909821567
Ni 0.666611338471837 7.429768093224479 11.43836291117899 0.13174795396997954 0.007426117260742049 -1.0933616193368265
P 0.20274902979578074 5.690915107991118 7.9728147628098265 -0.22190497187205008 -0.8918678641312768 0.2701992881020637
P 8.51735058896859 1.8313364926212978 8.120358113455117 -0.28417066268049124 -0.19654232473754538 0.6304360378091981
P 2.018522749249281 3.450739917431082 10.497080990642987 -0.5993845678200322 -0.6876430831478093 -0.7075858448183233
P 3.9798162331041462 5.941825309229692 3.9123114250279603 0.511953433489557 1.1407406228414225 -1.0424504343092562
P 6.735697939444534 3.8589173718791914 10.31159494501762 0.7453679486631034 0.37522910935090864 0.7511444461355644
P 6.35491227014247 7.5351232033546545 10.202552270160938 -1.5166536456332331 1.5215068599604764 1.3138208599012857
P 2.284804597112471 8.409477318696021 5.792170508479395 1.0501642580137462 0.5828410616390544 0.9429677681308856
P 6.763941188811388 4.021755375044023 1.5999003650882404 1.1729064089406898 1.2290683008442382 -0.32045664159571907
Ni 5.270880561361735 3.019699742841235 0.19419815506765029 1.1493736159260721 0.41147317928460747 0.7044596404845158
Ni 1.4123979797229567 1.102646165948434 7.1802166114871975 0.7284971410496937 0.2550616611296769 -0.4408706586101182
Ni 6.9171413416470555 0.686435961808687 9.250147871787359 -0.2152890092174292 0.3322598048782342 -0.5275345757572657
Ni 2.7585629128229363 1.5617031366549212 9.230235384589426 -0.7995403209404488 -0.014322844380575333 0.6619256237770471
Ni 6.150261938857882 2.2442060584138686 2.537708492765941 0.5488788457609967 -1.4468908751167986 0.8851220607670112
Ni 4.1665767576217245 6.643694512947053 10.362490765910012 -0.26081810399747984 1.8064473109274564 0.24053132872398572
Ni 8.102750920344375 6.977160511084124 0.25019007990288933 0.08022870304476507 0.9636106411922181 -0.361587607308074
Ni 7.727789628637849 3.990287431394103 8.308693846781193 -1.1312149427391744 0.21427856567504389 -0.20173646734397516
Ni 3.2349752606259257 8.268867966572325 12.248089986347907 0.1639379084389628 0.0838858401813781 -0.1876977298627219
Ni 0.14421539368012495 4.946210007463026 10.2542569820631 0.31075124138249705 -0.06814811773114714 0.07579714963597267
Ni 8.771612298310352 2.4606319587096532 5.951711352321092 -0.8379094076369504 0.7903627682062389 -0.7393132578285913
Ni 3.6175816140597212 2.3415809560064558 11.682936950476538 -0.03464561509832743 0.5868476116952861 -0.6396768396811757
Ni 1.196334404627516 3.436201618767259 12.613042044394914 -0.3514746872437883 -0.22802239762369764 -0.0919984419861835
Ni 3.2355187484264425 8.342148238342002 8.068349048384663 -0.7729011210863657 -0.37742560278159515 -0.1671903539379895
Ni 5.639483045802215 7.860273838143819 3.6005487063915256 0.1210022854177013 -0.37008484614580783 0.34986054867913297
Ni 3.1683345981525615 8.330707820141123 3.7358273490051532 0.2721515267324281 0.20718386361179156 -0.5253054293164308
Ni 3.569981140864461 4.247810067538964 9.151724042739774 -0.8130666375616578 0.311590963674973 0.33226109042981483
Ni 7.2872746500589916 5.975023355711258 11.492745206311698 -0.4800303595287152 0.04451479458292334 -0.9532892046615519
Ni 0.8737227636797656 -0.17059085663920365 0.08062188614165806 -0.9811982723669941 -0.30797650685083733 0.5525179851754807
Ni 4.757139659793252 0.17461266636302772 1.5568932696203477 -0.01855359463247127 -0.35197039593328416 0.8008173878806595
Ni 5.930910262569314 5.655742389167675 0.4128940227435938 -0.1543806037678309 0.09906563324561002 -0.2256785799818694
Ni 7.757672399536261 8.812663743509384 11.369185066490212 0.9222325924660634 0.13435479546520732 0.030169324494528686
Ni 0.2663398198952451 5.038675398590946 5.7503563687336365 -0.8391057419378969 -0.395714373788454 0.3906986657414175
Ni 7.874594741687436 9.115377390267216 2.6175586262308648 0.13445763959165877 -1.1441722742307907 -0.05312593329070205
P 8.315952126357093 1.7404472161148772 3.6813789295233814 0.4643013788292326 2.0630714314482472 0.4107036481084346
P 1.726298417041424 3.2259261887473216 1.5483949320462673 -0.5354427748607488 -0.4762521234332056 -0.12235931366622797
P 4.6416213277934135 0.9395454770133521 8.23689095601592 0.7972145010207496 0.34981041216748787 -0.49023249687269765
P 8.702806742764928 1.4458043631947206 12.544156777305416 -0.6326117053042782 1.522821465006842 -0.2124343133774535
P 6.593032391808882 7.793950210220756 1.4754787971029362 -1.6982398632815785 -0.3198724869574749 0.21363090478871594
P 1.7956927510374066 3.218761207910509 5.932500870198826 0.4297310970535309 -0.19362489398043425 0.5724885147601366
P 6.860455564053157 4.023458303485643 6.023738884710578 1.2227133051604877 -0.30370436183804467 -0.2907529438836992
P 2.2166602850576766 8.526508358407298 10.178384273484959 0.6019752113653439 0.21748601686874802 0.08683746661053433
