# total energy = -381177.9090933011 ev
CRYSTAL
PRIMVEC
9.12070785480276 0.00000000000000 0.00000000000000
0.00000000000000 9.12070785480276 0.00000000000000
0.00000000000000 0.00000000000000 13.34907788079347
PRIMCOORD
 96 1
Ni 8.61425319337061 4.26585539362158 1.090999920653324 0.3227215263704958 2.00674010384637 -2.020876286137436
Ni 7.268355938100222 7.847794508407055 7.210785118020987 -0.2447937035447655 -0.3124144880175329 -0.37808483363214884
Ni 9.07534145849404 1.5655056591086993 4.6821755762879995 -0.7064648438400026 -0.5017045020680392 0.061051873005998084
Ni 1.8489134144234203 4.533566410710296 6.4774665250645125 0.9836878715580671 -0.509971884283154 0.07582003245410814
Ni 3.3825604409792818 8.320511676051204 8.694467994852342 0.9017815237005631 0.4297418956868083 0.5137845731610248
Ni 4.490078875636741 3.023678828128137 3.1047418554407935 -0.49650367459339 0.7152281918549296 0.4776628877378032
Ni 3.0575896199493364 8.12085938100923 11.331818263968083 0.1315245251052638 2.125262303154695 -0.5937507665730226
Ni 0.7377339276312033 1.4043427512333377 2.1681710240502463 0.8985774149409685 0.16279556730440348 -0.1867055411527817
Ni 0.04919162576881585 8.271889182452814 2.7760871805064413 -0.8631494131506617 0.4589036048524291 -0.04988377220432054
Ni 8.751446880991503 2.296986429431507 12.091087094926083 -0.6207591768410663 0.44824663935921516 -0.08639163732236735
Ni 3.997077253713316 3.4144008321164008 6.046264995454719 -0.01989391071044961 0.2781807636456435 0.07914035507659273
Ni 4.470879785592732 4.675055951732962 8.157407881543365 0.20142356408924666 -1.6879901605291123 -1.018977805108613
Ni 2.5918497938176173 6.9383413656240345 2.824331164728667 0.5682971023866084 -0.2172942125729161 -0.24575118236202836
Ni 3.575262756632403 1.2084208257058535 9.827764286132787 -0.016650206962171323 0.34030941465558806 -0.879795249237459
Ni 1.0862215818057914 2.208843908678395 6.7186444909194885 -0.8983406163398142 -0.6668099484525419 -2.27161000931572
Ni 6.130775650338224 5.029523141980164 9.722894387165558 -0.3012124486541264 0.26727620091799775 -0.7412094464100396
Ni 6.69827521405712 7.607327045694326 3.3669576460442294 0.559112864784179 -0.07222460179336594 -0.7903733097292002
Ni 8.789607922675177 6.620147230533614 10.5821480659613 1.3156021201714245 -0.8840373123432645 -0.4242623606294758
Ni 1.9692337925044485 8.486864266698557 1.2358714201502494 -0.0406159737491494 0.6839532930010479 -0.46874707330541204
Ni 5.424732534235246 3.31924448701942 1.001794837434593 -0.25348094690611833 1.9317621076775826 -2.2392179661382596
Ni 6.7737764337171225 1.0801107075400023 12.76874018367515 -0.8050638218618393 0.5686372593348464 0.6190519643419726
Ni 2.8568702020878147 4.665105259458371 4.066769494537675 -0.05229495274897445 1.2641736291878034 0.8011333764591816
Ni 2.7565241742188435 5.834535059065346 11.185766544874154 0.07052741659660113 -1.6434483693629955 0.28397320195770454
Ni 2.6132196123321605 5.882929534967252 8.419543409917638 0.3329943690514136 -0.9878090928152924 -0.004109137072367116
P 0.62807292082544 4.412844721483455 4.794801725218848 -0.019166545626121828 0.27417498492036 -0.21292976495663327
Ni 6.881628804154369 4.582079455814374 2.580497248745039 -0.8536355601229555 0.23146381920507877 0.6667387288949742
P 6.741653300636362 3.790137513091693 12.46644982687914 0.8865765338253506 0.19362463687011813 0.5323754487893347
Ni 4.795722916712647 1.4359368832582529 4.986347535115399 0.34030195845642036 0.47534555245853616 -0.3034444233084387
P 5.504620814375613 4.317268823824943 4.741845983316464 1.018294405888343 0.5053680669625554 0.26190953728944566
P 3.6382138822778893 0.8142028543950867 3.3010933663084545 -0.1667344973474935 0.520313118308162 -1.2708862653212887
P 3.842143789305915 4.926477384584814 1.7448178635534546 -0.3433111775963894 -0.22874436339138668 -0.5993105200489872
Ni 0.8858505749844984 6.2414098366725845 1.02631677258534 -0.030549847762398996 0.9285706188689492 -0.33629052330418213
Ni 8.474496586841228 7.642086063346449 5.157349862629467 -0.053976968437087686 1.2963188464617805 -0.435005972299225
Ni 3.2341209205677646 3.944104182465998 13.080454055831476 -1.3773163093517697 0.6674216138946119 0.8106811680486168
Ni 1.6788304542615784 6.823456929427201 5.114004610598519 1.0183311726635493 0.17773496222305518 0.19515135792728971
Ni 5.431819324241989 8.936378353548427 10.970806053760985 0.3262917602202574 0.9809519606841427 0.8588255889643274
Ni 6.386985454816254 8.304094401904308 0.6929849986606946 0.3020503711743895 -1.3743857659685361 -0.6449987661147214
Ni 8.095923365721667 4.296966128129948 10.510022420280057 -0.8222948410281451 -0.920408394773131 1.1825570446565763
Ni 4.720942232973536 8.324433580430739 2.2177493678322997 -2.1160875786339624 -1.8145601698425782 0.9168289049519887
Ni 8.90541355036581 8.177672270265349 8.831175548744332 0.6019628700701698 0.6891124686044842 0.03531667302342305
Ni 8.026368847585985 6.0750663667330915 12.698056521906475 -1.2709957943159593 -0.6060745782456982 1.2198555239967186
Ni 1.7670824235090035 4.205366859098128 2.0679727516485964 0.39909717421775787 -0.19653204032490024 -1.0404673424409565
Ni 2.178627003540247 3.103886333043583 8.327021125250448 0.9536743559151123 1.0540710492673202 1.4042876957342911
Ni 3.913622776799928 0.12571983713378532 13.17141487531314 0.9247409607102138 -0.47929913778964545 0.9978582495211783
Ni 6.782368140520664 7.388867851046297 9.62586008832033 0.1703767220857711 -0.3141306993776912 0.24737689089090945
Ni 8.173878055795845 1.1204698398177881 7.573412605589983 0.10222834724430781 -0.5895184736592298 0.14653822490527665
Ni 6.174153736917467 2.350652674476138 10.95875212625402 0.25141557973665735 0.35136515824911746 -0.9076721781533852
Ni 5.703351917923788 5.883513260270252 0.8320931228612736 -0.2799707656665308 0.28934166535846945 -0.604296917519985
Ni 3.7425912630207097 8.159339647467982 4.749562102165505 1.4260343433827634 -0.48953444236440846 -0.006529059367769401
Ni 2.446009675146025 2.4208456421619777 4.439156139516214 -0.9156315422097779 -1.1012860163902258 -0.023182865874366524
Ni 8.528965454177484 0.06295842221177403 0.7139088145609136 1.108024877775956 0.5014278513678848 -0.04667143591460994
Ni 4.03642398741871 2.045291375343874 11.83774848928219 0.8960304801493988 -0.09443430512118575 1.8027945446662177
Ni 4.884230265780135 4.726743003172106 11.740353922476515 1.2045253213975513 0.6512858846750139 0.3857109827188389
Ni 3.72192373901134 3.616123527842455 9.999660443017076 0.8235405405097881 0.6230777976719141 0.9390604626566795
Ni 5.773453678531035 6.919388534692231 5.529628883255265 1.5045118680643768 0.17305478313856645 -1.1262686544774925
Ni 1.6271251614067155 0.8180481448286041 8.467280282782882 -0.4711726520277692 -0.6981804923440234 -0.3601735005693668
P 5.204567767217512 8.721567442044153 6.52828619718623 0.22349545628762155 0.029196419058298107 -0.6404425142026067
Ni 1.9697992763917305 2.7812048096863435 11.228590092415546 -1.1832314450157815 0.09319503339744596 -0.07238375307904953
P 8.120211810751215 5.830138877877122 8.61094328848844 -0.6862878546714956 -0.3180927693492328 -0.1836143038219676
Ni 1.7770969607386098 0.026370702633844563 4.158531112169392 -0.5189193232844289 0.09998557395671812 -0.8739930407333852
P 0.7015128605092211 9.02582513552543 6.036106351040935 -0.12390583221774146 1.2504164275027112 0.9931361614551604
P 7.48279290058226 0.647849351676948 9.808875300155997 0.6132746955385632 0.23984664395213534 0.3258916965683613
P 1.723175335873916 7.290327723333484 9.684249035894553 -0.9524332844191599 0.7743028865298988 1.1992329626503604
Ni 3.825462014631097 6.023826229979057 6.057451543644257 -1.5762168499088465 -1.3257770038218974 -0.3774004059706146
Ni 7.758840244654457 5.618383403505742 4.559444595119735 -1.3502821880521132 -2.215551218648939 0.9845126814522076
Ni 6.485397892619035 2.720260239769922 8.66540668339998 -0.15416360266101836 -0.019246506934437822 -0.8557014415130487
Ni 8.619680014546946 3.748300826140686 7.717102061348331 0.38091998908809876 0.7611054140030182 0.7616674571540752
Ni 3.3194542633001864 6.651057309469076 0.1966014182630085 0.2902988870654162 -0.27364559477945133 0.10937318581920519
Ni 5.4181109003293315 1.2157538748248002 1.688725510218227 0.6777983291432456 -0.3083979106589721 0.24197217493557038
Ni 1.69486465867838 7.715480399490932 7.382840887292815 -0.7118497623009999 0.052191080181258495 -1.1551048619828945
Ni 0.9127092354888202 0.3859336323620859 10.675845097800778 -0.6485170636806251 -1.2495350533390222 -0.8052129458451939
Ni 5.706516803550996 0.06635679796018149 8.613145027365695 -0.652515900427373 1.6514391008779556 -0.8229216759788667
Ni 6.549388778960493 5.131538259387403 7.066293952041798 0.8222171937126743 -0.28542973189857296 -0.34090873880248385
Ni 6.851521347510534 0.4945329887730166 4.988790972750929 0.6931295601836772 -1.8744069667968815 1.948380432960554
Ni 4.524555151345223 6.849140842759233 10.134126126917225 1.0444584658782206 -1.2922446763924067 0.48168563574395107
Ni 4.959968623844481 6.806756913336664 7.858015173634283 1.3640859267044247 1.6720634619965267 0.03487855704473993
Ni 8.041563946879723 8.294928090505625 12.01040531320195 -0.507652492121358 1.268238029065164 -1.1897540766256476
Ni 1.2442013626382273 7.224622143914464 12.23999633179236 -1.920278275407699 0.8752068585358282 1.3022352119462155
Ni 7.207593782340988 2.719594428096187 6.15268359061647 -0.8020995970271928 0.5222473592163973 -0.07069736651556212
Ni 0.14709604014382974 2.380422664929176 9.625499820359884 -0.8928361415818172 -0.3948782510404038 -0.3583037943504797
Ni 9.010210483670162 3.306092426286185 3.1385815057406896 -0.590148651044061 0.8525448981619382 1.3204939010460872
Ni 0.48829989702191173 6.145076920261742 3.3012803408195723 -0.5722617434613112 -2.140632872073494 -0.39428098377603704
Ni 3.3791401755320125 0.772771126873037 6.599410389144512 -1.1160328356820972 0.33796019769712116 1.2034351736571662
Ni 7.549027481057126 2.4053039559695826 1.3980221006867828 -0.25076303375432296 -2.3274638830605463 0.21413098435358607
Ni 0.10683267529856748 5.928970868241436 6.6296728978219575 -1.9078678175584884 0.34232644508561694 1.1874979336016194
Ni 0.8061292037979577 4.778530382397703 12.298532122763117 0.4924662712992229 -0.7958142782391133 0.8200667230285746
Ni 4.798942526587011 5.9987351626578835 3.343423483554654 0.608343576785533 -0.07305429678351288 0.7822015725516851
Ni 6.733636198427962 2.508285868409917 3.8862907515577043 0.43190187945260455 1.0971789362003879 -0.8545603859300702
P 0.9544638360690921 2.8437272620624388 0.37873739386102984 1.3128790648133069 -0.47636756596514734 -0.11312571088310196
Ni 3.1685795138902124 2.0537280301138066 1.2027559540543886 -0.8287195136075663 -0.6855676886760194 0.2672481758935397
P 7.782690895706753 6.4215620583111885 1.616840651224471 0.36472255339262993 0.5177530708904696 0.3404901632078265
Ni 1.5770798373822612 0.9271473160302292 12.66398976598088 0.8281489858160771 -0.06554153334623551 2.187977937016361
P 4.366265266445567 2.467279165874115 7.99473640858806 -0.06437605228322461 -0.8073523607856999 0.7112085291725752
P 5.1370562876423325 7.336049831832589 12.398756845217559 -0.359783978440432 -0.5129903593945035 0.23295248793546333
P 7.3552945254158955 0.6451359410887805 2.9268652504131056 0.7200053015285988 -0.5660759263655735 -1.4446373031959312
Ni 1.113291842732451 4.694036144788345 10.037838814045681 0.9988051868154799 -0.30357349268713524 -2.295236647595724
