# total energy = -340893.87384119205 ev
CRYSTAL
PRIMVEC
9.03350685585320 0.00000000000000 0.00000000000000
0.00000000000000 9.03350685585320 0.00000000000000
0.00000000000000 0.00000000000000 13.22145040441391
PRIMCOORD
 96 1
Ni 6.3543493982262635 1.976630670403581 11.44390575687464 0.7391623340730239 -0.05056562876269356 0.4826893944181171
Ni 4.324800444613775 0.373447883806962 5.931976041244251 0.43554358997024983 -0.11189286691726537 0.4447388833162728
Ni 2.559273796113395 1.7774237770401768 4.661155845886751 0.7442387201546666 -0.48386310301124413 1.5023757955579804
Ni 3.3239240181176886 4.1746996945627 4.790951079209082 -1.2676117083350749 1.6830371873992112 -0.1857370065919253
Ni 5.091826478923283 4.687811917940837 2.6562683660127937 0.08054494873360322 -0.8625441754664952 -0.23132497963436935
Ni 7.2952704396664405 5.968049544203987 2.5313521297476713 -0.018532768696864856 -0.3764794368182419 0.3305003989849663
Ni 5.003939490644099 4.514233083550406 11.326552372556 1.3490084635460122 1.121640668787178 0.5255188308788176
Ni 5.8431613118101415 7.849719990453925 12.377988433618821 -1.2960185416125423 -0.32509825413278853 -0.38716391311528164
Ni 1.9380124285602764 6.413274963499684 0.24323349576614384 0.2695464850094132 -0.06523942872478442 0.02432469278829359
Ni 2.9160340826906173 1.5603937746342376 0.36149655422598137 -1.4918162748745791 0.7554050211841313 -0.4568752615684906
Ni 0.5144175651199763 0.03758300195669805 4.6625442958917365 -0.6231785849158364 -0.1323804453476559 0.024357345798441923
Ni 8.568281260438445 2.3449990133009546 1.1722429550555415 0.4753262691848266 -0.9350001765443767 1.0083442366541666
Ni 6.957905092326077 0.7486961455319054 4.776645617739361 -0.9959615467190976 -0.9578382574848149 0.762442387646887
Ni 0.4253634477539728 6.989992108706759 2.0642123261507637 1.1908215986582136 1.3730752746872288 0.9504779604650018
Ni 7.641389255157953 3.9611204917787814 3.932112094537327 -0.22820211773467153 -0.17889555819005964 -0.8694851255607026
Ni 7.546130925277801 3.936883592862855 12.75037036361584 0.2797434801470731 -0.47723942704713945 -0.9641462019807138
Ni 7.9812749509133525 8.980579547215115 6.925144176333346 -0.742000060632135 0.3552336400655882 0.17504713097824692
Ni 6.684189834348971 0.6195892654326051 0.5805825827941516 0.6703285031287617 -0.2330036528883729 -0.9107176498479284
Ni 1.919864113270639 6.256923026698769 9.363312069376823 0.8552376145027529 0.946383478680654 -0.9214748883644323
Ni 0.24345391333362376 4.715327979848371 1.4802864424662712 -1.2648621706143959 -0.28838110121741306 0.0575824264001589
Ni 6.1255306693628935 2.029955461421365 6.767809393985634 1.1420868524566716 0.6222843552363412 0.8908628199055303
Ni 3.6612803319511875 4.224067809574082 0.39125473253714255 -0.9107055656630701 0.694054900211424 -0.023454888588830575
Ni 6.008763559639723 5.7555182282162844 4.666815337937003 -0.7081394033289482 0.10064043393189763 0.995568425045737
Ni 5.442290411216345 2.8876508041241467 9.348411299804772 -0.8077843061167959 -0.6203416296876736 -1.0628071435887372
P 0.08837028089640388 5.573971840771867 12.547737964449635 1.379725690124211 -0.15591503813448632 0.44292831247009523
P 4.060452933254566 6.241024054618251 12.578689469017519 0.11007998207824267 -1.2875858374641567 0.7216628917366799
P 2.45226287380327 8.330158019505227 1.5565617610225582 -0.71533309286391 -0.06609586318780875 -0.6901154559477017
P 6.311657044787326 7.797352751163719 5.910028232967646 -0.43523942846626984 0.053622927531778615 -0.8780772381050878
P 4.797189619049313 1.008112265494095 12.499559562292232 -0.6193175592985334 -1.2576851932499824 1.3194796008489598
P 4.032141922743006 6.161962802545127 8.310038593017879 -0.15654033042331103 -0.39064955767103693 -0.26835066492909915
P 4.81457911976238 1.2383311879213736 3.999515606002547 -1.1588453028619332 -0.8411693093351449 -0.6204766126036411
P 0.20985378455323284 5.563095498507693 3.720476902430527 0.39125788067899714 0.25864037961987074 -1.0232640911887927
Ni 1.4735637066581337 1.0778148044561857 2.529184088100328 -0.019030791379205932 -0.26331850182183036 -0.5541997437532779
Ni 1.9500269926893046 6.73697261495492 4.7287047968124805 -0.9648920790078028 -0.7518738681024213 0.13046008839649145
Ni 6.309669673277261 5.693232198389481 9.256984983536299 -1.4860117523776601 0.5202223583665686 -0.07068939609576214
Ni 8.441134651328618 2.278936977605028 10.332378808152951 0.8213232211434952 0.5435543482242897 0.3240207047978936
Ni 2.4091640125554554 5.296869017720787 6.980476212576295 -0.2435662588955676 -0.0953133652920294 0.39180475432140266
Ni 0.3924019879088617 9.47705205094989 9.197924819010606 0.23382074947302958 -1.2676361338151072 0.10937987068742451
Ni 1.4326599875782549 0.8940461743232397 11.379768761491418 -0.30391236408379274 1.05458706967179 0.8295407239572811
Ni 4.2309061742700775 6.827145080470678 1.6357178649177524 -0.34605223067663626 0.6961284949110011 -0.19794948949771715
Ni 5.588696456960073 7.81082170989784 7.972600977622605 -0.09371362490507731 0.2514117230819154 0.23835334723606047
Ni 5.229831363283555 3.153326240992354 4.754830602013654 2.0151252425862713 -0.04258441032942989 0.21363681832598688
Ni 0.7561551121494532 7.507720454092366 6.995496224438953 0.7409145408774401 -0.6699909172836848 -0.32384715533450675
Ni 5.0250959637194255 4.504955672001149 7.344462401293976 1.5809546217041481 0.8588453864586693 -0.8363762588218757
Ni 8.489210974858457 7.263264724847533 8.992027710463773 -0.731359035978521 0.12017413308945109 1.1696863593414952
Ni 4.736077945114821 0.24403838122772006 10.483089319917342 -1.2249828179209548 -0.3871045206322559 -0.7764890955479402
Ni 8.055449075773089 7.1702828386970925 4.77948846234944 0.5245538958623869 0.20235224655110315 -0.27041140411286974
Ni 7.426382758289533 6.230319348984493 7.06880855274387 -0.308617739979262 -0.6252578360423683 -0.6098085913668336
Ni 2.3707896753974773 5.169695308090367 2.4631166323002827 -0.05973315419457455 -0.37678205566032524 0.6647990886701003
Ni 2.5837997672489674 4.977073841230769 11.314573942454427 -0.8088014345274006 -0.11055795015592573 0.916427555748512
Ni 1.0161159525755377 3.222125429268052 3.728277335607531 -1.0062451880332928 1.3178788320207433 0.050347599214616526
Ni 3.7297994815141036 2.615805482067875 2.5071043906235078 -0.06547905553941626 0.5296544503137459 0.47508021461229155
Ni 1.1894599157875076 3.299967157914544 8.2682983712024 -1.0517223465294856 0.8536918672821879 -0.13190607681439862
Ni 3.612725232557559 2.8183638064777967 7.042656550372791 -1.2402837099440833 -1.4012951887648706 -0.6408824299535028
Ni 4.112522066818263 6.850171489466837 6.080002698119369 0.5578561095589425 0.09029097237677354 -0.6286231529701755
Ni 0.7737090226874436 7.3330304983576715 11.195858305300707 0.5222936390733005 -0.25270035998635193 0.8460140390219557
P 0.35772325840891744 5.491432688556129 8.107591380742383 -0.41047790525087374 -0.04395840785882107 -0.39663508583051044
P 8.166543143185711 1.831290578469797 8.093339216963159 0.5794335786194021 0.11196151537167169 -1.2305058046217132
P 1.773223196348449 2.9600362946248246 10.491948480098799 -0.10122124613603213 0.5420805918922407 0.20494546119957607
P 3.8255727212854986 6.166985432361473 3.7579722793706445 0.9996405382325815 0.4546129478968751 0.8390844017816581
P 6.9497930031622674 3.919656695273339 10.454782826159214 0.5089997501778718 1.1573988002233937 0.8144074678602684
P 6.416770930656026 7.680070731549304 10.062792766163348 -0.2358118117611294 -0.07477822145315509 0.760711263888393
P 2.210101655301875 8.682311217581844 5.798795952900004 1.4839289017067023 -0.39498263782875204 0.59492113273204
P 6.991518771366764 3.7590861107669675 1.6665772277156268 -1.0136589639988607 1.3280151491237968 0.35503695067374985
Ni 5.362822651334346 2.675372426328635 0.5256778314258661 0.08571955095600721 0.7289154595340349 0.2857698888468111
Ni 1.270436271315784 1.1489717380233693 7.084317277327868 -0.14231158841843877 0.4556475598089766 -1.1856392831263258
Ni 6.682699305716423 0.6736304135446989 9.24422696179237 0.8326520158927531 0.1667023585579774 -0.7571461722449541
Ni 2.6287324303901594 1.5158405187813304 9.026482408993491 1.541086581864617 -0.6816110180211165 1.0231954427343861
Ni 6.382922380436876 1.7736297041573261 2.676153824672365 0.612334443112481 1.3022668365150991 -0.5308916651549567
Ni 4.033731819951058 6.77119153895549 10.497342387047253 0.7981277568636383 1.0410108736492523 -0.9091356500727892
Ni 8.0237143661601 7.3350630374020565 0.14208531941070973 -0.18256477951153074 -0.4292024782435705 0.15492104965233316
Ni 7.4574038208602715 3.9843185374053562 8.210957283032913 1.4143221971521578 -1.2900430407553976 -0.4294210220122798
Ni 3.2289366934434556 8.323942966782843 12.50363186718649 0.08782348467288746 0.2730580977070975 -0.19846216746807757
Ni 0.23320901319923973 4.678173166117023 10.280246440041205 -0.1648583633707032 -0.260498515874532 0.18860070129296552
Ni 8.417530097893165 2.371982098303516 5.564432457523555 1.0153121833315675 0.4959660569223652 1.2160646894957188
Ni 3.778688820661697 2.6298616187481514 11.41661643598939 -0.9611462388121252 -0.7386239450710506 -0.3138005697317821
Ni 1.1215550446913392 3.5707826601883284 12.756782346787856 0.45566864285489905 -0.7270930616133154 -0.9161228800238996
Ni 3.1598122989206563 8.268585636720674 7.931217579328251 -0.7446480397779434 0.3782779234795614 0.6311448909507646
Ni 5.543565056667874 8.083940756421926 3.663888305382805 -0.5884005580047028 -0.735471772595314 0.4030258198482026
Ni 3.101835251867948 8.632292690076259 3.688692508529786 0.42369208994830254 -0.4599934954824981 0.056511304823167186
Ni 3.4388482924406176 4.1270298788417366 9.191604977608598 -0.5037418442130421 0.4014587324713989 0.12929537866442894
Ni 7.519969889399857 6.114012948111382 11.320999475886742 -1.2783856590221274 -0.4112620917150659 -0.4480777178815186
Ni 0.5839376272434155 8.989974394353602 0.4359055502641801 0.8669698153380165 0.10550573244399894 -0.024708815600589705
Ni 4.398053151773391 0.4056713061412898 1.6722620135850983 1.0743529394448077 -1.0334430886043233 0.43906677263215993
Ni 5.9587721326547305 5.555046643891931 0.450249855813416 -0.04374706317896336 0.21547078621093213 -0.4804571626534887
Ni 7.9126564327749325 8.698101787579995 11.241101721078019 0.27199571788085414 0.6782775827725093 0.0682944135010243
Ni 9.275514512815594 5.0148338999219995 5.838856845789479 -1.4178389520561647 0.37985632371027483 0.0018954172504999614
Ni 7.682365242292743 8.666493547063101 2.7077530316823952 1.9760591298227452 -0.3175929468946788 0.04491897199987748
P 8.548940522242768 1.4776107177331748 3.4023158873321946 -0.4484155608369116 1.3422166374351594 0.39376933424694116
P 1.7089136609841253 3.0651772810141167 1.6772331524123196 1.5076609552163196 0.43021832110259456 -1.6015303889729708
P 4.776024112467122 1.0506420158094816 8.13990513814535 -1.2474650581838709 -0.10134260220524482 0.15379927734306414
P 8.407502905274203 1.3583142260881036 12.475376864417488 -0.18041816548217313 0.6113965046792438 -0.4802820705282051
P 6.347113559228254 7.628679111000401 1.5208766988579718 -1.587180548009202 -0.22648539215388092 -1.0762205887811658
P 1.5905747210666308 3.445298216341464 5.947405270967845 1.665036379946416 -2.4192090713853434 0.47022340074062247
P 6.976297312301041 4.23447440948133 6.0411315180838745 -0.950228563458357 -0.36909702831124175 -0.43561609507939814
P 2.4203384605461378 8.461740080485244 10.170257170518042 0.28670165663246105 -0.5461563046235111 -0.2987490747152984
