# total energy = -340863.2286574224 ev
CRYSTAL
PRIMVEC
9.33437325562194 0.00000000000000 0.00000000000000

0.00000000000000 9.33437325562194 0.00000000000000

0.00000000000000 0.00000000000000 13.66179879251040

PRIMCOORD
 96 1
Ni 2.8591185147211458 8.942450883589776 3.5097840675600556 1.6233567408194427 -0.03513952401561045 0.5980339673294088
Ni 2.0662848572452397 9.039080315076534 6.065141542353814 2.863764120825584 -0.07917609341053461 -0.5210093730442382
Ni 1.6024691867327387 1.3954327888988667 11.78755010318438 1.6434200872282214 -1.032008670150642 0.07499496544965148
Ni 0.6394643049849581 2.684416385692347 5.7165745775733 -2.851449822234605 0.12927763805261608 1.4159587043143163
Ni 7.110449459583147 5.468701230375884 11.163042264396411 1.4370841734390218 -0.061153174470552754 0.22938379674759848
Ni 8.42039805860994 0.48791142152099304 9.168746893671198 -0.2832862031930089 1.3114374472707737 -1.4138861380560037
Ni 8.671081985581376 6.437814525953353 5.91360546076163 -0.0909669153978756 -0.05866460372074412 -0.3535603661282233
Ni 1.5756888699885832 7.8131317405811656 1.7155261816346359 -0.2525347809427651 1.0029852863350983 -0.3941485719632309
Ni 7.68706169598494 5.248027313279826 8.178621923994358 -0.35947493184044543 0.8522314806865774 -0.17342476488347552
Ni 2.42724506933883 6.727348114231579 10.43932217305403 -0.24623043599129207 0.8101852022488047 -0.025756283028497577
Ni 9.309730466347638 0.17447717063439824 12.832910292903698 -2.015967535981909 -1.5890571962066247 -0.09335727000692308
Ni 2.504561682650731 1.920145910244018 5.033061365402677 2.2740448440094574 -0.13361148954127955 -0.5598723686580229
Ni 5.922669137150119 5.013958570625085 4.976596808408229 0.48384022019310874 -0.12410252160957982 -0.09909725781449384
Ni 1.2534103004839723 7.402746022332013 12.58601425458154 -1.6587528609305495 0.13026519877686596 0.043827795818227745
Ni 2.223419695889757 6.663164964028436 6.032380692692969 -0.20566125631967805 -1.3863956459452187 1.0832605263470827
Ni 0.7193646728018372 0.8383676634395401 7.27269486756103 0.0568792296855472 1.4322209318094496 2.9216859328430327
Ni 4.988783766073327 2.2603931481810093 4.34883780743065 -1.6811975630873113 0.3500068444490101 -0.7221812261339949
Ni 4.4031545251491035 7.7270408164503355 7.547324262132252 0.8997773487863407 1.0526060346860195 0.9387491020638478
Ni 5.97370015549808 3.512468633295719 6.788875635256013 -0.4973822205436014 -0.3606902923047853 1.133771647722757
Ni 4.15874329697588 1.222140150225024 1.8091639465070655 -1.7020193849286687 0.5152079358711128 0.3051395516226745
Ni 6.921036358372826 4.723146173216866 2.538936445439866 -0.22856104373598699 -0.05781459701562301 -0.2057517591509553
Ni 0.545180601486284 8.355440155430232 10.36564409842002 0.21606728214435048 0.11311645491172131 0.1951701269803671
Ni 7.390331305960551 3.2109590441869766 10.730413668221276 0.3396627822105247 -0.5992950934300194 -0.47362419889205526
Ni 7.3732400686100625 4.664881015629894 0.12560519281028623 -0.30471891914548815 -0.5606573264531635 -0.07297433547519691
P 6.367377345698421 2.0484375356646103 12.135966784556189 -1.1604792389209306 -0.7862585162298782 1.3949525343762943
P 8.915026495094018 1.357236533716892 11.08071589298183 0.4691324816692889 -0.3557663726406066 -0.7556960700619888
P 1.9910964810255896 2.154998740248536 2.915605474211302 0.059680189469452055 -0.31573532486064976 -0.4830385502274197
P 4.320834687795771 5.811823455262057 10.527125954669192 -0.7607079214542835 0.5210134868092962 1.415520074115001
P 9.064852519513833 3.7368109590639462 1.1618989058291511 -1.4427945935602375 -0.34434321840532955 -0.6286498924430528
P 2.6398914254728894 4.288043034703327 6.6907975090468135 -2.3783758394190655 1.9694292832110531 -3.369213691758352
P 7.843085744217274 7.241476056354745 12.586355892641086 -0.39780390932763104 -0.23999371105296088 0.32628044736634776
P 4.244787549240651 0.4604198255381111 5.402367440584783 -0.2557843982283143 -0.9125009670005961 -2.2116997061133326
Ni 7.0310886185379 2.1249420585070995 5.118570758082423 1.8525962986796933 -0.263675628050933 1.5604349044842416
Ni 5.958037077248972 2.3583200575441814 1.0532384007099302 0.9304583228099652 1.5227381612644162 -1.6563452799303218
Ni 8.234139975545148 3.0823687188236124 7.731375699369815 0.07547987550587 -1.6434105741465246 0.1892339640015902
Ni 5.868147063221009 7.353133828712219 11.32367749299529 -1.020363629712546 -0.426816237399581 -0.9937516835519724
Ni 3.694124870367179 3.5566108842135 8.237682370178959 4.553831989819331 -0.9611518952390801 2.1135432149455537
Ni 9.350988395943025 6.500084129648112 3.2904580339557556 0.35487265718174366 0.000277422031102748 -0.2813005402215478
Ni 5.772292384710819 6.023359020983932 9.081243678873449 -0.47316062899207545 0.6478318646881424 -0.4267591589094006
Ni 1.5608565509553087 4.486641159153889 4.707637112125749 0.2449420561971717 -0.45883341373612585 2.0340015106654845
Ni 2.391055704397355 5.838977146934677 1.0649605065890906 0.40320451151791203 -0.6917434784694281 0.12345357517167124
Ni 1.7523605517650347 3.3186217048098747 0.2971401690083798 0.3144325468888262 -0.9927016450209032 0.16780947557922715
Ni 9.31719796491694 3.154476751883426 12.097577307848733 -0.21868517938317172 0.9296425117768894 2.773574192803049
Ni 2.3138417691907818 6.342846612898267 3.6491621280440962 1.6298341210136704 1.2832023636844805 -1.1108885724769963
Ni 5.5966941558537044 1.215820779560753 9.633781633325137 -0.6404057474274003 5.057775408520219 1.1600786610484022
Ni 5.155495671632974 7.04905728697028 2.445898880764944 0.06084361364993393 -1.2941308376715261 1.0743025458228468
Ni 0.3482001239132971 2.9291449825547664 9.814007844420575 0.8850904361981271 -0.40499065688405733 -1.8235608306792919
Ni 4.345524104940522 5.432950580975356 6.964525203165792 1.2710305042086367 0.752037390263479 -0.45901904738437077
Ni 5.527470444116283 9.130771863134338 3.2598422232589424 0.3590103334992011 1.238581382540996 0.7919936189414425
Ni 3.2706243577556924 3.8397690955881845 2.7709133550578824 0.6160332321203068 -1.4182418439215383 -0.1973977307593052
Ni 0.7843589800370702 7.567002987737003 7.829399686214388 0.3643759686864886 0.040240849797917796 0.08510145775603407
Ni 2.421616442292219 3.5715085438592555 11.487523745978967 0.386320848388696 0.9461423092041253 -0.0667923750342011
Ni 7.388576443796765 9.274595885579076 11.163561255546979 -0.1625582544826168 -1.1462304423114 0.7391759609197787
Ni 2.885180084728006 1.6171894932874735 9.751354597986818 -0.36651461229604615 0.8052018901016004 -0.9277990308102473
Ni 4.879030205851025 3.8092456951861666 10.702844596940738 0.09013284953235445 -0.33401638255802474 -0.4418790452699745
Ni 7.246012561735595 6.858057342313982 3.9730695456741354 -2.573815932231367 0.6131173440250924 1.6462632131039714
P 1.8859354324234072 2.7168906700955953 7.988791576301477 -3.6476875611643824 -2.1629279360262688 0.8525122451517898
P 4.264408401731489 5.412722994225761 3.65793270511374 1.017154635856945 0.8019309326598124 0.1348777578482129
P 6.174855898208628 6.736981187385977 6.457836756492291 1.1813481119501397 -0.22290538811210642 0.09127081979153959
P 2.891210089822717 8.769671635442574 11.924851265628835 -0.7942525901789483 2.216278583733267 -0.835647351075651
P 8.294253339028021 0.5454998370501217 6.276285064400802 -1.1569270027932976 0.4389371890328312 -0.4660178472997071
P 2.6463788148549696 8.632699042935169 8.26249220073814 -1.0022201260342998 0.8426968017232649 0.6038634295269922
P 1.7507177020797884 5.162888495216582 12.829221348610464 -0.4572226176055803 1.346412677794378 -1.0845435068245646
P 8.172131734300315 4.80443922951692 4.3087541419852835 0.8075683334512478 -0.011885952804308562 0.5073537299340165
Ni 5.319864649516503 5.052266838285599 12.765762545768544 -0.939207529757505 0.12702406613174896 -1.6698705681102664
Ni 4.193056452901818 1.9740145780483134 11.826103864860363 -0.5045869658221568 -0.8172783616501602 1.2108504922846306
Ni 1.1247733032545497 4.530811413191305 2.524604448810735 -1.541826288244119 -0.5994647862386644 -0.9841121035796792
Ni 6.470363485342294 1.1722945972749395 7.371879116995808 0.5946401111565114 0.3222576993601998 0.7442160944468472
Ni 7.781338865422366 8.151176066440213 7.608815379101161 -1.1639803100956534 -1.0135206386487834 0.08212103497147147
Ni 7.452283540966115 7.26204901491317 1.831787666860084 1.1855585504870614 0.34024333730434303 -1.587442543421337
Ni 5.764302161241666 7.186981985545271 0.1473188117751714 0.33011241951792825 0.14873137590185354 -0.2532150948392413
Ni 3.9877095766192503 8.944999167476551 10.049181776863575 -0.3571971915498623 -1.597556234816571 0.02535030583933054
Ni 7.893640709531442 9.2564685328021 4.223381031154428 0.7491346147943873 -0.0653813536192874 -1.4865362574225625
Ni 5.474236513690379 9.308404985351588 12.354897040736315 -1.617330332119705 0.9974131915639597 1.4880064142101859
Ni 0.7872405010474993 0.6053527715203909 3.715653668742474 -1.3152853602619543 -0.1348996122250838 -0.2632202856810692
Ni 4.589673970663821 5.089679006117797 1.233935064215235 1.00606341103979 -0.6277219813121447 0.264545432250396
Ni 0.43231029404861965 5.17010396570917 10.88438228747241 -1.0390218682436814 1.0479821627607628 0.9942810736928812
Ni 0.4520776961988807 4.942121234388408 7.381701677926403 2.0303518297280387 -0.3388464569568164 -0.2033243806563853
Ni 1.5992768310943628 0.7633118353194951 0.5340260254983906 1.1511253085098563 0.1294121067479513 1.5994483096329617
Ni 2.0022603913866948 4.6213268302244455 9.390888174236125 0.6487618327015795 0.1996603015412368 -0.9755508442732295
Ni 3.4606908650908275 7.103747379617199 12.920373369896637 2.64169871211627 -1.620005564959023 0.9835485177667256
Ni 4.069077307904997 1.259430971205471 7.2666695296529245 -0.922809805125772 -0.16292926466879037 1.5304851521996867
Ni 8.424859889005097 1.5967378815808002 0.9439058207194722 0.518207641929385 0.6911143295258614 0.4836779835836315
Ni 6.186897239651626 8.872825793804257 5.671463418716153 0.11885104340265339 -0.35320221145785624 0.7412127888441493
Ni 6.643021386637747 0.029257659394521573 0.9272402307874344 -0.15368332059049017 -0.10275259517889401 0.2730748098776459
Ni 9.262853244078851 5.99063270850397 0.3675941511350931 0.16487867508567733 0.40351510077979547 0.4951425325798054
Ni 8.650929073817474 2.6589988874370882 3.50706589808083 1.4841279050913858 1.26524243677195 -0.8972440408415258
Ni 4.386035284678981 7.437572568784591 5.2289711903682905 -0.5555313180805078 -0.756620124538155 -1.69250836011444
P 1.0672642298977197 7.876661484659494 4.666447323454805 -0.9487584066707339 -0.6114106457466308 -1.0661025265105577
P 9.047201219770647 8.9269744928049 1.8413647337752128 -0.7229517857514324 0.38699422030663677 -0.050766689029906116
P 6.134512737187979 8.733220908051173 9.310788984269836 1.846003475953524 -3.9038026032592383 -0.9147756219673858
P 6.762641379344738 1.907031115881683 2.9563173429738105 -1.0703093655030536 -1.2901260873875071 -0.24532592189915173
P 3.875622423094041 8.460946575841245 1.5551635167335378 -0.8197597333111172 -0.2051994861919111 -0.9254176750622642
P 8.983755485051224 6.603910362881032 9.379699061067347 -0.11470693932729277 -0.6702865941472327 0.0847301904595444
P 6.170366064693836 3.5659639261715492 9.037744566269948 0.35627005174990256 0.3973655362386318 -2.875498121433061
P 3.949447980824794 3.0835448498482774 0.3873540857867849 0.48385410415017965 0.20704579537203055 -0.3067092101026395
