# total energy = -340876.1986565975 ev
CRYSTAL
PRIMVEC
9.18578403629553 0.00000000000000 0.00000000000000

0.00000000000000 9.18578403629553 0.00000000000000

0.00000000000000 0.00000000000000 13.44432345039751

PRIMCOORD
 96 1
Ni 0.9933414911920514 1.2511588894783987 6.55003439764133 -1.9978782825803656 -0.693530909387154 1.268871805994421
Ni 7.502020570886148 2.568207407271472 13.0433328006799 0.5792749415543507 -0.6918545501259956 -1.189638891204022
Ni 0.1222196112665884 2.4863988153614636 4.294412788335639 0.39632912455431746 0.6654477779976927 -0.5507896896304644
Ni 1.1876851223440894 6.10055469853963 10.707636875475048 0.3729994486894415 0.5099310037428895 -0.12292572769265926
Ni 4.161986852515804 0.006314307891190192 11.468451268767755 0.4849856466514616 -0.15111196031888816 -1.23824173981339
Ni 2.990762655020439 0.06741722418651756 8.36216727614127 -0.6121552372221393 0.915251790272856 -0.17512889205877583
Ni 0.19904583395899209 3.788796007745098 6.341566705078913 1.0187929427913165 1.7106462073657311 1.7885084670608489
Ni 6.911861509080365 5.418381638848987 13.412971502794914 -0.25639349256722294 -0.18620597580854384 -0.2150133869585394
Ni 9.732705532487133 6.387886020675838 5.170754030704766 -1.1854631625597776 -0.7393345979848299 0.14609445249963873
Ni 7.964047132293022 0.8649775090374545 3.5453892673285483 -0.6898712011473797 -2.8114545127885906 0.5585135406372833
Ni 2.612391028098683 5.478980255605143 5.836759192054874 -0.1701329815060812 0.2828527152000161 1.612541395371494
Ni 7.4666736742243796 4.765795989279851 5.283444309695648 -1.630822967289501 0.2556627850487855 2.0652699817614626
Ni 6.776756998659029 1.302939153637024 11.043865962764563 -1.469807374703656 -2.0300301847225617 -0.2303379331307517
Ni 1.5311415844499976 3.781282036469285 2.385157697493042 -0.10689361393046105 -1.1255091506036488 0.5838615324837687
Ni 5.7109029289202 7.4412749815867 12.035573302990885 0.8458787989956722 -0.5113327691864226 -3.163618255679603
Ni 4.4582467566570125 2.030793116939668 4.333643434453903 -0.8434879301659925 1.0893807803122078 -0.8072477168870356
Ni 8.299043487375673 4.692732263695726 3.2822165569959925 1.4127124294628768 0.48573820854676986 -2.388153487631119
Ni 7.148211730262098 7.8344724638130545 8.997936511022594 -1.4061759138959395 -1.6829430850235083 1.1464086197604773
Ni 2.2427275243669884 2.878916549575092 5.479596621708574 1.7057207450396559 1.8008808725832728 -0.8388658580129489
Ni 2.1462676070475406 7.205779038312852 12.823706217768025 0.9739968695225483 0.8676691553978862 0.16806787144693636
Ni -0.09992571360595616 1.321944540641494 11.578009195429722 1.8315289364864327 1.2211508457693743 -0.46146905158676005
Ni 1.6596598877750515 8.091610114086675 6.2513815967796456 1.9059783138452597 0.6702459707172843 0.7926929590013122
Ni 2.462883208434715 1.9015123935462859 11.68421982241821 -1.0275552623649786 -0.4289404828314355 -0.1506645883688244
Ni 6.924427661531846 3.684197485840846 7.452833453538235 -0.019707505731256382 -0.08190531941623959 0.5389893545614266
P 9.099005854731042 8.4287926857508 7.7520374014372635 0.513313032841245 0.10456188047349088 -0.04471122686444558
P 0.632490828587514 8.263421017195233 3.855953274245667 -1.1465708563699544 -0.2571568530958087 1.430074574890408
P 7.660796846561479 6.646520953734249 11.141364792249409 0.15011925738831566 0.2955375097565362 0.14837810632749285
P 1.6195914981600215 3.83130781589236 12.408733834674539 -2.426164419657254 0.33169853305812547 0.19563755353508888
P 7.83448164959701 3.057148315668725 10.609709069879472 1.8617298855498454 0.8608863281480981 -0.5198510910700789
P 7.1576547161686195 6.827232881495937 6.390920085116426 -1.4636740081124082 0.9496912028976483 -2.6750628893990123
P 7.876249409243856 6.534647290937034 1.8597529011050002 0.1246437388250305 -1.0773354191118993 0.4456557387035873
P 5.522943417617416 4.564948823087134 4.181560839547136 -0.12064207386480515 0.5782099906249462 -0.1843342127071277
Ni 8.716812941683688 4.766246092693683 11.87229231886365 -0.6997491223827239 0.08886838099763404 -0.5276199363822203
Ni 3.357688795133317 4.989828074176908 8.255459698240774 0.04622354974391394 0.3201601934012228 0.3519950785236325
Ni 2.488842233893696 5.222458052856558 0.5036758244406891 -0.759295357377473 -1.3860670589612065 0.6596010894089286
Ni 5.184823895989806 8.531756138110925 7.310713759909886 -0.6437679790314138 -1.4504004309319536 1.0345962283721601
Ni 2.0023906729484544 0.743119817658723 4.277445726790953 0.21140175834788108 0.25569415250735317 0.3640846626983149
Ni 2.845636454303369 2.8320506798327987 0.579092947874279 2.0174793446407446 -0.16653086597711964 1.619190525256895
Ni 6.4656344960774 8.793532609282206 5.508139608194311 0.7976814133548391 -0.2641826495943386 -1.0491255323365867
Ni 6.106938818388885 6.087547628458273 7.995648066257631 -1.942246037928042 -1.5596466042549915 -0.41245071270652833
Ni 6.34976501725943 7.627718838536784 0.6999594931641838 1.533752510097049 1.0093256267308295 2.7784685447808726
Ni 4.344434893445132 9.02414171549159 5.044014095153547 -1.2280537435367946 0.16920892702991502 0.5024552641911346
Ni 1.075113339966237 6.3866091967059875 2.853732804281977 -0.3609468884002816 -1.0715751195893546 -1.9222055743373994
Ni 1.0643567869540407 3.756976452122341 10.225375869170426 0.4193006457488262 -1.6579504196339123 0.36246641036860155
Ni 7.541060152698134 6.88012462551321 4.188202161347151 -0.7721783839877282 1.1282424903744117 -1.3934633514252777
Ni 9.235846478320015 7.0138145252053565 0.24872898364051724 -0.8803956018256192 -1.0047963714019081 0.012698164292958777
Ni 7.294734170140443 0.6052485491099132 7.825658704107502 0.4124609971191735 1.5532702684150024 -0.9449441751309662
Ni 4.842432984822765 6.611054641881055 5.482850226385706 0.5289790215132761 -0.3655928718127252 0.013122910535203208
Ni 6.802954854500861 2.7337076768024198 3.7561690217126302 -0.7833667965043799 1.453022184825517 -0.21869752067834594
Ni 4.926427793314244 1.6777926253037239 7.638378940817445 -1.2006151877098679 1.1953043170199156 1.4163258578457478
Ni 4.632317362618685 2.07746608521889 12.773222986303953 0.9903969081471268 -1.7671158603176855 -0.6543845782049955
Ni 0.7530707774179991 2.160716845209953 0.30371508639970324 -0.7801521462218242 -1.8086211786503237 -0.5154588755396542
Ni 4.068282670383085 9.15901658131403 2.6533853447364537 -0.3561306979585609 -0.15501412358677175 -0.8751834614970606
Ni 4.280217077810406 2.2425621802557845 10.088566477246902 -0.4678428163235878 -1.2111955343288754 0.2601215921510875
Ni 8.767206152464993 -0.15045487398980692 9.760753405217654 1.36631173071115 1.296808384503689 0.9655957899430467
Ni 1.6314595310308646 8.730821262216224 2.1426888256183765 1.7165636012914307 0.17315865570628244 -2.1775431148362823
P 5.149798501766488 3.8624935524221695 0.18165255203875838 0.6442693441478646 2.0161158886343147 0.07297844924025496
P 3.1101778464453336 1.16904716669785 6.334723296031871 1.2994679336137231 -0.7869095195503157 0.6836990108983967
P 5.622912304407964 9.394209393717338 13.200335301473375 -0.020545685361835583 0.19950063603492094 -0.9119852037064423
P 3.6285683782047564 6.940025122688728 7.299501592013484 -0.3783203466817226 0.6313438943354482 0.30060489697711457
P 5.249767388557036 3.5665092217996346 8.843285570921795 -0.22983759645556545 0.7813029719968158 -1.7833120104615738
P 2.9907810265883503 6.934063548901439 1.6278384949955038 0.08781422870150683 1.3741080868271174 2.1563189153501834
P 8.138108552470738 2.1359152285293983 6.147820149884 0.9288894356609487 -0.7066579336874153 0.5718243988135765
P 1.5690237574835564 1.2566244309320767 9.78948378169609 -0.10755901542860187 0.5692293843928906 -0.9580796840716596
Ni 8.653155458870264 8.633828569427342 5.63015988794906 0.32897599192063987 0.6316999921232863 -0.027222068940746663
Ni 7.000651296796751 3.553290878687294 1.493018743876798 0.07061431988345258 1.6425369132923195 1.3271435451521207
Ni 7.867385127726546 5.096429096983516 9.47078668166454 0.05759759590881048 -0.5694188746958774 1.1472493704942177
Ni 4.750336314882304 3.7172295649457627 2.3038322778191067 -0.7688945710301338 -0.7871141793619542 0.02061999024319675
Ni 4.219122428720639 7.58349847457375 9.526970610651558 0.3178554565274461 -0.5280822207306195 -0.11507666396188568
Ni 7.929233011100687 8.755650436248647 12.460669338582017 -1.0848448401150672 -1.2428977505281626 -0.26163314369960744
Ni 6.172093583987098 1.9569669712872158 5.864857586597151 -0.39192611039061537 -0.36201338199158295 -0.6781464565112837
Ni 8.723454263483704 6.224663825565919 7.530474455267514 0.4898463171778725 -0.7472859916214226 -0.16617811062339122
Ni 2.4450903449124053 2.761274214453659 7.987326664572107 -0.20519048733084663 -0.5406847399859785 0.7770830203781972
Ni 1.525317797422045 7.114068171298533 8.436877094210265 1.6514298449065754 0.3175970606597369 0.8263101328351253
Ni 5.9334469168164246 3.5151147605671507 11.439855004735074 0.21001593374394797 0.8923522599668631 0.021851034436820432
Ni 3.1439999029704464 0.24925716621797347 0.06790866362815079 -0.928300395926698 0.21145600862458422 1.2907500941247514
Ni 4.491490108792911 6.45536478961486 0.2226661588228362 -0.7559194989267046 -1.3229235935335024 -0.2563634106602359
Ni 5.132216911275161 5.209212152392351 10.063640852482944 -0.15498455590041693 2.1018485522164445 1.0094688371769132
Ni 0.1248844071921547 4.377613945093341 0.6305645696919909 -0.8165430261460324 1.0262036334330906 0.5459439315023888
Ni 5.971365832985807 1.3742943234053764 1.5673390847060698 0.11078035057937695 -0.9634473761414762 0.5013070095193044
Ni 8.950039996320463 2.587286280547588 8.532977847377042 0.024421109156841814 -0.39920361788863507 0.3926899851398334
Ni 3.595554670667751 4.132840360024175 11.91601297617949 1.2791533904260872 1.6127342281085901 -0.4167693946865403
Ni 4.502494677971914 4.050379577453307 5.981849568214517 0.6615672119963638 -0.7648432837788957 0.7007883622805157
Ni 1.6513283817271762 8.519961591511729 10.918470825984471 0.640425287811426 0.6667217596141097 0.05997226678857413
Ni 5.117905459872085 6.473240325192771 2.8984749207736984 0.19502254565890928 0.7807568696853585 -0.33040552527831485
Ni 8.552258807900184 8.972747254259106 1.5745186934458928 -0.9739536749894387 -0.0717386632958829 -0.6516265558438842
Ni 2.7841008875837256 7.556189138873272 4.190999232561681 0.34355800349987287 -1.0428834080816167 -0.8232407498811822
Ni 3.2442994779834016 5.055800374547185 3.6713759685953944 -0.012338466960694879 0.02214696841068444 -0.6313019853539192
P 3.639747477278918 6.570600449339882 11.395878982625264 0.1450582979256405 -0.18682124079503953 -0.28120823761805763
P 6.079372280737645 8.779478359829891 3.3509032565251964 0.027848132560519778 -0.3530962820076113 -0.24356651600588375
P 8.572384860547258 2.1362459167518053 1.9069026115715264 -0.562675642434773 0.5886725807191668 0.9232744034670164
P 5.5704431064526565 0.34237345817752396 9.349814499859143 -0.6983429860638167 -0.5456158587390086 0.37607397384970714
P 1.1252034198770022 4.450640927541642 4.415129605347065 -0.0004419726334250453 1.0867947647525864 -0.5448121318907907
P 0.7879299089517169 9.095533628395765 13.310606044970308 1.1020966852169793 -0.06726391535398092 -0.8974916380759574
P 1.0346407758571534 5.007859768082067 8.48663464874183 0.5786712465320808 -1.43729217568477 0.010746439883226653
P 2.9637013354867667 1.9777452145951473 2.746742304235645 0.12482191627410762 0.37189953075704335 -1.3214346676928017
