# total energy = -340866.37755522586 ev
CRYSTAL
PRIMVEC
9.31355923851852 0.00000000000000 0.00000000000000

0.00000000000000 9.31355923851852 0.00000000000000

0.00000000000000 0.00000000000000 13.63133537456477

PRIMCOORD
 96 1
Ni 5.473634555309375 1.660039457660442 10.242366803173661 1.810268741556076 -3.347972265881073 -0.8653363934996517
Ni 1.2446174682558429 6.615933263463009 11.765600322797935 0.1506455622054309 -0.26932177059311685 -0.7084170824703672
Ni 0.5488051944772167 0.7650194686236558 13.008301060594192 0.014818553070071254 0.3290047882760463 -0.6815218007414199
Ni 3.7175816170469242 6.395537201287635 3.1370469894806665 1.3302664070518189 0.2098110168219935 0.08107536731577651
Ni 6.0635553877209825 8.545898290510145 11.418328439282277 -3.0555018250856345 0.4013864844725668 1.0422282909961214
Ni 3.3193058899168717 1.748359938458662 7.916015770134717 1.9850955289934002 0.20945774724763283 -1.216547799779724
Ni 7.232705086715201 8.199741240016898 6.848124016862982 1.1610327974315553 -0.4690365795213729 0.8826062363236928
Ni 2.007854321670727 4.036943558054092 10.861925243303935 -0.19482277094327738 2.7409016422706927 -0.31601788909807516
Ni 7.787029496305886 0.6251633399873177 11.25288516977312 0.7991577407900494 0.9772115198051041 -0.023080793078863474
Ni 4.105835954602066 3.756167692333967 13.388056775484735 1.2726922081817758 2.1920366804667664 0.800176411862551
Ni 5.138206724881463 2.2111786300442318 3.7229769618245694 -2.0676107140794975 -0.03574347614819651 -0.5062309291834829
Ni 7.294295652940934 0.3704542634328638 8.925566457945294 0.4214048365760227 0.1014917261885994 -0.05277549192981879
Ni 5.307583110392 6.166777563054386 9.520738274968737 1.105287167129819 -0.025715145377917 1.9781885174609217
Ni 4.384674600032616 8.171772622086175 7.633083815486533 -0.5028684404691534 -0.4752761326731814 0.1527183855740596
Ni 2.6907151601864614 9.459688826525813 11.200500125346498 -0.5009231438173244 -1.5905461220473252 0.90349516395756
Ni 8.992725601147646 5.508849122207832 3.7671148496818767 0.09809169936811493 0.49410817777802 0.8506137425774963
Ni 6.827891241107836 6.4219970226466705 2.3934719906490494 -0.4149351696912789 0.02849296523337028 -1.6462614133317581
Ni 2.0091395928243867 7.089499802232081 7.585402118397576 -0.3280452525762544 -2.256532031936675 0.02208140528007165
Ni 3.2749826622337825 7.582438543896891 12.572166647141595 0.9775817586603293 2.4125815387664966 -0.0036831052785420444
Ni 4.851293223724658 3.639459483446221 10.80692215741866 -0.5318234329406066 2.8002077362301776 0.711880101318303
Ni 6.496524122440761 6.6204130853826495 4.626666011657199 0.6472248272317628 -0.3984415429116299 1.433863609619195
Ni 0.6269692390938003 2.7241228966225277 0.7232062451138371 1.340116560373021 0.3226528779160895 0.5869304012170795
Ni 3.348177923078791 7.448164962575796 5.218701953336893 -0.04941917386307618 -0.01959463430247593 1.3372266404197357
Ni 7.991406236855939 8.678067007478145 4.632446006425034 0.4229901787852715 0.5321165387009933 -0.20630557477189632
P 6.230025942797159 6.444628971221981 11.781944687635308 -1.4578435174735602 -1.4250118156555198 -0.8163242252670071
P 7.957979873301703 1.3768234394601806 0.9054372048727886 -0.1298129417307958 -0.9211303605408201 -1.2719812981576804
P 9.144210639656878 6.330388855491625 1.6475509062840492 -0.11817561460218359 0.3325346558061757 0.3269903289491788
P 8.977032254090279 8.370011727199548 11.937096474356105 0.4835283453796448 -1.3560504579944581 0.033876083922154555
P 4.413900548439747 0.90114272277893 5.631581341111427 -1.2409771364666822 2.166692288164707 0.2062227852501029
P 4.693903388755859 5.649111322020254 5.540687523938162 -0.029001272328356507 -0.3176024599763756 0.48812984870739806
P 1.2190983163643399 6.017956202443318 9.585364130100105 0.41770270513408714 -0.48821083845697855 0.5377760509796158
P 1.4676213269748752 2.3851093459470856 7.13694493492029 -1.9747157284209733 -0.6975158621768309 0.640946964642851
Ni 2.8031670725725957 2.3764291088803406 12.424035421258687 -1.9864540999038243 -1.7171567547907394 0.6140282858751361
Ni 5.618572161782211 3.158814639772937 7.764121866381675 0.44265191888025696 0.5822661629721908 2.056543143411426
Ni 8.296183144336794 8.39436668420549 2.2573627068324016 1.142285341620723 0.05555639710906561 -0.9477950143162
Ni 3.0341247107497824 7.309243915271542 9.829187518796607 0.08727018327257874 -0.38619666410600584 0.394442706164882
Ni 9.056635243585417 4.761240420936723 13.62342904066797 1.7304277608680325 1.6001432788174572 -1.3123442753557593
Ni 7.6657576434667405 6.934363848561728 13.190661478824417 1.3111564256952453 0.24769956433765083 0.7384251987966831
Ni 1.9354134591115626 -0.08068895048438897 7.44423557199805 0.39714313581518057 2.1554660804315846 -0.030304564520812323
Ni 5.109241556128698 6.5718242476388635 0.2013302753735154 0.22834044308474868 -1.0234055018626633 -0.1065809677860487
Ni 2.3223545848357907 1.6574316611167847 5.26541690299288 0.9429330582382083 -0.7366547371598215 -0.12090329794599176
Ni 0.7688072931033179 8.453936208109889 9.968622674562326 -0.3952978550763257 -1.658083859887983 0.27969462918700866
Ni 3.7852539373548297 1.584096696885509 1.3939128890243115 -0.7655590788989978 0.11883741655589856 0.7025719365434997
Ni 3.927127382888868 5.738987167185584 7.76323614691274 0.7424908842256245 0.07413698832473038 -0.9222819576467601
Ni 7.938598356846879 4.254601433858627 1.8174525765269525 -1.2698138581927163 -0.5532072979330214 0.8367840357832557
Ni 8.832327486594556 1.8488811816575645 2.7223142034483194 0.44926273932855526 1.022877140163019 1.0612930209370561
Ni 3.194411062593858 1.9474745181259774 10.17695022687602 0.6819015526783418 1.6699209617322273 -1.7443027190779121
Ni 1.3769445157282791 0.3624986212628923 1.8028396023233875 0.016501082978816743 1.6793548534516174 0.2599133327950233
Ni 4.7306081251078345 3.3147049917291334 5.770075827409612 -0.32175761979532974 0.4865720173019749 -0.8579565560958128
Ni 3.1109895138740797 8.060689802885461 1.5380914404317616 1.4157355325599166 1.598347106148983 -1.3847336848617635
Ni 0.8748067717557173 8.143897139746295 5.662060894571329 -0.5948895081631562 -0.4685516694651543 -0.8648429988030009
Ni 3.5333780454738775 9.146380698923563 3.4620315261071406 0.2536159298220858 1.3954436150801 1.5574971620121563
Ni 6.504235749362719 5.7367891672416444 7.39340402922672 -0.27802212658059217 0.3516880888061749 0.3792426013856759
Ni 6.805305860327947 1.8490395121620007 5.381351155120704 -0.04431887652203335 -0.15645291291582733 0.06923518014773881
Ni 9.038194396598126 6.178289122082816 7.990552183487891 -0.7584358375906551 0.48351420431225756 1.1097074076847016
Ni 5.566537307177165 8.602766882280042 5.251471710975672 0.014577383593542636 0.21121201093457817 -0.26261042001121226
P 5.449680081344067 4.502556317365008 1.355785040844226 0.5972626363810231 1.4333583878480025 1.0689574794608494
P 7.383100438811549 5.042481964611072 9.421392402926298 -0.37015478015179476 0.5342960628508153 -0.15120503425332668
P 5.465066080951645 8.299647788316225 3.072476084347896 0.9581156795159178 -0.8385110457766913 -1.114904635614925
P 5.926664696297146 2.4203145992864585 12.298694474455527 0.8218852642945523 -0.18867243507116538 -1.7793381134154904
P 1.1621459025626824 2.2458343833976198 10.604619546476723 -2.574573379222682 -2.0358637606852037 0.869165794548071
P 7.77766005586689 3.5549109940772188 3.849652541644537 0.10028047948931762 -1.2824171487790235 -0.3727554509994354
P 8.252390789521522 6.26773654353026 6.003021910451339 -0.13414885010198832 0.8441672156212043 -1.0416053127001415
P 2.229023409250115 2.5694060531109773 2.7680195632995463 -1.1933903878266543 -1.3052490590718748 -2.228053721991324
Ni 0.24503508273339392 1.1176643443751575 8.966501412833447 0.3871245752369139 3.17058183148163 -0.05888880391640826
Ni 4.916869993238554 0.5844882333976238 12.974672592807822 -0.9899590492787597 0.12924678481468063 -0.07425962994552371
Ni 0.5409855302698786 3.7451218112597617 8.70043165690773 -0.38950978763963884 0.23619567746310935 0.2885194265674902
Ni 3.5648951294157922 5.5877908490079715 11.559535965341775 1.0948209774911726 0.04082114778142002 0.3062880634048209
Ni 5.947350111023799 2.4715391742511543 0.748098594478954 0.665230519780564 -1.0449878560191295 1.864776128575337
Ni 7.438795522136799 7.62968622913251 10.060457161203125 1.9927869841003876 -2.008688485821992 -1.235902293046936
Ni 1.9307194253329794 5.231696230971575 2.410729084276701 -2.611408802883477 -1.2859858399668884 1.0061539138710671
Ni 6.781314132126301 4.39071909987845 13.116779808674883 -1.100280457943847 1.4114628733264918 -0.7735760356662033
Ni 0.8499907935750933 7.797926360434739 0.1313062813967761 -0.6068924461613032 -0.16269375161921656 1.3178572347541884
Ni 7.358344998764974 4.268078153853884 5.7405369434172435 -0.006061889923363754 -0.6340201556160308 0.873243049941238
Ni 2.6778345079726114 4.041795922337111 6.80598947556475 1.8139688161154826 -0.09092937729172082 -0.06770434532550922
Ni 5.610897789096591 4.591659137126326 3.751125331445624 0.1119023799989621 -0.6374407512618053 -1.0384716521671664
Ni 6.264327780905336 8.548850688739927 0.9464382860304396 -0.23662093792598604 0.838852231166194 0.3337111926127801
Ni 8.302423228923402 2.6279324583979133 12.49550394824943 -0.24223802700244734 0.09364523356098711 0.32661494788763107
Ni 3.1548377500438596 3.8497969018103464 3.9381881656576088 1.354470772212164 1.7386051544725025 1.7358741286945845
Ni 8.750107386996676 5.2061118841664795 11.237645393043167 -0.9876250018289443 -0.6529812700995659 -0.8857699787636552
Ni 5.695967837774324 0.738243917611655 7.411792720283137 -0.4491825209099232 0.9322766069656266 -0.5174869617132766
Ni 2.594245315189312 6.230333290246947 0.5946940314424082 0.5267771287659508 -1.8490126950934929 -1.0311895166834562
Ni 1.4310469804500825 7.778461021948156 3.153077487376891 -0.9178318922952063 -1.2676168505413976 1.2439513886036577
Ni 0.6730946404597378 4.563560129368419 6.27622119585623 -2.473071368621438 1.3103889514016014 -0.21921199842091924
Ni 9.071546251679685 1.3554953891566983 6.054275357449196 0.38871146010805957 -0.17883899392051136 0.827951010872658
Ni 7.890596273325417 2.717193608663667 10.053109694441371 -0.29057862308936405 0.9968799447683091 -0.2617357307157428
Ni 6.683167846493944 0.8923684187654319 2.957345592369063 0.20200154807990373 -1.1956542441601665 -0.7506531083214427
Ni 0.7803095385726632 3.2428881376286296 4.396446007359504 -0.840375866899572 -0.38112233490689196 -0.8608719299703949
P 7.745137107543849 2.876371646976688 7.867188505278368 0.579905118939182 -0.6608390755810877 -0.9819431209528184
P 0.5936574323163043 0.674718925164073 4.126395636281078 0.4230228317954199 -2.191135508808736 0.29207037714354217
P 1.9304679592376983 4.527730867570385 13.249467290883887 -0.12713899444305848 -1.5510385508710063 -1.2421822125183768
P 3.691950702446407 3.8621001133609583 8.899148547602138 0.28423828269363305 -0.20582734958389712 0.10883582525849644
P 1.7648635651563787 6.0268320242508375 5.040554057880582 -0.42296421064334255 0.0712367839587999 -0.877405923069676
P 9.197642528124598 8.751821081868222 7.841098432214986 -1.1871107254655295 -1.8680787105860086 -0.8550388682283856
P 4.471877453740698 8.901694874655838 9.704256368593166 0.7115288886264713 1.0113799381566968 0.3506994996406606
P 2.7113260664404377 0.31946345880118865 13.575610434260472 -0.14609033873458066 -0.4661032079246618 -0.6017787790838217
