# total energy = -381163.294674416 ev
CRYSTAL
PRIMVEC
9.27704086164792 0.00000000000000 0.00000000000000

0.00000000000000 9.27704086164792 0.00000000000000

0.00000000000000 0.00000000000000 13.57788703869363

PRIMCOORD
 96 1
Ni 0.7121112000199669 0.09753602139183287 10.302112728833452 -0.12133292928424266 0.14114944978953756 -0.01466402977007797
Ni 2.5193473522487104 4.669310780307211 10.918888421483686 0.11616346926816123 0.940361183745974 -0.22060605055496843
Ni 9.043936367056343 1.6252632907233402 3.2997524140944967 0.29811761177888657 0.5848866313141734 -0.3700326527516337
Ni 0.3262660950506147 3.56058383122153 1.3980741335024616 -0.392119457348344 -0.46697995410266024 -0.8197296514041301
Ni 0.6039854368227964 4.533624784998524 5.930562481031731 -0.05947758654034273 -0.5426714313987041 1.026078420709136
Ni 0.8797250581383343 7.1220211501750725 8.181423002278887 -0.7664517659165961 -0.2700293381831027 1.6098489361409953
Ni 6.224820003019747 2.895373637483705 8.006526667316727 -0.685197192710478 0.4195968368330064 -0.1975846499591307
Ni 8.314028092415827 5.959403872445322 4.681343101920459 0.5299311010139002 0.059882278177929134 -1.6521340700624512
Ni 8.618389239283555 3.3371834173675374 7.564294782087172 -0.013771342752479508 -0.6312495348494289 0.020177760499455574
Ni 0.40401511662063033 7.386741502707097 5.995899750029376 0.12830678949891453 1.7411621165664013 -1.6220331369120131
Ni 0.37560974611361064 4.423478482366222 9.675683347770926 0.09365628930458064 0.9700314571168971 -0.6355093385670475
Ni 0.4637898720952964 8.151280969778036 3.5220906068037583 0.3645109516024561 0.42498226951463586 -0.29550279986385886
Ni 0.9304129523792483 3.7532865178448076 3.640177128455936 -0.16257548087379745 0.03974822643221542 0.021095644328034638
Ni 7.711697679629886 7.524468446940159 12.448301329085915 1.3201108066750555 0.8611686352752072 -0.7892402245660214
Ni 6.991400419015061 0.13429072840766007 10.95379699742701 0.031131431297481867 0.5962815034146762 0.39124476805287456
Ni 4.144462210323005 3.993765963379595 9.182724604730081 -0.32861166660268565 -1.9136844242402653 -1.616778316270977
Ni 4.853404373285852 1.8912638748533823 13.18719627292208 -0.8181430236433007 2.414078177916681 -1.2716704517854809
Ni 7.03167205210921 3.1884167948617184 13.087412424601265 0.39527908602324824 -0.1325431961777653 1.7571404942725288
Ni 6.829265581054584 2.6409229688575135 10.927944668483573 0.8624786123358823 -0.534465498549144 -0.3505922846388349
Ni 6.39540622493525 2.6148637619094686 3.4550834705043516 -0.8348305116013105 -0.03702722795662655 -0.14138779105258875
Ni 6.505942163271296 0.3111983257643868 13.371122879170546 1.420759211026753 0.648792943049831 -0.1145405889527576
Ni 5.519449500674558 1.3184901133086215 1.729387866324679 0.08548532345801407 0.4458801960095676 0.46006908591543993
Ni 4.826677219417102 5.96994259052755 9.343704451140173 -0.6872923846766099 2.119924178771233 0.00777758706288983
Ni 8.09788232428393 8.62051368157302 8.794940598282572 -0.40675726186617683 -3.761165770290896 0.4051564930379603
P 0.5662492189151561 8.926952885527385 12.455376000221046 0.07512943414498674 -0.4658926345757524 0.37280944416582246
Ni 3.2197639149320074 8.120796614480323 4.219735189766131 -1.1170443076657472 0.6231667578412945 0.4409182240186019
P 5.336357828076975 1.8411771328411026 9.702893835453128 -0.6075642754173471 -0.2772106864228903 -1.4692556159652437
Ni 6.467832080628873 7.410333016864761 9.952550129515151 -0.12408220989460567 -0.5161528162828852 0.8287861051794435
P 7.810730087664908 1.6697838083964152 1.4115026497207939 0.03253139696880204 0.28141469720190887 -0.5567942439533314
P 3.2768362684899897 3.903945656625957 12.743620144514606 0.1286364049241914 0.32910943217471067 -0.15405638765919275
P 0.45080572612004416 1.9489299590075462 8.923781065358094 1.7986491550392767 0.597666556687661 -0.2461535600067696
Ni 3.0278033915539573 7.248012638092978 12.608425832355882 -1.104351542689427 1.0941278080788897 -1.0765964840633457
Ni 0.8615290707734731 1.1908009269672586 1.1075701021271827 0.9710159325173536 0.35366578135783605 -0.6119531485136622
Ni 3.3666101900408014 7.992560082745605 8.472112574465474 0.2728999748626784 -1.0770304862769708 -0.7219840225215243
Ni 4.542280263845988 0.6132661882043644 11.226712687594459 4.296433967246994 -1.2637686804399009 -0.520019241216827
Ni 5.684395281926333 9.240414809189716 8.29866809635179 0.9001293328091208 -0.3584133233451505 3.072582434717005
Ni 7.540276524063502 9.182099332195978 3.168074100310037 -0.9126619180584927 -0.033503531074084235 1.0363551200447958
Ni 5.9944432546606174 4.083326512997403 1.3231008024695963 -2.0979772421864964 -1.417502137542036 -1.2085406132045315
Ni 7.334261284228959 7.720863395708443 6.069410091765087 2.1978342609851502 1.826644611810938 3.469047570628555
Ni 8.389404047009226 5.816333352846622 6.9704528614185195 0.47531315655870404 -0.6713597726067535 2.1265959343644534
Ni 2.583173391338261 0.8982689345243958 5.516165428314427 -0.8631285872150555 -1.840256803277734 -0.469196759248321
Ni 5.364931113018226 5.583767222914071 2.877942078261428 -0.6126889982384223 0.6897809554264185 -0.7058444366471843
Ni 6.206275198929629 5.928297955429731 13.2376791445665 0.7395554557463843 -0.2632010024073596 -0.2852723803851023
Ni 0.6288033757431986 2.047025385945469 5.425859004635164 -0.21276881389873678 0.07457536141372964 0.8287711927811081
Ni 5.051626899045507 8.026412003768538 6.420873556695226 -1.4804430000406308 -0.9223894297589018 -0.3862144047178187
Ni 1.1149425662644596 7.627861064040893 0.5520358650649961 1.4571439203033743 -0.821121132435018 -0.018770338628967674
Ni 7.075747271835147 5.068576052158386 9.292135238045553 0.31944182717795955 -1.1398132259311466 -0.09480737218988833
Ni 2.4071044384486413 6.071015947486948 6.656233003542001 1.0171412661205064 -0.22106319269704508 -0.3532364071299013
Ni 7.630467912439753 4.539042576688684 2.6471719833823273 -0.8675372578057124 -0.8514547504215528 1.0531557365419024
Ni 6.211609497254702 7.092807749434811 4.567220659701852 -1.861844813861155 0.45361201743618657 -3.852987320379584
Ni 4.289954037509259 0.9224328420849413 6.969338688846623 0.5350098010883882 -0.6895336153023028 -0.05611149828158724
Ni 5.2616962056071035 7.896848855232975 12.352862846565905 0.6893904048562192 -0.7164054999924824 -0.5089802097938461
Ni 6.162237087365952 4.926999136090707 4.959268393993192 0.13630831964715237 -2.443070194273657 0.6563825824716307
Ni 8.10248373640434 3.525544449006235 4.711757879413932 0.6387923801936934 -0.37037460947208467 1.2925043578116968
Ni 4.1564667008145575 6.040550146270365 4.82968112515216 -1.1744007340980291 0.6419689781494621 0.03932142330744196
Ni 6.255842426670251 5.7355024984008 7.2202993348121325 -1.582209834267488 0.8257959122028681 0.19608415415420422
P 4.021012631520004 7.865288363229682 10.576603660488896 -0.5227656936137126 -1.248630539246882 -0.4846712007348362
Ni 0.36451626100557505 0.18496377938366942 7.5139891019175495 2.1950608120050714 1.1940779008119822 -1.2290629015275993
P 6.11928438954842 8.045847403752928 1.2045328024120772 -0.33837105998229466 -0.6493369884787591 0.6354507174149701
Ni 4.15423093403831 5.721985850297097 0.0955062049161361 0.42901941569848695 -1.3840114619837582 0.9294368235239865
P 8.509736540182274 6.531787998286338 9.849494268986941 1.007524826076665 0.31845015268865157 0.11835456338220907
P 8.61009556501814 0.1282151945414178 5.354765331966725 1.7255069265276475 -0.13172892780658602 -2.1906590833929496
P 4.161643289450018 3.3173305505577058 3.0105842765606265 2.5827155487138427 0.317677279078369 1.439143884181528
Ni 4.360617255495467 4.611069519637996 6.722724336385975 0.16137066193241886 -0.8572474458439301 0.9499768524588672
Ni 2.868173354546123 4.983941611080774 2.935403139819098 0.6595635513027738 0.22671422033523536 -1.4634495508064278
Ni 4.314399039398934 2.3552457816883816 5.0253793681739864 0.5716230814360478 1.4106702022218673 -0.5437317543424185
Ni 8.26226220606122 5.738832955963757 0.2844785935280897 2.6200235411356814 -1.4089097678873348 0.8967298202092685
Ni 3.682242941195421 2.7268098104114467 10.965012011766452 1.5500049674001695 -0.8760828333828783 1.0967804152103886
Ni 2.6419156121980047 4.2426411306260166 5.174193303586688 1.664342182092869 -2.1661731824364434 -0.5676728385390482
Ni 7.765365359300388 6.891245489071633 2.318776807521967 -1.4308016828644197 0.6519322600097611 0.8414457029249831
Ni 2.7312349587611147 1.7612739824518147 3.182466501043108 -1.0920801815212415 -1.2316607441617626 -0.2662385036821028
Ni 1.6189920113011693 6.154342325844846 4.389486478030753 -0.8707439376684682 0.7416668456624324 -0.9963078743149228
Ni 1.9819469463795973 6.700908447792518 10.131139654326374 0.7499486260552504 1.2294331403828247 0.3127561876276678
Ni 0.9552383129321026 6.132671159084208 12.167659719535651 -1.8241506417444908 0.519669314076576 -0.21860753206770092
Ni 3.396343105052721 3.18711800918257 1.1177108351691576 -0.8148579251341257 -0.756462001693736 -0.4235643061211867
Ni 7.3229804029015035 0.6922880197399448 6.83448391637259 0.5411200277511843 1.6204645068733126 2.6254220864434337
Ni 8.624187389636894 1.4243411461591702 12.533950678401377 0.2286931984384771 0.1064009905647587 0.025599188625343012
Ni 1.4939931667237554 2.604213719340456 10.707195632823154 -1.432346144533404 -1.8905085003444342 -0.32032011601785476
Ni 2.7099905358664818 0.5780913611968148 12.107999071659938 -4.208026842156495 0.017521810933847245 1.437414817305563
Ni 0.8096407274834041 3.8492575024932676 12.58063181882212 -0.2163771000752854 -0.6042200415354626 0.3386785639203845
Ni 3.0174131061207747 0.7003080213086826 9.489286265619912 -0.42033191522681806 1.3301836175300252 -0.4356891144091787
Ni 3.4684349872859914 7.211693024279665 1.984068605556891 0.30947828820734447 -0.34637824655748733 -0.4473596087685715
Ni 5.701650577377868 4.541760749574328 11.302123894942007 -1.9600100467796822 0.6930953645116322 0.22183889452080502
Ni 2.9948791745875596 2.6081935697429874 7.030031871337258 -2.063203071930105 2.3095188685463515 1.1891681222151909
Ni 7.961370672364927 4.722134249286267 11.642331526554218 1.2326819863374254 1.2538822745641245 -0.6455713507887397
Ni 5.223261426544894 8.898194059774825 3.3637445122101672 -1.1226786231333892 -0.9889604328109163 -1.4538809332813865
Ni 5.999647674417774 0.7481422978716974 5.138211374049955 -0.5189584040524804 -0.8149342868980158 -1.4738514628660422
Ni 4.0489736317839435 9.173703610484344 0.4279461704629858 -0.5786902726954744 -0.7230703136071676 1.2318147532411237
P 2.3515164113811142 8.124869235288509 6.587610734480168 0.6378629264008886 3.022871440645123 -0.7219711670057178
Ni 7.8041619429446465 1.4066498298010637 9.193152926029583 -1.4574018019504513 1.8682422327470665 -0.04485520864147759
P 2.2288182728639048 4.578479276131951 8.077851338295243 0.038475016146746636 -1.1258472506693578 1.2424300668631247
Ni 2.059827701925641 5.2653513595898485 0.6060532891648112 -2.0050478037456116 0.2734378496440194 0.6535425419196744
P 0.09355895410147089 5.508112957103711 2.4897090630505567 3.300205282909439 0.9820549639403344 -0.035249567230913485
P 6.463611027171642 2.7459761762194423 5.839658615940062 -0.21712143444047766 0.2903639359753967 0.13253985374365562
P 2.24266889442796 8.990361457791495 1.9840546899960432 0.3574594440723134 0.1463443637269157 0.934173052657391
Ni 8.605466321776035 8.711326631667148 1.1586012468690141 -1.900738148492243 1.1293678622281067 -0.9931060795481736
