# total energy = -381169.5682173328 ev
CRYSTAL
PRIMVEC
9.25431639658551 0.00000000000000 0.00000000000000

0.00000000000000 9.25431639658551 0.00000000000000

0.00000000000000 0.00000000000000 13.54462748703885

PRIMCOORD
 96 1
Ni 4.49150828872353 3.9413762133386285 1.9478660377141834 0.732650501096435 0.32765264512352604 -0.25542624355794724
Ni 2.34207306641886 5.083284786596607 0.4947496206336831 1.3473657857362666 0.1257814519738995 -0.15374194174256747
Ni 3.5790234661109626 7.869574280538777 11.406539656231514 -0.5550073272562377 -1.1065066413592168 -0.4286520050567392
Ni 8.357110161765897 5.262226242870241 1.9629413186549027 2.229886404324689 0.2470313346260326 -1.579438442169938
Ni 8.417966544495284 5.764902185250841 10.16778929205631 -0.2969621580182047 0.6491094458489852 0.02954146110254267
Ni 0.8857694628705979 7.762992321917374 10.980019331970848 2.8148439980861135 1.763309084977086 -1.2238782720028665
Ni 3.4505735585252135 3.084417287376961 10.889974836235304 -1.8269791123322212 1.7868825014216516 1.3141823570057625
Ni 5.29915096414309 3.578958685898203 4.753635867064711 -1.2304770082663068 0.3166346967464676 -0.7371069942058919
Ni 6.674897596830226 9.038135284189186 4.408274969643831 -1.0958249932756547 0.13193050229443085 0.17504533120603402
Ni 6.103351033970294 7.840339895952077 -0.01859654821999731 0.11829877044360917 0.13302887756493217 -0.2882304345721617
Ni 4.611074052845135 4.802110900272557 9.80150160961932 -0.6261536083837604 -0.6026593819165621 -0.11576057740278774
Ni 8.768501530052417 2.878943706820305 2.5007447941200827 0.9690611227838277 -0.49563567016614 1.1675955382507375
Ni 2.674173454287894 5.777700904428873 10.55160279833955 -0.6428300405981768 0.17403360211206803 0.46960119377559123
Ni 6.530900438182225 4.765584114592373 3.0466337655692453 -0.6308558989554361 -0.2682210813297703 1.4867861686498396
Ni 8.216102147220935 6.789900983110349 7.30755688697575 -0.06863971265558501 -0.7056680589703201 -0.9464130463670088
Ni 1.1832198403662482 8.099395966776852 6.5726522107372585 -0.7157197867793673 0.5281482980818646 0.9830759490056811
Ni 8.791017281144356 0.9164095780741754 4.288161350008604 0.2805837166601813 0.03718483658041338 -0.6438471690087815
Ni 6.5355368505525755 0.7743586021037884 8.283717882435958 -0.38242871242314136 -0.7265076214234908 -1.6132643895804473
Ni 4.521029557109593 7.422692609976224 8.924243341273694 -0.07171423781585069 0.7966084920056344 1.9753831868016432
Ni -0.0020433529967531254 6.935897074037782 5.060475673684028 -0.10697563212130609 -0.2627770274960636 0.04764562690242117
Ni 7.7892560710332495 2.8102766812953583 12.06533683679384 -0.15544606891786775 -0.22801622697611054 0.5780361840512432
Ni 1.8998185539105488 8.647945554107203 8.79249426999527 0.8879505313547418 0.3764133594669969 0.6106300588268645
Ni 5.64439248088617 8.978944678359328 11.052091020392105 0.08909746628930462 -0.049081073797367085 -0.6297091869455026
Ni 7.569142162392972 -0.015165973238582528 2.0839489052262095 0.42133721656288087 0.6191039006258305 -0.548981432777132
P 0.8644447422618197 0.8985487479848026 2.2376399599978467 -0.16184554468630835 1.3072997709533163 1.2161775609244991
Ni 2.0196897104637337 2.5334800864906213 13.42230553666525 1.7221274685324535 -0.7374160408058784 -2.38132489474506
P 4.897513645034912 0.5675107556050226 6.0992134292381905 1.7676956440805556 -1.037972858153877 -0.701032874191154
Ni 1.0710945463958639 4.355469841928825 9.351345762017585 0.12743210020344503 -1.616348942043042 0.6417774309639465
P 6.990367978652316 7.716498637788353 9.584191758759914 -0.8232721173397498 0.32792338228640944 -0.8487340090562802
P 4.584060704124472 6.339687758748742 13.015641273046946 -1.0160282355619856 -0.06927297536420972 -0.004846529459023911
P 0.9613661202975767 1.067115190469216 6.390639246947219 0.4431481417903852 0.5523796598254035 -0.5906795838468666
Ni 4.039379420927467 1.2607617550392303 3.2959635501640037 -1.6116353386174567 1.5769007633497487 2.020220397720992
Ni 3.08845216920026 0.6771540419951119 1.2312747276227698 -2.2449067889929206 0.1887868491618426 0.5936834036701969
Ni 6.97288657552339 4.607233511660114 6.144181076640923 -0.557886962796878 0.05697744582630832 -0.30958267499569264
Ni 8.641791433895062 4.72362504535651 4.474887536992694 0.4278148538674245 -1.0014333684669463 -0.513021212632439
Ni 0.1956612291868311 3.8900240132526545 0.15666076481084967 -0.9399554636671231 0.6563738407208826 -0.2030343602197923
Ni 7.113940861648893 5.155903405099877 12.321655480913725 1.4067497841215386 -0.0026466935942277 -0.25918493926943104
Ni 3.6223891913953157 2.369761980215442 6.368399274475311 -0.23071228575103492 0.3227336105553538 -0.8538021676078069
Ni 3.030807034160517 5.040631643652607 7.995311748073129 -0.9599151946185017 1.7833536623327866 3.062777275701125
Ni 7.474220642068259 0.8164426046071166 10.27327461421886 1.08497082416997 0.7139801783804414 1.0472509410216932
Ni 2.8970266404962812 0.1643214876854522 5.582540333743511 -1.2301023985357074 -0.21190158080243504 -0.7180381504998988
Ni 9.04702868196944 0.6148669419953537 12.129389660307096 1.7469609826363652 -0.9068273136545866 -3.580428530906408
Ni 1.4460979437438266 2.415885491700123 4.290016840388355 0.667644014318063 0.1740243461406874 0.7326409880147382
Ni 6.000498564740609 7.72457765575106 6.745630185710587 -1.0897618178007102 1.1897142245266477 0.2718720478187963
Ni 4.317295787981331 0.286353527049968 12.877391970133923 -0.16537695487833454 0.062461865979647264 0.431286871576425
Ni 6.970008483213652 6.6450986989609095 5.023607403739441 -0.39955097392572475 -0.13880820325087062 -1.6826337813132053
Ni 3.8774288890290087 0.5630492498091229 7.969252519343251 0.2983888631624022 -0.3362470716607564 1.1619946471241924
Ni 5.781078729808469 6.49913962529791 10.927601960100787 -0.41013260609631297 -0.17047725221937737 0.48188181091515725
Ni 0.7094340220131126 1.520104709663368 9.011213553197997 0.7417486067429612 -0.6185793955809282 -1.1597691002277832
Ni 2.371002058573979 3.0320933840995963 1.9915473351778357 -1.7431056134460172 -0.17193121105708453 1.0294617353590723
Ni 0.20226788545667737 8.19624238485213 0.5224514904728171 -0.4755790086255809 0.9822688797233534 0.49271618252649985
Ni 5.188182459686265 9.23038444702682 1.8421910020714118 1.098088849609167 -0.9886166763182522 -0.32245747407583175
Ni 8.495712054122652 2.2008707112356207 7.108829702862178 -1.2449474339683397 0.22447478948175534 0.787979869796359
Ni 7.1809791275387465 3.3810921531827205 0.9260248125108896 -0.9371488474562636 -1.0307493438222441 -1.1891053872980553
Ni 2.3749166342878674 7.881873266646951 0.05365930109181906 0.9123415586045964 -0.8228401720086539 -0.7956034477798879
Ni 6.229422582316162 5.4679774529101515 0.8493416983727747 -0.4642671831571875 2.0870338558011152 0.8774899981430502
P 7.419305530280519 2.7123660168676045 4.419164523408684 0.11075875331282216 0.6529707285766044 -0.033562666446793815
Ni 8.464580534733715 2.982194111642654 9.928279262284265 1.0240217952904236 -0.9754549421253137 -1.2547765042436196
P 4.747630741341915 2.058816958970401 0.709077730842936 0.5368214003758304 0.14953947362544567 -0.10996479665661707
Ni 2.287454092746591 6.938414248019289 4.682851454014143 0.5205740852790325 -0.8650628281232909 0.5117757702611122
P 0.9189915322684423 5.659079080550334 6.806717000911073 0.07338931152542845 -0.46617597014412615 -0.6404134607368842
P 3.3061784642845478 3.6789515714503658 3.813733282117539 0.7507965758778424 -0.133060502133816 1.605181355461997
P 6.11368810506347 7.250497550145673 2.8281319587950664 -0.20734918554506224 0.2917911553402265 0.514872406908565
Ni 6.738123084483385 4.090074564569739 10.100025487783554 -2.484410704893657 0.7401465523631641 0.6314626793014996
Ni 6.329942963886509 2.2279951117495855 6.28313555844141 0.024329577884300034 -1.3725109175433265 0.3419973438809723
Ni 8.03589284964044 7.843412328900094 11.485640923168777 -2.225436081862819 -0.3398946957156727 1.3910696543821204
Ni 9.327055033096038 1.4623577771464318 0.47147779191567996 -1.3257569492172392 1.471891253815878 1.3948754012814557
Ni 8.778468428501252 8.496322838985812 8.687672482297701 -0.12646793651796281 1.0458910845596892 0.9845437918004591
Ni 0.5012285673412322 6.065815527834285 12.304224051091785 -1.2796768670297252 0.17978233167038715 1.3084269425792239
Ni 0.9858160234561897 6.503387356391704 8.792873696955718 0.6315197577916802 0.8324748668849405 -0.5269303665143635
Ni 5.19499363634211 3.7590291687370723 7.71435626360924 -0.15323517730947803 0.14580366073209727 -0.013630446299241043
Ni 1.4524464045942462 6.621167037504372 1.9971554507395766 -0.2968665129806049 -1.0113362294029549 0.4863203063024851
Ni 5.254933841776756 2.161891531786689 11.886899740748119 1.8098285686948636 -0.9321405956083947 1.0221747147793558
Ni 4.121752088609077 8.207403090078962 3.913096874174325 0.558528967256251 1.2673345434142882 -0.20035424228446785
Ni 1.5801004409946657 8.552200399648834 3.230949203207076 0.6881668168617633 0.054678622489802604 0.7075277378868782
Ni 4.477145590123164 6.013482370240812 3.852254372919101 0.18527420802289382 -2.1629356493357523 0.6903903068756432
Ni 1.0198626524193 2.4469892481407354 11.130391788985982 0.9898325510032243 0.28848523089544514 0.8923342622447341
Ni 3.083806502513801 0.8375230112706308 10.425963426555947 -0.10953002311204361 -0.45059765608989494 0.09923095517888071
Ni 8.245512363813695 9.284855351641355 6.422320472713 -0.8115412020560668 -1.4616405226221474 -0.06299485566498182
Ni 8.56235238441984 7.300887301356366 2.9053360909300885 -0.6211417569914658 0.746214870044431 0.553412214854976
Ni 5.105060192399868 2.055864832131795 9.716780196509376 0.7209920909219002 -0.19791246561219464 -1.8775524544043987
Ni 1.124704799612308 3.3568365906623856 7.121358196009843 0.9696589042688267 0.9647208435372611 -0.39231948917429205
Ni 3.354051041513732 7.38079832095312 7.057496011408421 -1.0671561645860523 1.1665940935694166 -0.9344795281542164
Ni 5.012581811527794 4.0797652564248885 13.008584857014228 -0.9670821446805861 0.6055287330445571 0.12347131578348412
Ni 6.164253688280223 5.88523605760945 8.37448051310152 0.7072603431581046 0.2672060098016946 0.11131256893376312
Ni 7.167282739698191 0.7569262468502382 13.153769344418947 -2.470711353029693 0.04070159148442022 0.9149057197873468
Ni 2.96897894823974 4.692104844691015 5.9146000026216665 -0.977241087491459 -0.9780448143396768 -4.14073130223363
Ni 3.846038248789033 7.0911567353898075 1.697845881137732 0.9127755608182216 -0.40301682098713815 -0.3308315570721399
P 1.08472615402366 4.613230308498412 3.0382086361840814 -0.6350874205382804 0.4780418683437767 -0.6501617983728996
Ni 6.097224676706477 2.036338225142895 2.76604290116003 1.3335864725639872 0.38111976380373075 -0.4528532848932911
P 1.9439523874319058 0.2900469246088638 12.269346384542134 0.5454849895880993 0.32334347622521087 -0.2947206702821956
Ni 2.9597431407634733 2.8822660063032504 8.599578796397827 0.14537840026922058 -1.5330724533108886 0.5208178258587225
P 4.564256467652318 5.781883855309908 6.648880937954447 3.4510722170970562 -0.12550737237690643 -0.21531112070461625
P 8.03308879185957 6.7909374665144995 0.14003353505873764 -0.7836581024925536 -1.7205891775110562 -0.2512394591701092
P 1.7103827031698944 4.430975807057941 12.070835751425498 1.064349805485509 -2.0163058931579343 -0.9530207814915135
Ni 8.00678802547926 4.466169971218503 8.121127877294404 1.563904608200397 -0.8613982347875101 0.12073977578493401
