# total energy = -340893.7785488305 ev
CRYSTAL
PRIMVEC
9.06119732804147 0.00000000000000 0.00000000000000
0.00000000000000 9.06119732804147 0.00000000000000
0.00000000000000 0.00000000000000 13.26197820945387
PRIMCOORD
 96 1
Ni 6.657379319415256 1.7757952891269968 11.305159998782713 -0.5562064897706616 0.6536636408785711 1.0380134815838253
Ni 4.463092641314343 0.2682168714617589 5.8577893836213395 -0.04750241645633755 -0.441532203453517 0.708063041565058
Ni 2.558510557524874 1.4270207507921466 4.602158457989417 0.108696985687787 0.7924749294532353 0.7529318770532905
Ni 3.362809597461905 4.282176779622165 4.556364979985814 -0.2238898635125628 -0.1543939735042696 1.1622175617682757
Ni 5.070555296219863 4.576937521926409 2.7907182316328956 0.6581391601514213 0.7046663571786832 -0.9714584193714108
Ni 7.334459151791527 6.252878418794175 2.56417652408383 -1.1516901798743906 -0.26356455639436543 -0.6241018680610542
Ni 5.019857898335071 4.578106416354852 11.460722630933935 0.35882752806443363 0.05170822700756901 0.1306914876810072
Ni 5.646738698668134 7.918861060027377 12.278350691834065 0.6925155807487623 0.3246269709233248 -0.2281823202403296
Ni 1.8955299478668763 6.589655932142525 0.4225000625796779 0.4556215916670476 0.17805300768410623 -0.3621110839117119
Ni 2.9756971341135525 1.6550004703241108 0.3926062671620348 -0.9518126201160254 -0.0898885947320323 0.9529449339482555
Ni 0.5669545731818451 -0.24119638165077648 4.756899239561881 0.0031961383397944958 0.9695357484274014 0.31797861236887176
Ni 8.230484690171407 2.506173082961415 1.3773228029496603 1.850991930307051 -0.487541837414412 0.002022686856983613
Ni 6.786202358866207 0.7308072945778924 4.9788115815024865 0.17434136316047394 0.9007520539947842 -1.914027409401981
Ni 0.864372964601301 7.567495019316289 2.5057707658092996 0.48101920580454577 -0.8842296308597288 -0.13526856552872832
Ni 7.590211440495408 4.01923896160235 3.7647307752630046 0.448158450520783 -0.7346477340321219 -0.32694482042322404
Ni 7.566099594959853 4.084352724104604 12.676633798991599 0.6509423852926661 -1.11111148712108 0.6373805874478312
Ni 7.9841016792893065 9.192675089919428 6.893085521731199 -0.09439599568408259 -1.6910217482665846 -0.16639665439210052
Ni 6.950065047579087 0.6571696639451255 0.40766778901442075 -0.5290556403874823 0.36448524057084325 -0.5189339785724482
Ni 1.8303618181819048 6.38820739777708 9.200709653405475 0.30762400860742506 0.14555966304209125 -0.48298352861976823
Ni 0.08124903621332517 4.80027790853308 1.4711379073286024 -0.4812858292023711 -0.03712492987675541 -0.6073773562175216
Ni 6.106857227210011 2.057924722646362 6.913681622784305 1.1790024945360984 0.12117532066045583 0.6082196496131589
Ni 3.4596375498831518 4.540747100630278 0.5723468915877858 0.030120473534464256 -0.03694263866262024 -0.05948478562919432
Ni 6.0359986657338585 5.652746272358503 4.699488400731095 -0.03564680266933216 0.426880000757981 1.2590134251431027
Ni 5.43828585892915 2.8597047497841137 9.244659177795215 -0.5534407541000662 -0.012779411152855412 0.1305179382176204
P 0.286456155144028 5.568114691260389 12.594715140311127 -0.9166224453681374 -0.4028239882500418 0.8750219962185316
P 4.058881699001092 6.280877517894086 12.533099906016794 -0.25787907597381393 0.5188144222754484 0.17995202447903202
P 2.432514611575273 8.600308389415348 1.351846341127877 1.0172849907872221 -0.4421268996147224 -0.7968856569264212
P 6.3945683581551185 7.853738236328004 5.712649846516922 -0.4218840902052863 -1.1073121679796478 1.574714040111075
P 4.893943503159547 1.0522949439064404 12.448156619737762 1.1435240991238307 -0.012137663803798451 2.628061066728177
P 4.213782863762575 6.101139611827471 8.059489933205603 -0.953757659657538 -0.5037305313591324 1.4691609993689085
P 4.6621671420344235 1.0242324164266912 3.7967322051306924 0.30260007303027237 0.36528922452937734 0.13903780276317343
P 0.07342469250045351 5.809514043726647 3.500432871555521 1.2356413260760655 -1.57952663100837 0.5551541372467471
Ni 1.2448272603060895 0.8931304859001323 2.4741807142908465 -0.10244431990985582 2.1165994852733743 0.40415376280505877
Ni 1.6339875542034976 6.60715310378069 4.840648260060535 1.6365554988979039 -0.10219158046910143 0.5524704197669968
Ni 5.986932283330616 5.441520706300888 9.256303722213758 -0.10055713018947199 0.7324440415125837 0.19990172812808152
Ni 8.782764654617878 2.408294031674281 10.391515868723264 0.6030741008564776 0.0989339927637522 -0.8412392433411319
Ni 2.488857135265645 5.105640251467388 7.027150463715905 -0.6406268622992709 -0.046928289120422406 -0.4052459674279731
Ni 0.32212283924663987 9.028712728038231 9.024643344411768 0.7783891407841304 1.1938213047164858 0.6066157954611489
Ni 1.6130833724483213 1.0496218907561252 11.63705443300325 -0.4064921811302483 0.4148472379631629 -0.9481038038058702
Ni 4.042064117146906 6.82769358047737 1.728274746952377 0.10384479980180825 0.5245937479613869 -0.3320759710022023
Ni 5.598895577876052 7.856900594122784 7.98148299332171 0.3007275385979079 0.04020613990524043 -0.2796241809603894
Ni 5.396151292322488 2.919553956759814 4.748451485487173 -0.1828396304394722 0.2175109565694125 -0.12256500191913086
Ni 0.5381481214185674 7.4762397031236665 7.2215584479193335 0.9413767694946819 -0.2491190703929968 -0.7887445158765255
Ni 5.160215841719416 4.4661553259408056 6.9294761954836765 -0.8362461610019146 0.06350547675281322 0.4591098073259641
Ni 8.34123970256565 6.946096243240653 9.348673565652108 -0.41130271514501415 -0.08734063149919796 0.2866934291023449
Ni 4.569860726975914 0.529965860419467 10.497478413960893 0.30467186795763657 -1.523471439886015 -1.9061595766181303
Ni 8.2407782100994 6.90145172503183 5.096260100209062 -0.4570030453956065 0.9586705235781231 -0.24695368731056178
Ni 7.247806923735716 6.142748629001191 7.184172854723112 -0.6590786412465552 -0.43673426784424135 -0.7705817289245696
Ni 2.0773428680739054 5.266231848020051 2.681041501695897 1.3260680526997548 0.9257496044803862 0.030061595272070807
Ni 2.518750024563576 5.223055243744622 11.411785823649506 -0.16390294143596934 -0.2764504112180981 0.6649502695359838
Ni 1.0366643788749366 3.3130908088660433 3.7050655105888346 -0.7170806716826361 -0.6138889320837944 0.22068318364980705
Ni 3.8162137789380743 2.7452437077679064 2.5966418872440475 -0.4564487155540332 -1.2739669611291415 0.004404299715282737
Ni 1.2159039190999676 3.3565030042665853 8.227824322697058 -0.9440291195158645 0.09026449001421229 0.10313209000549982
Ni 3.615698547875959 2.526325185355655 6.890513047868913 0.7333619253411628 0.17101204167692483 0.6232456907083459
Ni 4.065478250504243 6.750564670594379 6.029597836088494 0.21244305512820186 1.1007136888265239 -0.8566440079319763
Ni 0.9061831403510779 7.127809490279366 11.354202822073445 -0.42280814468145245 1.8240138590563102 -0.16959999182074662
P 0.10119454331323612 5.467444791260385 7.908436152741148 1.9619771978083822 -0.14102989349253775 0.6472885905901626
P 8.265216258731265 1.8642869401981081 7.969148891802357 1.5059866528376902 -0.06908862726754553 1.466112699460888
P 1.828594884743561 3.2808963754997054 10.460889299991495 0.3522889556149675 -0.8095928200804444 -0.2645644584137895
P 4.032459248200011 6.201501431125406 3.8344485320217836 -0.9768235403380662 0.5387846947497882 -0.11993193517165796
P 6.943033558614189 3.817645448082989 10.56596384791139 -0.08849994191462177 1.0333538713246269 -0.36185474492653164
P 6.505486472097517 7.81953221720109 10.11395599691137 -0.6376700936637921 -1.0575109281868045 0.9458494605540548
P 2.366059791899302 8.3800578710265 6.097499728944483 -0.543996835078347 0.11402559698955202 -1.0861417045496198
P 6.749694795670886 4.034470833960587 1.5700988655518293 -0.09131298588338467 0.40393830436014305 -0.2043476797145771
Ni 5.154190145634807 2.903107883987536 0.2491992309469065 1.3229418483659474 0.1794483453697361 0.6218930333351935
Ni 1.6074020018542614 1.1259262317012233 7.115249764951732 -0.9057950157353304 -0.2508666492117228 -0.8827131942152024
Ni 6.835912086264949 0.6509110950945403 9.125991021956327 -0.051877148485265485 0.4082467019275098 -0.03948854501292554
Ni 2.727402210639193 1.4117254500540721 9.223878228320869 -0.5468250485557615 1.4999052225303007 0.6989477095273511
Ni 6.372676505913892 1.8573007572188096 2.567161282415063 -0.2301528137031391 0.3168596682730801 0.9330535943409671
Ni 4.1400247192081165 6.961074402079538 10.175743393950976 0.3293225766267812 0.2641345699652225 0.3827588420690505
Ni 7.97926300002738 7.453287690819435 -0.073787140385242 0.06277811166848542 -1.2167419180684014 0.9026163608970327
Ni 7.6835327096313275 3.9142649929704825 8.415932056543152 0.13349064769269914 -0.3145117368661938 -0.388980140388414
Ni 3.3899841276239226 8.58576516803821 12.48409695199339 -1.60403618611396 -1.4449916012115567 0.19394165388990472
Ni 0.25490416065347743 4.929001274815715 10.486710087303827 -0.9306061612417393 -1.0001822696686646 -0.4612996158884314
Ni 8.688038899928403 2.295699596264735 5.866568777510628 0.2957815074465422 0.7279790637626947 -0.5976881539542158
Ni 3.714683065211697 2.57089721398752 11.537403917679214 -1.0700435134361765 1.3181565111621623 -1.1951472226167608
Ni 1.2115454832853858 3.326410768632021 12.832939449306638 0.07569584817141801 0.9036368317417469 -0.23788952022576454
Ni 3.166761536579808 8.40809321491489 8.184457433282116 0.016103076209449688 -1.073337867916732 -0.6032875024188642
Ni 5.644573072556523 7.916178945679943 3.649590143462819 -0.7147018870378142 0.15674550445558166 -0.3740888250988783
Ni 3.056287421296274 8.447282892457645 3.558785168767045 0.33624758588138864 -1.2911797254630022 0.22381530152088552
Ni 3.4369120675069134 4.315177659532157 9.329297101731315 0.4531803292154067 -0.10190464535630192 -0.5831074279265636
Ni 7.138537947669104 6.079501473105599 11.571871805402889 0.2544294268623167 -0.16466990150898092 -2.407511066222125
Ni 0.437779959282649 -0.05931912694419723 0.29285517254996885 1.106166741521295 0.9656366704833111 0.13580566897912097
Ni 4.596056647849003 0.34294456410802704 1.7286852191819 0.12796097612372156 -0.6377680526942372 -1.0644667906793475
Ni 5.938264593600641 5.859667769784255 0.3731002281224299 -0.04222265611463696 -0.6790412004114111 0.7568494669401417
Ni 8.146804534770862 8.97739010755218 11.250162156744908 0.5024236396222509 -0.3986531447018038 0.14584119883825206
Ni 0.16178223785419307 4.753948007659991 5.675503468924661 -0.1900963120018855 -0.4549603039339649 0.7827936976097293
Ni 7.993470957111089 8.681687000747486 2.696054093083836 -1.0311542925701467 1.2823821817760301 0.061916534999138524
P 8.592280168767283 1.5558890962286964 3.716947458371913 -0.998807500808325 0.1098364986088689 -0.3421593233801333
P 1.941769236768769 3.29743306024318 1.6972945140000804 -0.3880897673636607 -0.493884234692672 -0.6772031187614078
P 4.76183124915414 0.9499487224392889 8.23842048660885 -0.541487438392932 0.49175047617912077 -0.4981149849445679
P 8.715838652691682 1.8425219447165588 12.562514364106805 -1.0057404804827326 -1.7353843335423598 -9.333104475467797e-05
P 6.347567928695169 7.861023438812253 1.3820708702403894 -0.512413403845111 -0.12699604110729096 0.353043831503121
P 1.8867134030693962 3.186732415031654 5.881700070580836 -0.9816944952771223 0.008623222892636763 -0.09708177004636183
P 6.99219961418575 4.006063980990288 6.05284614953854 0.7953995592991979 0.1617766391215859 -1.2357449415334654
P 2.3034650421963287 8.455392663879788 10.253471248963582 0.08904295890228535 0.18903238951374543 0.05555176912337529
