# total energy = -340891.8400044017 ev
CRYSTAL
PRIMVEC
9.06142167243831 0.00000000000000 0.00000000000000

0.00000000000000 9.06142167243831 0.00000000000000

0.00000000000000 0.00000000000000 13.26230656015556

PRIMCOORD
 96 1
Ni 6.326023001141761 1.9468464073088525 11.555659308998276 0.17914726918954954 0.15563093123516422 -0.8048869299643429
Ni 4.32228898971336 0.690575462528328 5.977374841717715 -0.26043243852328696 -1.1335011676701898 1.2750949040859976
Ni 2.663622970077969 1.795049474494154 4.6315426192059395 -0.15255280653047276 -0.6687066512546226 0.6290769526781423
Ni 3.412775991833889 4.357184523874618 4.996295643045671 0.5352440285863815 0.5581206760742389 -0.6924096512985172
Ni 5.0908334534596955 4.47005358996463 2.893755891681055 -0.3064330736231174 0.12181192580319022 0.10881268533004484
Ni 7.241371554461337 5.870170070201632 2.8139030209350997 0.07165047445745079 1.1841567850435282 -0.8714877578130281
Ni 5.254219944361189 4.381731914693327 11.286580397827521 0.15285953913761416 0.6484139624438574 0.335610466518022
Ni 5.509443942072434 7.7874943662932985 12.420733283602324 0.02537755953284017 0.24535806068866775 -0.12535542018007442
Ni 1.949428912433744 6.2089222512155215 0.5854602548080354 0.038749609964371975 0.7996215678003453 0.6188102806448118
Ni 2.7854175363364675 1.6819991799743252 0.4907221869790627 0.10889521774152212 -1.4133870869323981 -0.27555823842113186
Ni 0.532020521565755 0.12371286918811063 4.786737585079706 0.24353514854731603 -0.013013638650848555 -0.17699011363723066
Ni 8.487208272395149 2.057649469298951 1.4325010945031469 -0.16179257996118587 1.0761575967537145 -1.0685849266127792
Ni 6.491620478887021 0.8598283177029972 4.976945883594112 1.615745247020772 -0.9226925628216174 -0.30397252789776685
Ni 0.8172378244117099 7.304774320632805 2.627978962501567 0.33634631624278205 0.015341001232444546 -0.45085528062665575
Ni 7.4327306535050806 3.679825144590693 3.8810412579321816 0.25728669380545366 -0.26131278424571125 -0.3213439292966788
Ni 7.4679614602615 3.716668884372483 12.647279694579334 1.3369237644673362 -0.7079681678584065 0.9277098135305506
Ni 8.157254731648873 9.141886913687479 7.009101949670709 -1.060097200856742 0.04078463811652976 -0.27252665068365967
Ni 6.700776209738792 0.5144957324024535 0.18419876378167507 0.8644239089877114 0.580083039277943 0.7356298954397331
Ni 1.9334898720313414 6.612563271525379 9.093353034040344 0.22218599344757864 0.13904525896234116 -0.04863653006078076
Ni -0.09429587046021927 4.461399932440869 1.5698060959275306 0.564961353145156 0.8473736383736439 -0.1983924905724067
Ni 6.529216316652553 2.1980652567211427 7.172414136915978 -0.8351791531899809 -1.2789520730485586 -1.07436142408524
Ni 3.2660443936325754 4.238244305385737 0.31834314139005077 0.28049167116700724 -0.05759579613659758 0.39854078749365557
Ni 5.900997026113499 5.709248285945649 4.938140346059552 -0.539532114438774 0.7358890626383907 -0.19810067036360074
Ni 5.569303692440982 2.8691450709119097 9.238217979414543 -1.232645476672535 1.1621373433496438 0.8318593447881287
P 0.3590941661186957 5.542989324431557 12.697146509327773 -0.8843291325520705 -0.5087428969720593 -1.1683992650989554
P 4.0693484702178075 5.97850842554622 12.608633638063012 0.16000180660935026 0.03979064963437663 0.24356574467493533
P 2.2134153047266407 8.690410649327431 1.4341593346359722 1.1606715574373945 -1.1612066040052582 0.28551740651637275
P 6.248176329113878 7.939825922975957 5.930134026917324 0.13949365935366945 0.23635431452816066 -0.5908883574235629
P 4.58802423635399 0.9726439214062131 12.645502749824978 1.0316122060431718 -0.5768357359852389 0.023812271928249314
P 4.011092591453141 6.384668521030533 8.09952894604142 -0.08153019546500798 -0.5538729565414784 1.106964554832242
P 4.54520901980973 1.0076844383113253 3.7313366073397205 0.8192650530628858 -0.7040274380431036 -0.3031909125367359
P 0.22282669745501416 5.512207675627144 3.609721457226741 -0.6693684532083376 -0.547893856139908 -1.254825612314
Ni 1.2927476969919356 1.2272698652990628 2.559519016996055 0.4085207815245029 -0.16338872080371217 0.6877099318300027
Ni 1.6992521264929012 6.402637319846886 4.817187585857553 1.5115368932319582 1.0114305888889743 0.2702694792183668
Ni 5.945968860972582 5.506924866897978 9.161123405370402 0.17920049102498814 1.0369762985685624 0.08377399719386217
Ni 8.934525344290897 2.266406497605124 10.29865801364559 -0.6720156610231975 1.2634192675202822 0.17232304717886449
Ni 2.22525858261518 5.242684754803339 6.991542727105743 0.562490008786528 0.41267285601966347 0.03250748570940208
Ni 0.8498036671076712 0.07067455691787476 9.04112662513569 -0.015308091111980086 -0.48992345027271106 0.5093913291893356
Ni 1.566040169155934 1.1722760982711018 11.493751677372797 1.1495340527633364 -1.2401983493191286 -0.43620024971764226
Ni 4.316797768289905 6.700350322928721 1.7994433577750668 0.32568060899881973 0.44883053688714314 -1.9035288238635024
Ni 5.648772358915725 8.048581103709125 8.14767137228015 0.43662576729083513 -0.6516676934944647 -0.06325839373901364
Ni 5.198600939250359 2.798638150291616 4.781671344324172 -0.3056990236705703 1.0808868839085835 0.3215532170940075
Ni 0.6947210628603914 7.488494641359764 7.00816046797781 0.8542323131666901 0.0795311627571082 -0.5474182020550702
Ni 4.839659911154859 4.644051005431907 7.066727153499612 1.2687702474195504 0.6020382033927953 -0.41215092207792237
Ni 8.262684370694899 7.17842185936441 8.998182736406259 -0.5683505813323632 0.15430989843089554 0.030098104936961065
Ni 4.74080886411119 0.411123036034851 10.252956734356493 0.24808240159836628 -1.3181331141233945 1.57799913862025
Ni 8.20868736003093 7.3570496612135114 4.753515695467807 -0.49733002714942737 -0.2936539195805781 -0.705405549337553
Ni 7.381814526148001 6.335220343954972 6.754492316336543 -0.2560026848867075 -0.8393700513428771 1.6201377196615132
Ni 2.59668624952507 5.0924373250635755 2.72886520481208 -1.4032258301286802 -0.4258700714362278 -0.31210338453501735
Ni 2.34077358378052 5.312811095721017 11.329046749644386 -0.7167744532961269 -0.1014924975195478 1.2627518091396124
Ni 0.8953219056826518 3.2718799490726824 3.9419421656300266 -0.09522569067422955 0.8127156819801424 -0.7920560967482617
Ni 3.5790711990339457 2.6522237018424817 2.6806303520741435 0.32604416298582556 0.37444569421766477 -0.7508526259267585
Ni 1.2574987673925342 3.428352575376658 8.350783134997526 -0.260112593290023 -0.3649184714535199 -0.5061774502377283
Ni 3.587172109846764 2.8208748786301587 7.448827362641424 -0.27684610399461995 -0.3043329965609791 -1.1552989802715716
Ni 3.8614885226392284 7.043442924836727 6.010251491170812 2.0328794812458986 -1.0310905292117467 -0.38180624834779403
Ni 0.5826684308467049 7.203476689786608 10.96474407845275 1.005204148363288 0.2004696848164096 1.3427174883309778
P 0.20260251082958888 5.485331499485286 7.704564236809052 -0.041647243227141174 0.7029961685651118 2.2170655984109366
P 8.804602682955107 1.7882987154834717 8.213996446882419 -0.9466863546330534 -0.5498049571196918 -1.2478036724702124
P 2.0628235409702254 3.2888610529465327 10.435247162772196 -1.393514002157555 0.015643620074527898 0.5347570616476338
P 4.035431569577561 6.309975223681467 3.8069052380048025 -0.13018600879949838 -0.2310457578310537 1.4769409004246437
P 7.224444819116431 3.863527342474669 10.294652865346634 -0.4184856060466986 0.03936333228897092 0.947333501298749
P 6.558738427869738 7.618562285439406 10.418058552346205 -0.7903972209886001 -0.3632297708971874 -0.7698191397269323
P 2.401376370711316 8.426668915414789 5.861462044148926 -1.9394021407213435 1.6715009046248377 0.286855408601506
P 6.710915940387051 4.089809159944144 1.5779224111568837 1.225645134095302 -1.0287914487649248 -0.18323120945093604
Ni 5.153601920126805 2.883933310784975 0.7042328369993353 -0.008595712088811002 -0.4776112085642613 -1.261641349684253
Ni 1.5583470223102032 1.2006745932234217 6.727781964207968 0.49439408444955496 -0.2108633693459078 1.6925559255229239
Ni 6.916084645782848 0.8189948340387855 9.254358183374043 0.8099116368724439 -0.1684100852777035 -0.7013989992813212
Ni 2.96651910625257 1.650266081913373 9.330934444108907 -1.1386929962837744 -0.05172853872254317 0.7990692948413013
Ni 6.344834512156762 1.7865951682431924 2.422253885826232 -0.0060271800306863944 -0.06419581795161847 1.420919390753701
Ni 4.148282512824591 6.817713854078194 10.547817201953011 0.42672702011988445 0.5401430085498956 -0.7883735056903518
Ni 8.092601489311667 7.349139040252 12.914687679627173 -0.6971096278773478 0.2925527160965994 1.7081524944096003
Ni 7.669994913821464 3.922553442066058 8.178400464839918 1.3283321661435832 0.7908852163686121 -0.5389585013234911
Ni 3.0728548874476806 7.99644168445078 12.72767625061474 -0.1092536295222054 1.2467598045867303 -0.43319694411494425
Ni 0.26147003554488774 4.9580564443542885 10.054896714120268 -0.03948700235102877 -0.9077500825791722 -0.6848014999339561
Ni 8.669732485485314 2.4351845342936724 5.9508103784751425 -0.2222219888918366 0.206192960453432 -0.1504460446001151
Ni 3.7150015828181675 2.728466502266483 11.699078051502536 -0.15768678532292843 -0.24258821125301447 -0.44803375201746065
Ni 1.0899621454482318 3.161122194190038 12.651908268676857 -0.36145802370874525 1.7013853508890957 0.2495283900162735
Ni 3.237147520498259 8.549487422301752 8.276527504306468 -0.10789274461893676 -0.43513427034697316 -1.0495096551488827
Ni 5.90848176026494 7.9482349221194655 3.496262492597675 -0.623437752114494 -0.06355689881603893 0.44821038680464104
Ni 2.7626461841299643 8.46565115066842 3.6600911808679224 1.1434695917368114 -0.27784266357993437 -0.3631883761362906
Ni 3.439135666950768 4.556581103780744 9.319873166895029 1.0798106201252693 -0.23817079891160917 -0.5254111016563596
Ni 7.549559560786593 5.746445421165584 11.414402621661733 -0.6674686650824635 0.3827572994071537 -1.468379641118194
Ni 0.5465251389461565 9.088243298461656 0.1885935532047367 0.036372625091763165 -0.6787951458388761 0.23818159754488655
Ni 4.57393372593572 0.17796813036456746 1.6522713744892978 -0.5737288149251409 -0.1904750354975429 -0.5210942194485606
Ni 6.13769947829745 5.595364340648662 0.057272714532909476 -0.6062769240644914 0.6500214161402934 1.468382212221355
Ni 8.101898507761279 8.968569104832016 11.088269376216001 0.4314725052246698 0.8186212488312999 0.602261118036879
Ni -0.02377626384983802 4.941809315621197 5.617342818474716 -0.900051942603966 -1.3197297691865528 0.7073554739750721
Ni 8.222823177556654 8.875109603575401 2.3694303292453287 -1.1699491260845787 -0.09706942875118765 0.18582750942320253
P 8.293311975333967 1.579505441491335 3.762701811688144 0.004575278075508249 0.14026113364731327 -0.3793675569993144
P 1.7363677089194176 3.1996876040550903 1.6453747265926129 -0.6189596617384824 0.4564034641383946 0.26897955676234964
P 4.815366240137894 1.1348705503568781 8.174156095013604 0.5543136436233228 -0.3896054326772387 -0.49390866017270424
P 8.591786137821034 1.6116916106268298 12.455559950960254 -1.4897017996347377 0.3412902905116187 0.07117944835830323
P 6.469356566284006 7.722877369642056 1.377317037623878 0.2885831899258901 -0.4825269006983238 -0.3818237318492908
P 1.9045476917895705 3.282200908150759 6.048765250933367 -1.0369601006186464 -0.31542113605434063 -0.12525951803215846
P 6.768247554159651 3.971303889686824 5.949603397132561 0.22686925785586087 0.41551495345414885 0.4576046835353474
P 2.6110939096955192 8.514057264272534 10.496120886205569 -1.0580832557505069 0.04200565500782443 -0.5307271145526343
