# total energy = -381164.3553103484 ev
CRYSTAL
PRIMVEC
9.24937030625693 0.00000000000000 0.00000000000000

0.00000000000000 9.24937030625693 0.00000000000000

0.00000000000000 0.00000000000000 13.53738838388672

PRIMCOORD
 96 1
Ni 6.722978883500403 7.866349057128244 10.38255426028026 0.026634314758076708 0.11663089582288301 0.31236717971936523
Ni 1.263427001657299 8.827053414365196 2.920325920656996 0.7955810791823846 0.989681884357973 2.066124359341958
Ni 3.3290888971749175 1.7497496488807838 11.718288215182573 -1.9810121029526462 2.1055612251813414 3.087991570183224
Ni 4.311344287486494 5.171147262830276 6.224206583693895 0.5313758038802268 0.23723517447121723 -1.0328429931264793
Ni 8.46371039622335 2.8015325566266776 6.606732796083283 -0.32349619975299126 0.6640812366674692 -0.8756683715532789
Ni 8.032486248581643 7.536784739754008 8.38810419255013 1.928568026220317 -0.10740500634924083 0.1968932803190609
Ni 0.3081316762409655 2.5331343258286196 11.751684916951909 0.17933110306558148 0.1235384215759937 -0.37962338176386234
Ni 0.2035934418993221 4.2321234298538055 3.1908977535033527 0.9297808371269666 0.12055748457079883 0.2911512077633825
Ni 4.024835789409416 4.248994281496774 1.12697288975029 -0.2394992879150456 -0.9593503232539671 0.36947292359342176
Ni 1.3708676884362032 0.4285196317313977 12.763402326856879 -0.6402630512019489 0.9592500502306769 -1.740711145071912
Ni 6.15645494537989 8.396421226430261 7.633787512015867 0.05752071992428803 -0.0817327983941173 -0.578499753951223
Ni 5.241673712269769 2.0472648977556314 0.625144597957577 2.020481364691862 0.5835308886172272 0.3841264118405385
Ni 3.828369912354432 6.1899284169236966 2.8271884602929416 -1.0870112516387667 -0.26382475203428757 0.16679234716862243
Ni 7.090863342517632 3.464592173802926 2.052755324035931 0.015305262898502672 -0.6331485516443548 -2.081352232035306
Ni 2.399351432098414 0.35302904518840683 5.404179600896945 1.353416877026353 -0.21844323857569475 -1.1708526117354545
Ni 4.563343384532916 3.373883598110716 7.769743082857331 -0.22835741236561316 0.7821478364956143 1.405575304197463
Ni 1.6294060903683594 4.850249605537981 1.3837372624362174 0.8841098174524128 -0.8477791013421787 0.2548354040514837
Ni 5.841920854935381 8.91188863984179 4.2516063037029 0.45882595753695815 -0.9724704055756931 -0.6519628561373804
Ni 4.253091752592078 1.2623078278366855 3.8968189531979758 0.2636712571755588 1.7574752519041281 0.8812371238903081
Ni 7.3155213006075765 4.786798924468483 3.806199171461781 -0.6315961195555703 0.4814804617116805 2.6167209591250096
Ni 1.0120568617993206 6.992163310784016 11.44754064429827 0.49424316069398755 -1.1259310686324158 1.1568940926728333
Ni 6.662025532443845 0.6994706887649047 6.062787496090868 0.4636197793811757 1.2581395071785815 0.155336539923197
Ni 2.890918472349072 3.296207385337882 9.834696476600907 -0.06654272091724023 1.2444506968375795 0.37204634074755283
Ni 8.946768015689177 5.229621782614731 5.768592771196188 -0.4312012538411542 -0.31460095414589045 0.44460312906935695
P 8.17943099641708 7.17258153016326 11.985475703392876 -0.9105394723988511 0.9341488842876751 -0.716834617110101
Ni 0.42528420195907846 1.9021607746334337 3.7100029443003972 0.3060787756074922 -0.9048923014154028 0.5509226156639028
P 2.2025433283379527 5.094192500950069 4.38934977784622 0.3352713380110484 0.25474618677178706 -0.9271390286287451
Ni 4.204523308525616 7.505965837520252 6.547358312557128 0.4725273662834507 0.5147556788250425 -0.7679250080280129
P 8.635896675930313 4.184128446753277 0.11015352712258976 0.2582498290496714 -1.4602744955125562 3.1794084286343245
P 6.094400919243555 1.167751514050465 2.5282562078700117 0.9058379531581238 -0.1496531163851745 0.4751048972026398
P 7.259405370279787 2.948606795647972 10.659095636794584 0.12159543891700993 0.39922701492740276 -1.9643217867811593
Ni 3.7747883095212544 0.342471813792966 13.509677604749475 0.40905865630584387 -0.14406045278874544 0.8597450154548031
Ni 3.689065144484505 8.734245231588034 2.697879487034065 -0.260130591012152 -1.4754815422702976 -1.2680343976947903
Ni 2.6512210379589805 8.54812940003112 7.770366490423523 -0.0525921722744191 0.9533331705256097 0.9946330577156612
Ni 6.062629331856716 4.6932785401691115 13.440108465148278 -0.5112983164040613 -0.7373443070276785 0.3979234656246309
Ni 0.15653634495920912 9.089421055650527 10.624305054903214 -1.3490634851536636 -0.35390180862804216 0.21362421992049663
Ni 5.436761433132427 1.1082965610016706 8.226792397643957 -0.012947047078971251 1.6737027973721628 0.3148107561638514
Ni 5.202252895547 3.6708161366492105 3.7524964018761238 -0.9381456641518942 0.2705533290073728 -0.8936398684300352
Ni 7.629796408680374 5.438130339954335 9.753485154454202 -2.7251680335855197 0.8576778485131292 -1.85230962067721
Ni 4.462700985011459 8.199381888409341 9.219868626407896 0.7551484250886349 -2.5888867105215607 -0.48369289598196696
Ni 1.6205914403597252 1.3224472342964335 9.655826601829686 0.8174115447939149 -0.5162759721243109 -0.40054007731187147
Ni 3.050164882840841 1.6376842768927327 7.628900144686841 -1.8364747105274823 1.0258591056094786 2.0678750234844774
Ni 5.855989147341607 5.674350011067147 2.0186140479479238 0.2811226198827868 0.058698799392789235 0.23481525217581492
Ni 8.18263127858181 0.7628501496821812 12.57788585450307 0.23524436929343354 -0.6475220467572074 -0.02244187394328393
Ni 8.202027208348975 6.208917374392454 2.3212830460198446 1.3705357960948268 0.5838229659363494 1.1404364613374423
Ni 0.34713072167266074 6.250807773016908 0.1522779348186265 1.1652044123107415 -1.025188304794699 -0.9654613212477116
Ni 7.369075155329499 2.1970399529390674 4.116584919273685 -0.2334458826321141 -0.5939189167197707 -0.6383195543223329
Ni 4.9589944535458645 4.961713768448843 9.914878343820057 -0.4810140635982232 -0.9044423583621779 -2.4266313319913433
Ni 9.016508268643115 2.5107785975276027 9.452670655151149 -1.261345415710389 0.3452968405678505 -1.3552732135088013
Ni 3.8728038878439173 0.8552300866089771 9.984392912135787 -0.04620400935988817 -1.1432317646943924 -2.1756554108952657
Ni 5.548882301342989 1.1141791605877056 12.005646730401093 0.028163349808093433 -1.2567791364959453 -1.0956722697478742
Ni 5.87023317778578 5.958129944870828 11.490454023290987 0.8408003560315003 1.3785874627547097 2.0754680053403867
Ni 4.202516195144846 4.065967739659571 12.021309614267432 -0.4535744793300317 -0.5998237122399799 0.03539329189762937
Ni 4.331766897370088 8.165344205270019 11.594150564924565 -0.2845678981189099 -0.5218539804327207 0.5904479274520347
Ni 1.9455495712656514 5.934941773232165 6.691328462866043 1.9332530904008125 -1.5042758407941705 -0.44185359134867774
Ni 8.273931813980791 8.942115582368775 3.094781995864608 -0.49295529512049946 1.3207363560741965 1.4793227703932588
P 0.2514459846954084 0.2849573786579297 5.314968498275457 -2.114771688036016 -2.0437915001727123 -4.223157527150346
Ni 6.04183674715639 6.241354916449412 8.117681274567508 -1.0017874093722552 -1.2284808037718842 -0.10058978319962032
P 2.3676815877861754 8.45204694012588 10.51240524664565 0.5845693571840707 0.30570133766341545 0.02425527300293887
Ni 0.8051354964234964 7.808050275381738 6.753776512182196 -2.211400943925992 1.5358235336934647 -0.38651239557421174
P 0.21099201329691553 0.059193195865956665 8.395509238507016 -0.9617152239417178 -1.0497428542056115 1.7260052063203049
P 3.40709808728281 1.9972813000151701 1.4587487315915408 -0.19663694133388068 0.7344549012950254 -0.3390901975365064
P 3.5148440032855173 5.347588252929654 8.220673939112254 0.1707449040584672 -0.5292770123696692 0.013272291628873917
Ni 7.601724569460852 7.136102013233508 5.850926966911675 -0.80248166295696 1.901084218977752 0.9453213559647267
Ni 2.6063430926894173 2.886340033992016 3.0960547092341653 -0.6070120024583029 1.6573120147189653 1.3799432054516556
Ni 8.688312858090786 1.607411087513656 1.4629312968946933 -1.334921903545959 0.46650609979003527 -0.49287507670186725
Ni 6.639762297847011 8.01000102909477 1.9558681689043003 -2.0251767132850027 0.648592911223883 0.1364564151892424
Ni 1.5904939890185963 1.0603663234940706 1.4114354270908411 0.5068395093017594 -0.3060312101990084 -0.2214138911682445
Ni 3.3531557590033185 5.9665931188035675 13.088678636105193 0.35002792749493267 0.5786499063758421 0.1194411115781685
Ni 1.2628720394322013 3.5668717118884214 5.45482267874823 0.33681862789351025 -1.2885831683804194 0.003063726526988272
Ni 1.6960200561209136 3.0257835424182176 13.521536222562771 0.6052842211339189 -0.6192586810361399 0.11001030518257182
Ni 0.4082764596339193 4.862634512528077 9.972885770398388 3.6351773445125137 -0.5318504295238001 0.7579403860114753
Ni 6.883566452702825 3.5377639431820502 8.02321745448547 -0.12831887368377257 0.5586554655317862 1.7683957554713738
Ni 6.500522275570011 8.511094920876271 13.116619134264777 -0.9115180342620366 -0.5006362087045249 -0.356776816182992
Ni 7.149513600340035 0.9408644576897112 9.86175735963371 0.19459959918887776 -0.3547957811972212 0.042888057612777745
Ni 6.904830755294483 2.717576021339822 12.645558873168516 1.4035263920882344 0.7596108317353627 1.7825170253641043
Ni 0.792493456935772 1.293968422778506 6.87524664401157 1.1699624958210173 2.23491111123279 2.494280912819517
Ni 2.548645520020099 7.202253510465148 4.590000070078441 0.439290715717508 0.43735647480927264 0.10760400973392435
Ni 1.2682459236452301 7.01659089805873 9.058286749885507 -1.5143211408453148 2.163706980284138 -0.8033342407652423
Ni 6.127809645194433 3.215885852625416 5.834357644744342 -0.4246200010792106 -0.04181256516041186 0.22289561792009352
Ni 1.2962807653830795 6.751984909132173 2.462058463786281 0.24658190579343986 -1.107078711812603 0.03942503876484178
Ni 3.5775824828328067 2.967077788373305 5.683591057052065 -0.07014252245335663 -0.637299854808567 -1.2878971980569884
Ni 8.193323550785358 4.61402068505475 11.719479534092452 -0.7582810571803458 1.1206022002203344 0.7629018437818087
Ni 0.1354154076090346 7.3739125760582676 4.546639946494519 0.44246037169474123 -0.1493273576146396 -1.1869227778244398
Ni 9.090928703028709 8.303307814429294 0.9152936482312952 -0.4641671672442135 1.2527525318350554 -0.15931943583034497
Ni 5.1071508689061 2.6642534008783567 10.21783129756382 2.001358270709166 0.5036670251110487 -0.3547944956456406
Ni 5.764744108165136 6.53425472948553 4.602698530725716 -1.052149663874891 -0.5906878113769828 -0.765311738774882
Ni 7.375762450141926 6.4947044215769045 0.3338967224781655 -0.8683610392585882 -0.24961426486186045 -1.5325384351842897
P 4.3707622430536155 0.8750070904373735 6.368433866500437 2.1622753900439338 -1.2515757379181347 -2.690974675533262
Ni 2.269231289053853 7.9071942768954315 0.17991597856553107 -0.39029371699351495 -1.259158178251083 1.5338972632050294
P 1.9153041299978297 4.618525128448459 12.053366082263155 0.4360611530366167 0.15464568450375948 -1.3220440191420264
Ni 2.898475207980818 6.139685836811523 10.109289010768098 1.9540474014383444 -0.9749252948740886 1.9596621765219604
P 0.21232392263714991 5.631469929807936 7.934047049093823 -1.668938800324616 -1.0228573426686773 -0.4476478294329516
P 6.707957905941094 5.275757642261182 6.28757587030371 -0.30447800677927567 -1.1400291985966946 -0.25509122881603163
P 4.55811749024658 7.561545304363782 0.7463187499335642 -0.05624622408723861 -0.06883588782679112 0.4208661904637332
Ni 1.3730227917436655 3.6465827861532802 8.057440125033159 0.0685918901367851 -0.0107963192845556 -1.2895897552680629
