# total energy = -381170.4284799271 ev
CRYSTAL
PRIMVEC
9.14936833703124 0.00000000000000 0.00000000000000

0.00000000000000 9.14936833703124 0.00000000000000

0.00000000000000 0.00000000000000 13.39102539356801

PRIMCOORD
 96 1
Ni 7.392396642589671 1.1997200410860493 4.249133062742012 -0.050811683335228626 -0.08918616934836898 -0.32572508908351
Ni 4.722766571145329 7.269447434102305 8.82354720487868 0.340447225785033 0.07054052922272368 0.20504136334749204
Ni 5.331153802754749 4.771130130906024 3.361830089506249 0.35390926482720986 0.8971417109357066 1.1096328456930242
Ni 7.733759566288407 8.815205725984654 8.317982401816865 0.6230577430672559 -0.5637997287368871 0.7674349557654718
Ni 2.304616031214884 8.092844815991015 4.565026890469155 -0.8010032786392205 -0.4427617049852439 -0.03486544441861737
Ni 4.704788062834742 2.9392619492626686 2.193570150621703 0.6626632732740201 -0.6267542180822367 0.018415269282394092
Ni 8.430419901297597 2.892343989661298 11.254165588714896 0.9029814575459353 -1.2223734053225659 0.8282639141273864
Ni 8.65810192639122 0.9155315186254102 1.3387666478032614 1.6135472109281888 0.26165165564236875 -1.6236501036901456
Ni 7.386175072283717 6.395243611171003 9.284721103807515 0.04256846948982992 -0.8543675531929737 0.23085009688047983
Ni 8.705093080937367 6.81736800706188 7.435808564336274 0.5038292617205258 -1.2580752295995494 -1.7710984991145173
Ni 2.783923977711954 5.628636357060317 5.135524758915316 1.1953901918655025 1.0240410785641332 -2.6231677431916176
Ni 6.921295679275601 1.0941363332467726 12.47442321636826 -0.12259662648801467 -0.09281733834305304 -1.6774308969560272
Ni 0.44408562413408403 7.522811735444182 9.413582633959155 0.05069058437633205 0.5039341627295063 1.5929076803009663
Ni 8.582756880112498 3.2337343614643252 4.098189532688283 -2.835817772124303 0.7891206682690216 4.835822871239685
Ni 0.39441553460913903 5.284766506503004 1.2235861677670508 0.9109205098873538 0.5578519957938844 -1.598811704490227
Ni 6.433167741933031 6.989348679181021 7.2300154874778935 -0.6370715408478448 0.41244659894147034 -0.31494419641792215
Ni 5.926786815236965 5.414980313259381 1.2759370221444142 -1.2017279611580725 -1.6591241282270395 0.40756638803103357
Ni 5.9463847617007195 1.2856509062529895 1.0121982523173596 0.6457137899038751 -1.7358908408651328 2.422700372368053
Ni -0.17769811224295062 0.260836590266689 12.038786118734938 0.9934099839418375 0.0029212874118530337 0.3502827238182161
Ni 4.117453527216497 3.215710106313253 4.709623503874002 0.5131099156915033 -0.9682453117507517 0.6177242466694846
Ni 4.112000503830691 6.970217350490213 3.6456123800233815 -0.4888147905895647 -0.1430330399654956 0.15134541648593292
Ni 2.513002038991952 4.042538501238335 6.429526293430429 -0.6004713731263077 -3.0680215548192002 2.7380875698606655
Ni 0.8516625247507447 0.7970728200000475 3.282086941983304 -0.9827121379083592 0.40806363938242624 2.1890277184371136
Ni 7.561449516917775 5.295224234237866 13.291676797579843 0.32539290255507186 0.26414948236355795 -0.7449601717017236
P 1.9462993284324228 6.954791515878686 6.43819074501828 -1.4841464170341472 1.3692114208564483 1.371487875595451
Ni 4.90846214604186 0.20460914862663043 2.8693882251059475 -0.40090311707824505 -0.10411810806785293 0.3013790561389777
P 8.406640693613518 6.571908759755804 4.101657143197043 0.1178395714190035 0.11399525797224884 1.3431190946447706
Ni 5.169557663425694 4.995838611368125 9.539953706114797 1.5156167197282864 0.7187421185454589 -0.11758040422034588
P 4.335373176550631 5.608379656093578 11.4762427109123 -0.5726078139468203 -0.576924181933987 -1.7720040416479226
P 0.2203021447865895 4.640376511431924 12.511275041189322 1.0413494879355936 -0.19338192473169277 -1.0564472628089807
P 1.6844810109689266 0.7709193512947986 0.49342084678667925 -0.8474448579312115 -0.3900183518449412 -1.839961126414186
Ni 1.8475136010892104 3.4067580615465234 0.5979423129898954 1.6224008046640768 0.6567983298528108 -1.6884907543146146
Ni 3.923761404603197 7.84550079885696 10.895526828175422 0.03292888951753684 -1.277422780888226 0.8769629219949865
Ni 1.7853619436063501 2.9227290411114053 4.478467463713952 0.09381672614184489 -1.1004753475634725 0.7886632690166289
Ni 3.2244660515820733 4.084762835005948 9.062577191223001 -0.9817906545353542 -1.5606776166226672 -0.5743723620464108
Ni 2.1503759838358083 1.668744097842102 11.587762528772906 -0.5706699734941592 3.1316769268863163 1.7958587367783332
Ni 1.5642857622787552 6.948633991149411 11.64324155210263 -0.1869863056179941 -0.40414296417178136 -0.0728969452700422
Ni 4.484141901807705 0.9782778850345749 10.989411239029076 0.7588685542526995 -0.2614477671616787 0.10153003562570256
Ni 5.51092058712443 0.11102300717293799 7.985925300409578 0.15266670640051772 1.4578075220293023 -0.04641946780480393
Ni 6.374803922842326 7.030191458365988 3.2579692076796354 1.1913736145069418 0.7126174937049599 -0.038308151551579184
Ni 7.796560828906154 2.051498762811626 7.980006574187635 0.6816159031171228 -0.7520155358866081 0.6414979520503146
Ni 0.8959216779831293 3.373179880630566 9.684148662260185 0.41103917707098236 -1.765041751397476 0.4227950320553299
Ni 3.933807410773693 3.367241940735619 11.434381607058137 3.7982935283811297 -1.3222275959077423 -0.334066776179986
Ni 8.670627411316001 7.778811054797991 2.3130050868230145 1.4156848818276393 -1.033697627817291 1.0557276110341365
Ni 0.9382859970826269 7.735049627190083 0.35406316155416967 -1.3467410076680741 -0.09036219193434115 0.2595132691431273
Ni 7.304956131686727 2.8491315241392097 2.2572451778927123 -1.1003974431376855 -0.6854933837946581 -0.5909130400139113
Ni 3.7487797397482434 2.0326602138999212 7.237849176442537 0.6296747341631415 0.007333043326303499 0.299386194078665
Ni 0.19671964851659504 1.7583987558245173 5.808771860964306 -1.0111536810785038 -0.5031600035676431 0.7071603272451304
Ni 8.122607710410527 7.095728382044736 11.823150151677813 0.33549219577260286 0.05467142340095101 -0.24650400136765288
Ni 2.8069071903715956 4.2989769902608 2.989158028179609 2.3343762939096635 -0.41013800541295176 -1.7664895395875964
Ni 0.21441361147936602 5.498294459150583 10.435318187580819 -1.1489020756062922 -0.9399953157661232 1.2624484189665808
Ni 3.010132954541961 5.9492485139150775 13.277589515520903 0.13666184633182915 -1.7233574842848125 1.227478587759615
Ni 4.079236616675366 8.107776584725304 6.445997900815442 -1.3486626501708192 -1.5163808515878208 0.49565521055016576
Ni 4.765173892274882 7.281542898726527 1.441811405995623 -1.4192628289868847 1.5424114713236274 0.5590344461377598
Ni 4.9274562342112125 4.023699952326631 7.134751351915212 -0.5012615009933497 1.479318913738517 0.3100058785760403
Ni 6.5365007052204485 4.0090884114757355 11.273649168077437 -2.0244352071332874 1.1202486735356578 0.7118435916534127
P 5.167938225272526 8.896360621004964 13.005404049066708 0.30617802018951784 0.28378242610313703 -0.8411232865885578
Ni 6.2701900480213295 3.1949135926287924 13.3622614276377 -0.742539992296005 1.4133940289109335 0.20076844700375102
P 3.979325517056224 3.9242646198485316 0.4660495971877208 0.9105201891251417 0.6074277498394829 -0.14463200902149928
Ni 0.8487887082314798 8.711973405746303 7.562835646184468 1.436720876562332 0.4763809357015861 -0.41552986585248436
P 3.1733119345517964 0.9930907119836034 4.076495465993507 0.1228262260003175 0.25273686965124215 -0.5696533593041867
P 6.321234372634443 3.5606870304103007 4.818533007016534 0.8599080233952286 0.3664649900050334 0.26720858090485594
P 2.4300630171927278 6.5101962719415996 1.9803047848385094 0.8165651376332196 0.4046242746835741 -0.5055259326966584
Ni 5.500289021395726 6.712982866443308 12.782229002697662 0.8391299103076129 0.05452872717549964 -2.106366494691456
Ni 3.598519667491359 5.890216790953291 7.429889838114331 -0.21106057295837843 0.41131428510924 -0.4615934929797664
Ni 7.835930559827506 5.024613374033161 2.7363756266487016 -0.6618240652021764 0.8539438353919938 -0.059877650192238806
Ni 0.378743581995803 4.858964064637138 5.605429899819109 -0.32372322816213284 0.8828954854293376 0.31534400295950205
Ni 0.589827738424674 3.103465658499367 2.5171778105914187 1.8799700627069558 -0.007101386931471641 -3.8796090367321705
Ni 1.0044450777919693 5.157114522813786 8.344429565238027 0.2874436770048082 0.45385832911903773 -2.4709016146636285
Ni 2.6410657442455356 6.262614371237022 9.48782243657176 -0.1033910000938413 1.4019037688831468 1.8277278175727878
Ni 2.2188224065693984 4.457288506443037 11.61189307219191 -3.2653298111884923 1.7959320132184298 -0.5894680800372687
Ni 7.005460716399822 1.187807563823767 10.076866989087332 0.012752157459345782 -0.4104254547463835 0.8509361589139215
Ni 6.274545147235497 7.879911572269743 10.475959680667653 -0.07686518588917084 1.4671516822483637 0.765573734187017
Ni 2.322896468672672 8.638586324240338 2.218504923496433 1.312257629179224 -1.4546864599018172 -0.2638178100557521
Ni 9.069247080565708 8.241393956413763 5.497832416061684 -0.5245528674211225 0.2690708309245753 -1.1660341073008886
Ni 7.083541423739543 7.952310522021232 0.5405318580548959 0.317227336025144 0.21800203727321812 -0.2998867878641674
Ni 3.137153631832488 8.184594679267642 13.234778707258274 0.39921698762507374 2.219763456958074 -0.6164397235301061
Ni 2.3279469198622107 0.7638468897558246 6.030647697063578 0.07079044045000067 -0.08749129814444932 -0.2917615876538717
Ni 5.3033305743718 2.4398894385288963 9.210735653628007 -0.4813737609304871 0.8395844813465282 -0.6614183451233254
Ni 1.4764609779157378 1.81233428075628 7.967727207264663 -1.0443455944494402 0.670643206155703 0.24277050246714962
Ni 7.19240975472564 4.474352077943925 6.750764267063024 -0.10916672623535392 0.45510865658637106 -0.2110654580543849
Ni 1.1238168833534117 5.55181826251798 3.3132204117437447 -2.2510491544452327 1.3624527619763762 2.2311840400901897
Ni 3.149358888873874 9.175260808705543 8.466462007042075 -0.2691237956496978 -0.5567808742168927 0.7266647158266453
Ni 2.6896763369448493 1.778179689650212 1.992182494502023 0.6048173087998293 0.9421673837167773 2.0337644549540137
Ni 8.82412635987922 2.8787480286691696 0.29870308000970586 -1.715010397871698 0.5476835399013149 -0.8329073264366686
Ni 5.398026534175657 0.15283561937618714 5.193066049814102 0.31260269276893904 0.43692118704406685 -0.08824668825323512
Ni 7.511530564580592 3.9921529311282056 9.336275963160439 0.51834545305883 0.24447385831150154 -1.5886337355159608
Ni 4.044716050845419 1.8031025683464157 13.346995706967869 -1.490002361594292 -0.5275381753016914 -0.9469699473117432
P -0.10516924146448312 3.577082698040109 7.352195234108302 1.7411505466021755 0.11965451314055522 -0.152729184207337
Ni 6.0681079548630885 2.2160867455083983 6.562338520726351 -0.9752649376016944 -0.12903749701735195 -1.342679436004191
P 7.16042356385856 9.225856814281903 2.3415007937610937 -2.6285840291111824 -0.5243937161354388 2.4932164761107445
Ni 5.372472349080762 5.933410957739186 5.553258373056447 -0.32105570863229865 -0.6190820462489596 -0.8397752572010956
P 0.028349317048526793 0.90282213140188 9.940693283952575 0.21898008491577126 -0.006062147033679882 -0.34283526640123535
P 3.0318444050361206 1.9811492715138617 9.528209577225498 0.625017180786472 -0.20890958805364668 0.33352221653042563
P 7.263454597998776 0.5044183872392625 6.36767382028434 1.0248674311201704 -1.7439386508702739 -0.4529512439237361
Ni 1.9212392092147643 8.952455396807617 10.766410945590682 -0.7039626462434392 -1.3981833826087662 -2.2837913818732605
