# total energy = -340858.3142828568 ev
CRYSTAL
PRIMVEC
9.32856187610856 0.00000000000000 0.00000000000000
0.00000000000000 9.32856187610856 0.00000000000000
0.00000000000000 0.00000000000000 13.65329325116930
PRIMCOORD
 96 1
Ni 2.937881277992144 1.819274776926543 4.589035781527747 -0.899889963104805 -1.6932845761588322 0.6041164260780628
Ni 4.139036222315546 9.00505659329464 5.703116997270221 -0.8214497194190306 -0.8510801406909536 -1.730135940659227
Ni 5.69338917303819 0.29336274538170326 10.771628727546387 -0.058995247587285485 -2.4728708225748575 -0.6123629823575711
Ni 0.22188637210951417 7.558737716633314 3.783108678737276 1.0011400055962436 -0.24166287122526767 0.5592159660209467
Ni 8.610365144064492 4.573056888041897 3.2192689486072026 -0.5684575392238725 -0.7999033607068224 -0.022326174301026066
Ni 5.396134551678731 3.9071188477159073 10.762849618048149 0.15240548231933107 -0.3422842789937718 0.044846466890729214
Ni 7.927243892925883 2.6316339230695123 8.264051616264444 0.08548660900959472 -0.7599273345345171 -0.4304913722583231
Ni 7.818472862483351 7.568821891925628 5.383616554616053 0.15692342479434265 -0.4662698154095131 0.4729032615656308
Ni 3.341957260380542 8.271607751312338 3.4434286912243364 0.052449733159283855 0.9389745878110926 -0.5416530174365188
Ni 4.978625440316298 3.857173727905503 3.410647192246797 -1.6881084312745314 1.0723065984387403 0.8035743818005064
Ni 4.169689876349351 0.716557615153632 7.646922476923139 0.49484068506867035 -1.1214799748395976 0.8537414895732006
Ni 7.606649209974039 0.24969761336666005 9.315300304087048 0.4507449803010366 0.6033173272155351 -1.4723419682000514
Ni 3.5722421366673642 6.301844615629455 4.595152519491827 -0.41396972045421615 -0.6814521238457489 3.0848710222763707
Ni 5.461854269471839 4.251454720417001 5.769089519087769 -1.6867372619586176 -4.464288437131544 -2.8470177546051803
Ni 1.8432771664058427 1.83349150509073 2.6728232547861466 -0.48162058683397047 -0.04134205328189654 -1.7205763219952497
Ni 8.355378236164306 4.863455016487525 7.90942074277464 -0.007504021686529012 -0.07128949157360624 -0.09784230236147021
Ni 5.176232364661424 7.874229676287383 8.499871128259803 0.44690555195028836 -0.6103184411237166 -0.7378220179950454
Ni 3.084591569224537 5.547107995648023 2.701864000486888 -2.3584533894635253 -2.7171379641921916 -2.4943852996078655
Ni 0.9015971010586045 5.965764520110321 1.7443990757389802 -0.2792446861337836 1.0082231376952702 0.146418925718593
Ni 9.161907031190072 0.819839719840385 0.8592249077073121 -0.9937642819574628 0.25816446842471663 -0.3230501133545082
Ni 7.91448242040055 0.5113348529651723 12.155226086173114 0.23028522551594532 0.47147218554605896 0.18466459946335292
Ni 3.2374866969220584 3.750193781326175 9.486130524677263 0.46345548588916957 0.7643645443702642 -2.262106440700659
Ni 3.4757754792225763 0.577236477713137 11.70229176142256 -0.5344372164143699 1.1548595787413078 0.34898997314872154
Ni 9.033564678117315 3.1161034509427936 12.972757919827266 0.31012697753493684 -1.1559103886033253 -0.9086062599318804
P 3.264744754465204 2.5740020683461875 7.623575885337503 -0.4858978740530857 0.7129525084468754 0.0969655561834717
P 7.929576033372764 4.757519868828401 5.59423215837388 -0.02681712019284414 0.3733048957450022 -0.6347896867922035
P 2.9500923653720132 7.274804281506442 1.3055480807190496 -0.6757504454752813 -0.4827302749583815 -0.12258762762695018
P 6.065225645888905 8.474886441224278 4.036855820775901 -0.015074892055251457 -0.562923753889837 -0.6172465357021176
P 0.24822649917276748 1.2377322350922848 7.917135463372921 -0.7529413901349872 0.6074285211704313 0.5807669527188449
P 8.870594703689267 2.1931262191233625 2.77679287447664 0.8345476902535691 1.9919698875157308 0.053503885455411085
P 3.421026150091597 0.998146782703301 1.3441011608745295 3.161121714509995 -0.6061339707287239 2.5445115268402954
P 7.106358441309117 2.328576936278214 0.008175551550586203 1.4861943007021117 0.5474531690580636 0.4980756470662002
Ni 6.631012246864034 2.8680010216418004 2.1599240020092063 1.467194619671157 0.2629014688890698 -0.9817616010696318
Ni 1.7986306696907521 0.10594261050855475 8.691699941433736 0.9693372592633499 -0.7748039945360334 1.7142151556639122
Ni 3.3913426664836948 5.205552034359613 11.203059784520521 0.5153148937626222 1.2132575590642267 1.1090332644358125
Ni 8.410276822283885 5.106790550715094 0.2830406917638078 1.2512857174815417 0.9759552788004997 1.2844380358637943
Ni 2.006526997687516 0.6859440739355139 6.480917553415127 0.14522413407954343 2.512211529156009 -0.027109197511966214
Ni 0.3795810448467169 0.7494491911602635 4.166944480615283 0.26992315162254155 -0.820277039267168 0.1263918318643888
Ni 2.0198108696729506 1.896813782504444 10.241130210101103 0.5585621344870315 -1.2056630345464203 0.5834393573446854
Ni 1.3338350786273592 8.443038731281671 10.864567322923133 -0.5192656508802541 1.6147679707091673 2.1418135226451565
Ni 0.8824250408728846 2.8673107080695233 5.536710380679649 -1.1019534747708957 0.1859167267028992 -0.11339799070788212
Ni 2.9345416528722104 3.850998220002162 5.884705848169987 1.1185448034706738 1.1414859856478792 0.6012452751778549
Ni 9.054637899195333 2.113367015840031 10.235901551219197 0.01587681913125653 -1.0091024549764298 1.2451245829761524
Ni 8.12280786223954 7.109157009845374 12.49292748573092 0.37813754124695526 -0.3327236318885302 1.004190105276477
Ni 7.894771169343511 4.19550200681543 10.498439929886384 1.8690536729047682 0.13388916868269846 -2.1478630712733464
Ni 6.051923116779895 5.6669240432469845 6.9560930351794985 1.7533416893517286 7.224375651191751 2.937615973809728
Ni 5.987835897299603 6.233512900535841 4.774529568391772 0.6598391735616637 0.24634639274386605 -0.6096116448646792
Ni 5.00729211068936 0.983482283573313 3.2270377748638523 -0.5103881458849662 -0.934572602088655 0.22568809306356616
Ni 4.8383145424701475 2.0028142300960816 9.410054237587646 -0.0042343497963217396 0.04136185077623844 -0.15321358004292324
Ni 1.0088279859500162 5.356581449699629 4.6413550203130765 0.3695346300692926 0.04573375459168898 0.13859608724006453
Ni -0.08991893992612443 7.661230624992844 9.193759405413573 -0.4870967794571934 -0.7618142671445848 -0.8653255948663743
Ni 5.010398521764606 6.572596792950558 2.777461732356805 1.8115661202112605 0.8863389638932477 -2.2840775456551117
Ni 1.2612868536057833 4.009425184839685 10.825860321498158 -1.1437292731561013 1.722744276180846 0.5191466088038865
Ni 1.312174158156728 8.404241242807357 13.51887618112958 0.2538000208084339 -0.934172538436759 -0.877967709110417
Ni 4.725970672862993 4.318722979466838 12.972895049685542 0.3082202474305272 -1.0502043672230623 1.0579665276669843
Ni 1.9762558146870002 1.5184939592114006 0.16522002353119847 -0.996221999469336 1.5649932132788853 -1.358171618102519
P 7.387903764618384 8.127285571897552 10.817053226314558 0.6160818259700551 -0.8707884177531584 -0.7901097716551683
P 2.181316259900357 3.6914238420647734 3.810142850797521 -0.16123413635455458 1.4672205878130862 -0.8510510872252309
P 2.0180664286186834 8.295647455038788 5.30875577912735 -0.6302995122313338 -1.0542255725673135 -1.763397530925834
P 6.811967688418428 2.3655740123275346 10.233949083237066 0.46488064837147036 -1.3766280250354936 -0.2625332869163737
P 8.858514216174424 7.760458536726738 1.3996536791754148 -0.22626247750979742 0.40399692551222044 -0.3301435298661798
P 7.449173758438843 7.638105120321571 7.746031915922332 0.050976233937550915 0.4974105026783756 -0.8568990613655758
P 1.1588685737405553 5.5197100096780645 8.78396874607414 -0.5238273021090075 0.03605843628545403 -0.0066542720917240235
P 5.563918063989142 4.6435528294702175 1.5508370157849256 -0.7804125989720624 1.410451401342842 -1.822353954855384
Ni 6.184155480118051 2.1836204146618754 6.7800341557073756 -0.8271022897191176 -0.7892260834986343 -0.2496003809047895
Ni 7.023474169826964 2.608881560869741 4.5333032219843625 1.1810758321253594 0.3536745231085845 0.09972820653027341
Ni 7.4924955993801055 0.693433976194717 2.5430349746363223 -1.2136727922247743 -2.338618099905153 1.1890333964095394
Ni 6.333533740021675 9.250957482013778 6.056245972312233 1.2568511273844614 0.09368277166714188 1.1796169881916458
Ni 1.290587866180397 3.6158904772711895 1.2630173018173692 -3.487295461095149 1.3003166547672638 0.5177885521140954
Ni 1.1110503660177062 3.277189055889761 8.314227151551 0.3758945108490494 0.3246056307670861 -0.4353425297030374
Ni 2.627827869860202 5.6595078366259015 13.31828225130009 -1.322333525357987 0.3896059468978709 1.1225680656974537
Ni 5.496332633838529 7.002727448411511 10.888692849418026 -1.1655687376286956 0.5737154451887022 1.7487360722589174
Ni 3.352032107111068 3.4912608917898664 0.9860037938244808 2.6454466091944764 -0.9163722770305445 0.5464900338138459
Ni 7.450349157224072 6.913686326149592 2.882360476801336 0.056455768994883415 0.05245950335129674 0.24274453432522067
Ni 0.3215126134317363 6.366575505873086 6.840449653268098 -1.253485296236022 -2.587745654938582 -1.3570246489822693
Ni 6.983034854478047 4.671240000855589 12.292073289027558 -0.8578423991154516 0.7833441707965606 2.2163387475472414
Ni 5.637856244717058 1.019695760432482 1.0828333323228032 -0.7492266602875614 -0.7161334772780181 -2.1288279090187663
Ni 7.079697411720373 6.233298343614727 9.477597689210214 0.46885325986597315 -0.2287685317611028 -1.047012856868958
Ni 3.40470116696343 7.657881671311123 12.114198138575405 -0.4428316389912309 -0.7004967991820259 0.32216796785987095
Ni 5.576306394042974 1.7584152398247352 12.402173639524815 -0.951848101339651 1.7029046157470995 0.07160059505612185
Ni 6.063257319351736 4.055107151913191 8.260843523865715 -1.0911856947314305 -2.0182409053971178 2.552867355004158
Ni 8.618042550415625 1.1562752335636237 6.069803171158042 -2.2927727594362644 0.7735539241790161 0.09777956744433482
Ni 6.511158885017923 7.885013493713761 0.9147764931520185 2.0645323322644895 1.6296700846319805 0.9069448130690574
Ni 0.2916929328217365 8.506258394515722 6.649426827832606 -1.5726137059386207 1.1930818554473002 -0.24563034051344795
Ni 1.417652206288264 8.84119107693499 2.223056909618634 0.16900966653491536 -0.17205128157471658 -0.6511527015312593
Ni 2.6117081150913606 6.879151990412177 9.887278271520557 0.33920641139939645 -0.8517601974771136 -1.265504175073769
Ni 5.3537455669162215 6.518705691504031 13.32266480962787 -0.8626380207318821 -3.6131324488973324 0.46758133513208505
Ni 2.0304361015489407 7.4237067847589016 7.622046001204348 2.6301534304808314 -0.45030635010172126 0.2698653018014126
P 0.784376259348933 1.0454892337749861 12.205361508643986 -0.9251785624682647 -0.7163180824849986 -1.8251633992797214
P 3.7314713578186143 8.773045933077126 9.842467592118007 -0.7546658290252616 0.9475947253799357 -0.09321354534020719
P 5.3006847074687835 8.441434218654216 12.863654792585098 -0.2111510757896557 3.5401776538061616 -0.6665978324417359
P 3.406949350354223 3.042594384057103 11.588028073799533 0.26233993995864496 -0.9162480927478543 0.7638809198656263
P 4.85835229318975 5.514206158223425 9.483495205972288 -0.4805047280619724 0.5835614847448466 -1.3652287820596165
P 4.84617852005703 2.2590791509611585 4.87320149784313 2.7287372389940163 0.42651516121939453 2.6021723718868737
P 3.8649444198745107 6.932595320892903 6.5457165421598065 1.618721813150593 0.0973234537435227 1.4318630342493985
P 0.49257138378574616 5.799156406585139 11.993407256269647 0.3253545931179687 -0.5753115860312286 1.0914438334888235
