# total energy = -340863.19169388677 ev
CRYSTAL
PRIMVEC
9.33455951203064 0.00000000000000 0.00000000000000
0.00000000000000 9.33455951203064 0.00000000000000
0.00000000000000 0.00000000000000 13.66207139759086
PRIMCOORD
 96 1
Ni 8.313956086479319 2.0427003205658276 7.090887962702203 -0.18114964433155897 1.3907834906002694 -1.727734787416902
Ni 0.5344800737324628 2.681408218562447 4.945423476798996 -1.051471149750628 0.1297052125083379 0.349284878681321
Ni 4.525861164849481 2.848991564942859 8.412993895671482 -1.111621079767647 -2.135420474634619 -2.1348990549135105
Ni 0.41617853413728917 8.761697566593107 11.15058682775611 1.9544140407491437 2.2170776825957943 0.41276644417473424
Ni 6.695530163489523 3.2712683667897413 8.937413181194241 2.8342121182000803 0.12548963176509356 -0.8520684727461518
Ni 2.3295793371262468 8.4067602768494 8.786050498825707 -1.1367443571978357 -0.41633590669354753 1.6044431917443915
Ni 1.7297032065747626 0.7814613161549014 6.289197722693851 -0.4706370912392734 0.6858348262944769 0.3737635805489757
Ni 2.748449024762197 3.446487382826432 2.3645353954744537 0.14076044188123502 -0.2769564043202391 0.3535729645337137
Ni 6.1613599971318616 0.29309303280758875 3.519404294220104 -0.3382201362267272 -0.7810759435876742 0.36203137971371196
Ni 1.0149653215972234 8.66374069938896 4.504603572541114 -0.9185278899209665 -0.2142471982164762 -0.44783809106688677
Ni 8.34023287142116 5.362881779041269 1.7648804939826934 -1.6889388975956268 1.1439735279564232 -0.23083055649645406
Ni 0.04821673354834177 3.4380676101736647 2.379358675931876 0.12818157677495987 -1.477987853631919 -0.5792991099240667
Ni 8.630024270539964 7.667248471006623 9.542724825732096 -1.3584451834788798 -0.4288924032023194 -0.6238887236089836
Ni 2.83627789492837 7.365294140882768 11.525787579223351 -0.32791078388091915 2.4965131445841457 -1.2968086416140054
Ni 4.4559453143292735 7.454952584707414 1.331085779190967 0.5254656090433789 0.7193627828485932 0.6609270073092037
Ni 6.706600951035179 0.4138868997844573 6.07623348193573 -0.522918674251809 -0.5634868254821586 -0.20501128144050498
Ni 0.38150064566164554 6.569971003897091 7.677018020960488 -0.1397253157485013 -0.9819971141192056 0.3985911811156167
Ni 3.8431874916926243 5.6097622082213014 2.705841428006592 1.9217844276395806 0.6759039403340101 -1.0767155261397134
Ni 6.196691304771246 5.047513686941775 10.428067653994372 -0.30955516419186685 -2.111094496294745 0.1354788817673215
Ni 0.3980993593325445 4.030448089461101 6.962560172767408 0.5748824689136098 1.0966567451483307 0.3320255773802411
Ni 3.227853330638942 5.2394789026891795 11.988822801592454 -0.41814981997383466 -1.5506348876746843 -0.8141974087319913
Ni 5.1190350816928865 5.260369646809903 7.985521478016916 -1.9332620892618773 -1.9768358600877693 -0.5354106360712328
Ni 5.408677127859978 4.191282549336023 1.4409936828999228 -0.1837372025530771 3.1325518732921016 0.5974277012039775
Ni 1.196438492486857 1.3491332164934728 3.134748567453541 -0.46236430970751985 -0.19507808148719305 -1.1761210592232454
P 0.5542572049069839 4.0870995309573805 12.116850018711926 1.0007597394386891 0.5714294773680029 0.3863347323457669
P 6.933262724377192 3.642233095164049 2.953015895810308 3.352104028661259 -0.23420847182975146 -1.9076199632137405
P 8.450165978440717 0.5872343366450065 4.32936028664977 -0.3792516002467404 -0.0439190699804534 -0.6350588812931902
P 2.3129638212482804 2.7784969717347674 6.811266566139042 0.687434309571113 0.6356929153327633 -0.5424487738649367
P 5.707429704081506 3.3551487182950264 6.455956827472002 1.339968464830931 1.9359974859151692 0.10454413986167803
P 2.315008089774839 0.4211631889006791 11.786091104938505 1.658189275117596 0.29550279986385886 -0.9080555296347329
P 5.919697586702269 1.2485253343964373 9.303037608088895 -2.228882645650523 0.8448318457883968 0.8513848164155661
P 0.18476360310703968 1.8341569271783837 0.7596940568988172 0.4145389626941247 0.1744308375504867 1.1710467300241316
Ni 2.2360003783191598 3.214738274566727 0.1430866619317897 -3.0515826925368863 -0.607615954590889 -0.27999030605055647
Ni 0.6203244165527613 6.424221192145086 11.993454610007424 0.7303794456740711 -0.2912741064944919 1.0217363416903564
Ni 4.369535297204365 3.149284343478917 13.382886986696603 2.2441917652037673 -0.1387323557076127 -0.8488360818517832
Ni 2.8660551396759617 2.2908035770380035 4.613080488281478 -1.1192323164560014 1.2950800889586727 -1.4277811508705411
Ni 5.363068470230909 7.414832648053761 4.386754759080818 -0.6207869447552082 0.7367375266816151 -1.497652421940382
Ni 2.371108792261681 7.917162632018307 6.550471109139186 1.265800109047633 -0.623397642905178 -0.9985892141499318
Ni 5.356384925641794 5.8280975545053675 13.0264430990525 -0.38093875814117617 -1.0363281234616024 1.18631908280217
Ni 8.03732641623014 0.16636611982395866 13.605715056459356 0.6396357020305952 0.3427283085097259 -1.2575772069172084
Ni 4.179969063243835 5.581301136360672 5.51901255439321 -0.08434401076471926 -0.40408665701254926 0.14792199262668074
Ni 4.163680256947738 6.819586459005351 9.64499892669667 0.026990669656230936 -0.65333762499772 -0.8510590576450311
Ni 0.9958388092185978 2.2425812427539724 8.373619790320442 -0.2790346270055065 -0.12919767674430005 -0.7142735412511441
Ni 3.998215855569741 0.2119607756138056 7.638915282610897 0.6630198852824903 0.1981685474870587 1.905231665487222
Ni 2.163302829073315 8.572121998073095 2.2353338907721447 0.8905352613627824 -0.05165937604750458 0.35173565421465874
Ni 2.8781247250861925 2.7449485649564465 11.631354912773174 -0.8202644408616777 -1.2477566212823608 -1.1944399121370914
Ni 4.447712232866146 1.8157958486772825 5.9977036999255295 0.819635034807795 0.15468090861706907 0.43787352365500715
Ni 7.003888001418033 9.163951738351091 10.880514685543037 0.10051085033256885 1.0983837551417663 0.1968238605337062
Ni 2.4890322821978335 7.305861000660851 0.09981444454106526 -0.12047392371805704 -1.007449235643723 0.3707139950893744
Ni 7.639198119763202 0.46973743607718166 8.485826796029816 -0.12649416177020795 -0.8764451018183035 0.2526633361008294
Ni 9.199227038633584 7.494353760280951 0.4319138010561028 1.5688652946397819 -0.4795529056716645 -0.4386484541478187
Ni 4.495001111201977 9.147158865842968 10.398489235363748 -0.20148655611669813 0.29284633607761823 0.012627201845707283
Ni 5.193002131028284 2.9384633175778645 10.828174877071495 -1.8556494836837205 -1.6239714915853065 -0.2806413093709941
Ni 7.198420221022989 5.834221025525562 8.409182595034979 1.7465298086362178 0.27626297779764036 0.12462728376479829
Ni 7.677525820996309 7.741980954219545 7.076461401022765 -0.46753299839265294 0.1586769171503396 -0.42368026287376065
Ni 1.4839149208541238 5.849128317018321 5.627639756541235 0.07301161647103556 -0.7192915632910256 -0.06768969003748987
P 3.434856521711856 5.1243184423597 0.4715530078964314 -0.32179464368085225 0.2302597715946486 0.8452208536966992
P 6.25652583105089 8.11488727096611 8.880278209516794 -0.31262171893233254 -1.4677353226659755 0.7941556595897677
P 6.831712051772474 3.319444028276362 11.969463858682726 1.7456396927217805 0.7101536055454996 1.4294104589438479
P 0.23825156239486894 8.400636805829206 6.565923538905695 0.7090701426733337 0.7080789824046579 -0.9678496189742299
P 8.825209909308661 4.507612101062164 8.99778537810005 0.44502658976002063 -0.7104490252987313 -0.6444976581085868
P 3.832854134346046 4.2766750994773925 9.664166511137015 -0.6299315873689537 2.2465355828455955 2.0690253350388366
P 5.815421222728806 -0.11771532925970372 0.9919836361525304 0.02913008459673693 1.827790295379607 0.6815179440866779
P 2.5166252400266362 4.818322247980138 4.003997681712894 -1.177939857599539 -0.5763701092027299 2.263909041127037
Ni 5.288504009088663 7.381974998677109 7.058482106004479 -0.5652408320587878 0.6549918727716912 -0.35680998341377257
Ni 8.099130534560487 7.479147762884767 4.401823538452616 0.0021306731897576207 0.10113048619443875 0.7634147788624852
Ni 8.066758282276899 5.460325245473904 12.901326397579517 -1.3312058881469526 -0.9417714338299393 -0.1351613505269027
Ni 7.678851328442753 1.2793387152465314 1.9273494352229157 0.7239696854929855 1.691025090700694 1.3976107979347479
Ni 9.131458136794237 5.077748325103984 4.009858851611645 0.5013635737888527 0.5573156636744402 0.513391194377348
Ni 2.7282957108405514 1.4069048051275936 9.49325446084532 0.5168305590762002 -0.37913255817037284 1.2299257637485268
Ni 7.691294296232265 4.431628786878654 5.892082225930709 -0.8391319671901418 -0.01573566556770193 0.39495769812808756
Ni 6.878142150635961 7.515897923565416 0.37970280950541163 -0.4577188405157085 -1.5008007377613766 -0.2808979054664904
Ni 5.9187547961945866 1.237622568921457 12.843972997210189 0.03785332340234771 0.49723746743562103 -0.272949082933059
Ni 8.985064240437975 2.0730003006444115 12.360226254262415 -0.4415581715954459 0.5347184951002146 0.9838477941746993
Ni 1.0197632851709733 5.340544178200834 0.465187771785653 0.44811037089166705 -0.6078761502308111 0.23873438472456304
Ni 2.8447910131759575 7.208464207025624 4.213778837687652 0.4428900030329921 0.17913261390153018 -0.34446560291580675
Ni 4.668371884461231 8.382602436909973 12.820638465417076 0.0639001410880706 -0.12143063120437153 -0.883678129231633
Ni 8.217352730400062 8.490481940843491 2.351775052662555 -0.08042950620166149 -0.318151133390994 0.18267045185145958
Ni 6.063561817438909 6.947768629812226 11.212038099738036 0.5526737940270545 3.3499036785758305 0.33524408431753877
Ni 8.939828965188184 2.063973781625314 10.190962375503892 -1.0136013712880478 0.07621289701715261 -1.2877120786293759
Ni 3.742756966225747 0.8642383227294136 0.48577420926726395 0.9022522926893947 0.5451371193303772 0.6480774050400452
Ni 1.293545914778141 6.324789464542783 9.96406257089509 0.8541724064630322 0.1968266887471836 -2.2181560032616376
Ni 5.205389091460902 3.6522490774882392 3.9562896816563216 -2.524418612745162 0.10550753221621183 1.7833433779201415
Ni 1.6885097955806803 0.16505368076078894 0.13299973695553652 -2.8445554091076173 0.6678016229418499 -0.42924695832826076
Ni 1.5827772403280247 4.018033125350035 9.9715768912781 -0.5991829933321874 -0.5839954869584717 0.7223786868567817
Ni 5.430865375748701 2.0159848113283334 1.9711910607420422 -0.7687924982346308 -1.2003753037849199 -0.007096244725149069
Ni 7.076221502844079 2.2798821424440594 4.701842814395851 0.5542082283937101 0.8141418729037074 0.018621214645613088
Ni 7.178854984348709 3.0721062056817106 0.48610651958482326 1.1595297305234675 0.3687321887726553 -0.9410065306394568
P 6.177882167415009 6.325844269764248 2.126023398870037 -0.1264234564332726 -0.38693431360297875 0.6635801286613346
P 6.687362423942769 6.3821970053571055 5.57301858173229 0.23868039155817605 -1.4673164899610018 1.3530065289618118
P 8.175319209052601 7.706640312020678 12.011965974916183 -1.653434791151746 -1.4169848315859854 0.7758864289669347
P 0.5463349642746074 7.107305585919151 2.4766873272828835 0.0974628075348644 -0.8477497907661399 0.9611248986558868
P 0.3365472741082122 0.26365929984893477 8.99282592664726 1.8203536365959037 0.023839525621758943 0.8399729750341984
P 2.5164572179559603 6.1314333994325585 7.74181759942861 1.3098832154097764 -0.2504578438090783 0.5042444948810735
P 3.4757138885645853 1.379321181858273 2.7003900452691014 -0.8555728863549845 -0.7347302664435992 -0.19159063715922486
P 4.3880270595382145 9.084075912863586 5.650659713679803 0.3759575028765009 -2.105512374221277 -1.5591866338994373
