# total energy = -340896.4126556875 ev
CRYSTAL
PRIMVEC
9.02284863066826 0.00000000000000 0.00000000000000

0.00000000000000 9.02284863066826 0.00000000000000

0.00000000000000 0.00000000000000 13.20585101450608

PRIMCOORD
 96 1
Ni 6.269111372168984 2.0989401801814758 11.408759686761291 0.0804063662732099 0.19438619762649104 0.004834702384481996
Ni 4.803268394277088 0.2980138653333817 6.0308477132501315 -1.3957431485983895 -0.5585163688507607 -0.6705971834091161
Ni 2.9100040503438094 1.6495932917850535 4.877118606364135 -0.3482147855455939 -1.2386248341844217 0.3117819966398566
Ni 3.397129606271321 4.369260348680488 4.883114289329125 0.5123784368421176 0.04703370435003512 -0.1744390650806028
Ni 5.0800081869319875 4.4306066970310685 2.621136646743474 0.2813481056300316 1.2630672834975023 0.4665312966010159
Ni 7.143966782681165 5.989827136179056 2.5452824599588735 0.04314619637017085 0.18546009878145478 -0.29504282950830474
Ni 4.927765660719405 4.539918509101562 11.26988631547606 0.7135189224733067 0.033978928048606 -0.3584369774942343
Ni 5.561945604853678 7.914509039305852 12.406910520268179 -0.17403720165649383 -0.3080410415401856 0.698153752871146
Ni 1.7756785795995875 6.375996037937624 0.3931543912265813 0.7583841584171133 0.7121927474627154 -0.2588923477296767
Ni 2.750056011336493 1.473918427483567 0.5931855333244436 0.4874986428813024 0.6845580164645824 -0.9459841863597064
Ni 0.5595871515987402 9.1402359674396 4.788719050739022 -0.04780477818810477 -0.20526273532967873 0.1077958140297563
Ni 8.59466039759606 2.1568849145699787 1.379601687677205 1.096733364022537 0.7410952894296784 -0.4079533390568071
Ni 6.900737850119523 0.6876087427455339 4.878980922337008 0.008221102358211649 -0.28318541594908647 -0.7868311009038965
Ni 0.6062443022563152 7.27494245449423 2.379972141965714 1.430372565746801 -1.3110726077321873 0.4663955423541
Ni 7.730262468733877 3.917847227930443 3.735420565942423 -0.9499578262954735 -1.4968682354761897 -0.013067374706919429
Ni 7.62161834746761 3.713705275962228 12.695920484878066 0.42843371839834604 -0.02721358430031442 -0.4968566870574345
Ni 7.725877364262869 8.849014502611926 7.126207109573583 1.129438824675358 0.20219412370668405 -0.28852893964918697
Ni 6.79933005351529 0.651545318753412 0.45544452955178644 0.4674504659811756 0.3187805394448768 -1.2023859064570452
Ni 1.9237705954075126 6.621155860122302 9.104496463716016 -0.6784714439508702 -0.23712358859401744 -0.17062483354083519
Ni 9.004812031214586 4.844791544021076 1.3006571752108758 0.13355852481615707 -1.0130200448632811 0.6510354592271046
Ni 6.2644555822368035 2.024456564115283 6.779884009984598 0.46060027582856156 0.5890250789625792 1.1469236117236827
Ni 3.432039007913974 4.390888117028236 0.31330398475019217 -0.06480516940084323 -0.01827103039504595 0.3969101938687681
Ni 5.8205945858534935 5.631583951164869 4.809570854098074 1.321949145435375 -0.026325782378722403 -0.44212432851156114
Ni 5.088318230590009 2.907125761606666 9.332601297277034 0.9010173918410289 -0.3477920961858784 -0.4872687862586834
P 0.19586529285040483 5.423778722622108 12.41912565284606 -0.2614796488408787 1.0520560757198203 -1.4006531843054975
P 4.0962379696923685 6.237684790126761 12.322023559644226 -0.33160134535862895 -0.3488251654360831 1.79494111006007
P 2.3157141203377787 8.426483520569075 1.4732444206852453 0.5116718976933962 -0.31604334301937187 -0.17474271236395067
P 6.332172061773663 7.696390694692388 5.8231597817405465 0.5215217939042824 -0.643808345351046 -0.5247230744503996
P 4.653931225347765 1.0912774595689576 12.553165484079607 0.107747220180008 0.038717471174855904 1.8767196740904581
P 3.9455563963058853 6.169607396641672 8.074043831842443 0.68758857576079 0.6177707836367038 0.1401590608518102
P 4.695815289039985 1.0882638281012278 3.777295606785936 0.8923077798821729 -0.4716043402485491 -0.5110705166639714
P 0.24133774347291137 5.288616449009562 3.449183322739822 0.824303901038374 2.3206422321530225 0.5387129609715883
Ni 1.666393836075211 1.1727357376847163 2.6724288347812073 -1.3756263232438566 -0.21225485037679573 0.5077674204326674
Ni 1.4884181453537513 6.643243793754046 4.795348137683157 1.7971193486583112 -0.5525359828976096 -1.2440570609435864
Ni 6.081742895944811 5.7214154328795885 9.196937353276446 -0.552120749737062 0.02040067514353906 -0.45401465219124393
Ni 8.561979639583734 2.2353746754615362 10.193266473629636 0.9960435649099425 1.5239280678074592 -0.10609065841319147
Ni 2.3601516502137323 5.246542905494523 6.885306071978031 -0.478402337006989 -0.38520421828574947 0.09086612815395319
Ni 0.6323880063813053 0.011874971181673681 9.220655715669324 -0.04135182347390943 0.6018687676944667 -0.35731494807464914
Ni 1.364218632918725 1.0693429143652127 11.642845766729367 -0.0635322162256906 0.5494095214534861 -1.0230167510646768
Ni 4.21805545006907 6.723141119043706 1.4637758432534027 -0.549129528319222 0.6703986942450648 0.25107799389158053
Ni 5.721234975905473 7.95186363294777 7.998770716514495 -1.0291565454138274 -0.410258590151216 0.7851143753231059
Ni 5.421071868010375 2.957364983200435 4.678330812817929 -0.1862694820566276 0.12992684160084075 0.05644239925844473
Ni 0.6805492659181335 7.350680246530525 6.879112788626386 0.01038648544064663 1.009352880424339 0.6252094993029361
Ni 5.153679746614661 4.56733894631842 7.124688564136401 -0.09568437547820295 -0.02377267693956551 -0.2487637439361071
Ni 8.100190242822046 7.308209697672432 9.1103604130899 -0.32453389698888624 -0.4991457402019274 0.5131993900815162
Ni 4.5720578961915415 0.4253948342220652 10.527387974913799 0.10966217781453373 -0.9304878904963201 -1.309660557876009
Ni 8.225770251109056 7.193502222075883 4.517087995021334 -1.3928668554918593 -0.2870695814948411 0.496681337821835
Ni 7.500838494692074 6.101710460130696 7.047658700165437 -1.0966973685782788 0.20727770887717853 -0.5047890545306338
Ni 2.3519047664966517 5.162955235084199 2.6294304492738245 -0.3148824899420512 0.3819368603883874 -0.3817687102416393
Ni 2.4238980763200497 5.325907882710541 11.377130992908059 -1.2952544097530079 -0.24594632909196998 -0.5183791345102428
Ni 1.2578663152237264 3.3236745949575877 3.955653866292521 -0.9616324344199244 -0.24216423634171844 -0.6862585440954568
Ni 3.51944334332684 2.8432530156184677 2.822539261844615 -0.03543031578315189 -0.9247270767531428 -0.29034799513579673
Ni 1.1163068418787843 3.32405355460323 8.193913279183567 -0.45910492222995763 0.08808033787869991 -0.4704110912713963
Ni 3.6822877167687116 2.6305844716232936 7.127158117827172 -0.27519596998570667 0.4898566015905176 -0.3471248949155248
Ni 4.140467974048089 6.799772173101872 5.912866748143127 -0.9665954348521547 1.081329884983273 0.337355988454219
Ni 0.7723775040514422 7.411503269656172 11.212018275301554 0.45416017663017266 -0.8086494823305687 0.6781114895082901
P 9.444486425798413 5.454636865195867 7.854523336540103 -0.6974014480861537 0.45976363885987914 1.1303394821127566
P 8.583300631075486 1.687281730829086 7.971408025529355 -0.4096937187866815 -0.6357895888116275 -0.0069388932116783725
P 1.6697503357937604 3.3631585808940696 10.360359706527058 0.701490787664179 -0.8094184992861093 0.6659949087504142
P 4.006785447623291 6.1914607362070635 3.7034093033040656 -0.09748106236730952 -0.30266126528551096 -0.23698963411931445
P 6.950625180613766 3.972092594349577 10.262993243858142 -0.740400320245183 -0.6060578660751498 0.15315650155274269
P 6.264365353749745 7.648425230972475 10.394999324993409 -0.09553036639884192 -0.23511555702505316 -2.194394639175982
P 2.35101150447478 8.407896452235173 5.723045861640722 1.1252754373262879 0.6429668232863571 0.8035023909119904
P 6.891453338801277 3.889984671127002 1.5616187123339826 0.5858965606359263 -0.46978682742383615 0.3697840270759373
Ni 5.12058393756187 2.805311936810674 0.7936136807653601 -0.12043252895716033 -0.8869462584599435 -1.0818585037932336
Ni 1.503883308035454 1.0204751657747222 7.032195342053476 -0.4236856621903993 1.0179979576938467 -0.38799617920858986
Ni 6.89676779668898 0.9076173741628579 9.24537651655341 -1.073771355909725 -0.8534388707311172 -0.3845323890297055
Ni 2.747953687588047 1.6746497426409974 9.263204763311158 -0.156652173410827 -0.5909246099781371 0.21914103597366774
Ni 6.540013381711247 1.8806774699887197 2.5753655398288062 -0.6751266958483534 0.07944528791152124 0.8936010447722997
Ni 4.049977824377848 6.8679578407714335 10.2030779193123 0.6768462496426214 1.0798548430996435 0.08845931848467346
Ni 8.192521053628266 7.120967541330138 0.28863371181885555 -0.7380274491376322 -0.5054819668326005 -0.1356891980059147
Ni 7.4967601670770625 3.7646482797550482 8.085400891508407 0.838852231166194 -0.256147695105004 0.5158975057389696
Ni 3.1177641646430403 8.370713292718664 12.57982800200518 0.004475262162534228 -0.5760034698919306 -0.4852029048685901
Ni 9.095211952397769 4.986702908465544 10.049877166567162 0.16529442246685727 -0.2857264372033853 -0.038526181099656234
Ni 8.492747321464304 2.328914547994331 5.746076682962219 0.9342172756317653 0.40545499811498553 0.2746470394607722
Ni 3.6240632740703296 2.644479658630191 11.438472829834286 -1.106670677740907 0.03350893039072293 0.2242225642616332
Ni 1.2853769809276419 3.5073978403046278 12.623909129357255 -0.44992556972353476 -0.8091994412967676 -0.020400160922906804
Ni 3.062147325220628 8.46965785162622 7.944164436147131 0.9398222805233685 -0.4727183992483343 0.060100564836322305
Ni 5.78451221387909 7.964639986715151 3.5495877785679726 -0.7939296596218907 -0.45039993825679203 0.49308179339603464
Ni 3.124477164080139 8.296365019383058 3.517417713792393 0.49514998877897304 -0.19261804998247473 0.5624115901401089
Ni 3.277261061215068 4.391185871035527 9.187125907593783 0.008958494744868442 -0.09121476974262355 -0.05414511858383578
Ni 7.176286626745259 5.780442909112785 11.393559795831537 0.5648258560085563 1.2155180729636292 0.7417537489492838
Ni 0.5505498663350334 8.994498915143883 0.3826148016533627 -0.2327311159532766 0.363347013201342 0.07808954521457519
Ni 4.8060835230732915 0.20499009974655752 1.6268945112959294 -1.6046113418911396 0.5166577809437618 0.03924249044039048
Ni 5.824799233350387 5.307735865417104 0.29742377102802386 0.27166327424209985 0.96134781329997 -0.21470074081412702
Ni 7.823937683997258 8.555113251718637 11.455072164598306 0.23104781471358277 1.31809223358313 0.26616471302137384
Ni 0.03420020573437879 4.893614178368038 5.664200646951383 0.37312671829592514 -0.8090536597475226 0.14965902992244548
Ni 8.007525586613712 8.714601125441959 2.5105381764475365 -1.0190989040675096 0.8778365828491913 -0.11292259373336037
P 8.504477024781815 1.4929837067988747 3.569607675276351 0.2752813306106614 1.4450571643421695 0.008728638122249483
P 1.7463543213058108 3.224793195990973 1.6228937801797876 0.12721998419263894 -0.36332335905225815 -0.6876698226206865
P 4.8136897845322615 1.0412096721005986 8.11606504283499 -0.26147064997981423 -0.224890022642303 1.0851824259601441
P 8.253587693668967 1.6117785328591403 12.254396406309551 1.036394972143796 -0.9007132303370488 1.3585662824377764
P 6.3440731992165835 7.672696693991016 1.355092021452831 0.15052060659179237 -0.5159247594324792 0.1349482060748321
P 1.8033155651853838 3.1885574355885704 6.000778167653257 0.1559985989872281 -0.07745319718215693 0.9513865883222004
P 6.968752083663672 4.060715014337723 5.933389217524417 -0.4173900589896747 -0.10971514253965621 -0.2579947756160718
P 2.4505245028507994 8.565633893309576 10.317942392476327 0.03028553835741881 0.2329632865687407 -0.3585994712140276
