# total energy = -340867.62632536003 ev
CRYSTAL
PRIMVEC
9.33840841687607 0.00000000000000 0.00000000000000

0.00000000000000 9.33840841687607 0.00000000000000

0.00000000000000 0.00000000000000 13.66770465888621

PRIMCOORD
 96 1
Ni 1.0605816947093678 6.0833192458046295 3.4760935778904587 -0.03480219528084974 -0.15039873630194742 -0.777988305801286
Ni 6.928996152887235 4.399006591413051 7.101452272255353 0.7091195078540304 0.19971558025920444 -0.237226689830785
Ni 1.2932574731175899 8.376178608164992 2.6804285158578307 0.14932324384958154 0.25875196549707047 -0.40244860718849407
Ni 6.713353631013634 1.5142322260664485 11.320084707997818 -1.3714827333891282 0.5432144483863677 -0.34921931555070823
Ni 4.961692376771352 0.791574839246354 12.843924288407916 -0.09528714003978428 -2.1323554625560504 0.5825726384690161
Ni 4.834381857946529 7.565221902724777 13.011886765756044 -2.3437857601490215 2.7124552140045415 -0.534223300631351
Ni 1.972682699232079 6.751585074134651 13.400200190386084 0.1537414275219352 0.750669820491991 0.6244633651655309
Ni 8.921130756374586 7.721238688319019 9.511108973502667 -0.5106169740663206 0.7709627664130723 -1.2836222248307183
Ni 7.0643750563863525 6.943302594231006 7.734212538814386 0.8883122855695346 0.7416915282527807 -0.5576743325654395
Ni 0.7724600515266643 7.64865124147494 11.530977715467083 1.1975200937243118 -0.060905834346437045 0.4545977783882235
Ni 4.954156281363765 0.9970244885829286 8.689529828748784 -0.8927618367004561 0.8994045388279542 -0.023160240166547212
Ni 0.691609047277164 5.6551812456167285 5.783052068932823 1.5333964123092108 1.4890862775379259 -1.1783761738060092
Ni 3.6097336697849993 3.001383068388161 7.144984195863787 0.606730209551826 1.8126112736463234 2.1057964811205996
Ni 1.480707340672103 3.280498750714512 11.235864406074144 -0.615823687212662 0.2763858765287498 -1.7785395287735952
Ni 0.2129857447441615 2.5846192493730484 13.15688796505191 -0.3664624189018721 0.23964301258176146 -0.18427173490030846
Ni 6.196024494223671 6.013776120029785 13.057523566570017 2.8214021109196055 -2.9083226241622495 -0.6818133638399098
Ni 4.337027576270357 2.926264912925176 13.471518547557435 -0.34187624492207574 1.5432727908826582 0.032275572204254095
Ni 2.5525231404314424 1.1836338994005358 6.746447081949701 -1.233129101177173 0.5460529462764273 1.0355292817093908
Ni 6.6775875276542065 6.559307249547024 1.6639334462032558 -0.8376183587590929 -0.23366262662861048 0.2626253324095477
Ni 2.6116912947095963 8.367269766753793 6.854258070637495 -0.22205872384109498 -2.9126395063700485 0.6660607289913433
Ni 1.8348291175631846 4.384037123087944 13.304580493587514 0.9020162654191884 -0.10334831978136394 0.8485118657431452
Ni 8.485260554207152 7.97000454403489 0.7440862320887311 0.6359572247377435 0.07837853720990372 0.3069462658141101
Ni 5.6339923974385195 0.6025309054141769 4.361528757832793 -1.3830249297007728 0.6536014201820679 -2.2727623777526085
Ni 9.217690585195822 8.941834007327026 6.948004482753584 0.031604514279158474 0.18666954570852368 1.0344442761753283
P 3.8279069002775064 5.023774114404113 1.0534714307151463 -0.39341657889321274 -1.199523754417902 -0.8470975018941218
P 6.7955502998830015 0.6672031174782441 7.596291720606539 1.4542074633828697 -0.36352441931947066 -0.15753586156736096
P 2.93640642421717 4.783991807364944 5.063816274872752 -1.268807528415389 -0.804005555800654 -0.6015548359984737
P 0.46352403033408407 6.017660897835928 1.3820918825268744 1.1117583766764594 0.8312224825350782 -0.04458652836112321
P 3.493442472621828 8.88768991665393 2.614535773843613 0.5057928132047999 0.18001321673427062 2.880952459679413
P 4.5299497510229445 0.2152017490071359 6.308452391919534 -0.6487512911786183 -0.33897064123950654 -0.10203808561037266
P 5.558603428138087 3.725707361069785 11.627553665264088 0.023363614426604926 0.3878930779718223 -0.16273231816663586
P 0.8689696986255346 9.18306376763531 13.343136913313469 1.598165586265796 -0.4579250429892436 -0.4304265804586587
Ni 1.1303676190970964 0.7828172800477976 10.958519285940207 -1.2837762339100796 -0.34679322260771883 -0.7913413300694242
Ni 8.276425731902485 5.071110505508274 2.4742644782948866 -1.6984113558624363 -0.46784410187516845 0.9965277036352128
Ni 8.285306558089122 7.629395443791614 3.2566316470680303 -0.6952165246196931 0.16911508176452808 0.3805538639979317
Ni 8.303311009075276 2.1953663808793125 6.302164841686662 0.4314362526700956 0.15687225984143305 0.35739568071391353
Ni 7.631804753104076 5.719681630970139 5.017318472823859 0.03938441533489346 1.0057101414654293 -0.022640105997019072
Ni 1.288653637880985 6.3707087577854065 8.763882234740365 -0.9546287494085817 -0.3797293112141073 -0.45354439742304475
Ni 0.5187205596099501 3.7503140666447434 4.210554712659983 0.1376614912409371 -0.5079476547642735 0.30857300278425565
Ni 3.1009491764869117 5.788150839803382 7.289123460083917 0.9664496533029098 0.06241790011558927 -0.6744749211969674
Ni 5.93170085046686 4.190806780865158 1.2262217099411803 -0.6491917211501465 0.5774062637767281 0.6907847141005844
Ni 6.898945155338766 8.814607534175893 5.708357877201564 1.9632396094605735 -0.9914068374688796 1.69963442963626
Ni 7.9090807690174225 3.9953072054527268 11.926698365471719 -1.5681173607301637 -0.46351539259282754 -0.8373373371835643
Ni 5.366204204244019 6.465045357298967 10.644053059418788 -0.763800444336678 0.9504599627428728 -0.3740116920040398
Ni 3.959569117317863 5.561909224636582 12.300592354018914 -0.29360841105462343 -1.7736654885107455 0.6654534344246475
Ni 1.7568253939701568 1.6835655817365518 3.0333559103416876 -1.096137125199435 -0.7232472055046641 1.1850425300825913
Ni 2.699406962817978 0.10755511630344754 4.567473342803323 0.8092698895233869 -0.7267539331063418 0.2558461047041852
Ni 8.787647549737601 5.619219035685357 13.198301003842523 0.605214544238248 0.8395238033119219 0.8028400747376432
Ni 4.721732639976615 3.822191794466548 9.45714978331169 1.9742986954882125 2.451735840368455 0.16391579695177577
Ni 0.5776235030955699 2.278739689180348 8.539308459275913 0.7432113073314167 -2.425862829256435 1.204264611536997
Ni 3.161275293380358 9.009350698525111 0.6527369893544612 -2.0359146685277967 2.436470686679268 -3.029863812802556
Ni 4.238740830093341 1.9094803526167776 11.027869106665563 0.13633505912002972 0.36494058294070697 -1.1086689391178586
Ni 8.705357496786354 4.0049257658862025 9.44963236472048 1.484901550032617 0.4076890296518269 -0.36859386342257805
Ni 3.8600403628518642 7.090914812456194 1.4143336706362108 0.06440073487357295 -1.7342347933189488 1.2727459442378468
Ni 0.5706775950854545 3.6231996543918648 1.7778947105235616 0.8150821253297897 -0.5001101609977258 -1.5276759648856657
Ni 2.5573137438318043 1.6632171902952486 12.58408774978536 -0.672222634827681 -0.4135100072089782 2.5926955427446896
P 8.351870731652044 6.491781219940752 11.211836681806831 -1.4680561963405039 -1.51274016951144 -0.31248827867826184
P 6.701017593797497 8.421432534243266 13.19534819917353 0.5448897792062616 0.4732495891614559 0.9127480500143957
P 7.331416176925825 0.4540436783417888 2.4416398154498484 0.7408150391850984 -0.3330517046519103 0.5365239237400695
P 9.326529732625096 5.05712157004289 7.542550115326339 -2.0859190254703814 -0.2757860381612218 2.7532637633804713
P 8.597685650380559 2.2729031840629483 10.733029412632527 1.5574053736292983 -0.1512348590499976 0.3227431236370506
P 1.459098264125441 0.12251244469791091 8.729494480429464 -1.5082265979118024 -0.23061998314754478 -0.8442080961614686
P 1.3166221704035657 1.807252798184493 5.127808650820745 -1.191500112782477 0.31646911770288083 0.8026372146982177
P 2.0705585554488306 5.453658396923141 11.25394636584826 -0.4257147768052862 0.3696850396042278 -0.4293330902841638
Ni 7.9908105174773985 2.499415613067196 2.7919561910043855 0.04282969357101656 -0.11440072094078362 -0.07050144845467214
Ni 6.712335744521159 2.721585682264098 8.727212173468356 0.5334429708219006 -0.51673028605291 0.04995190643809462
Ni 3.6992423122654463 2.4451127694549064 4.834294076909563 -0.3674574358252897 0.13683179625079014 -0.7148726082877237
Ni 6.176581928376589 1.7607008333681105 0.7770265331305181 1.5504605668803493 -0.33655868936390426 1.3374084174132386
Ni 7.068782785051013 8.307373216636988 11.04435233095792 -0.4419510361584904 -0.03700383091785885 0.021387464536840588
Ni 3.1635818802027544 8.776646904892324 11.829316511048102 -0.3141767221242783 -0.21403096844061206 -1.0798671843948178
Ni 5.052685826153666 7.404181053525475 5.961716362064215 -0.39558658996133805 -0.9887380323874648 -0.6193299005937076
Ni 2.847598162350811 6.857361223678315 4.857379555790723 0.21314342362933617 0.771656192935671 -0.34051304602596194
Ni 1.1174526005733136 3.4782395440920246 6.743536300117551 1.4688077297945479 -0.678804658920573 -1.6611519572903457
Ni 5.9231935606077375 3.220901029659717 3.7704822268080216 -1.5054487780563495 -0.34153403109130853 -0.33122750695897796
Ni 8.267815719553298 0.5982109577864819 12.814621297355293 -0.3812210652682854 -0.2907789120256282 -0.3277760580752678
Ni 2.709585827742724 3.9740529884172027 2.8037926233824724 0.32256366063639286 0.306324315959395 0.4228623949581556
Ni 4.8735378034781425 4.295994610692988 5.73488642718158 1.1815481437760877 1.807669356260016 -0.008758720029236527
Ni 4.2697069916442185 1.6762349313090974 2.476492622488505 -0.03027448261382528 -0.20414944766084195 -0.5644440471891053
Ni 7.9867763251402515 0.6809912771675899 9.365356966188498 1.136542525599675 -0.7307571407284641 -0.22327331297448644
Ni 5.658365642808782 8.639250905224634 1.663059371196874 -0.18614555488425358 1.7525418191582527 0.1769165800868179
Ni 4.7802937977225595 7.989512478739289 8.334402305295871 0.4422626538616383 -0.8509073625585152 -0.3179007079430848
Ni 2.721137438671082 7.90018126601441 9.365152455049184 0.6666662237858261 0.8124102349245814 1.2965209351702576
Ni 7.019354590512775 5.351430842490855 9.567639027467756 -0.7037618430865428 0.6978719599646691 0.17729941734753338
Ni 4.666085065585276 5.364579321219335 3.08579854304296 0.308531608023359 0.5161975534778916 0.8918143851855221
Ni 5.883253188788345 2.094222081796817 6.223151636168528 -0.3646413065327333 0.38507720578958193 0.045095863897373946
Ni 2.079065845307953 4.221576835844091 8.952127734672482 -1.9430340810469762 3.095864030952765 -0.23269872005344439
Ni 0.06033545530163443 1.1108036539435715 1.4294366781984047 -0.18628336601369852 -1.4821854366530345 -0.2203833930212011
Ni 8.888707803146405 0.40371806277670014 4.636440288792977 0.5820167659655461 0.5290093605305793 -1.4172972206200816
P 5.270700303706978 5.8176415328605815 7.8433757290077795 -0.28145326374932816 -0.8726802354592325 0.2855523735193663
P 6.088922290717334 6.9267362581057785 3.856151849682447 0.2132753212215101 0.02064287306133219 -0.04488194811435496
P 4.973066557944141 8.731813207182505 10.412330732486545 -0.8153528624926731 0.41516451209326566 0.3995319477623313
P 3.068582253707858 2.6705979735584915 9.392241309520472 0.16764003988089837 -4.656588698763283 0.23504099503337586
P 2.4802905530984996 2.2410498737342257 1.2417290705779076 0.3477108493259818 1.2817016107692376 -2.950854841097505
P 7.721210673094456 3.3445042004339673 0.6321327255288108 2.1109044917711257 0.005223710292784551 -0.641962807501875
P 0.06132252504708912 7.666954521523106 5.1571396570979315 0.14545244804026564 -0.16969229442423678 -0.15857021636914628
P 7.71911886966038 3.607333698880725 4.7073626974571665 0.09673055735453019 -0.10844990267398742 1.2293971449385668
