# total energy = -340864.07925766247 ev
CRYSTAL
PRIMVEC
9.36819196375630 0.00000000000000 0.00000000000000

0.00000000000000 9.36819196375630 0.00000000000000

0.00000000000000 0.00000000000000 13.71129589031570

PRIMCOORD
 96 1
Ni 0.8741946978621753 2.318402650887955 9.196919774457427 0.8130447831847868 0.13240795615148165 -2.0406205586438984
Ni 6.514162847679325 3.9591290383809428 4.687604322183708 0.10729830556804747 1.0327596893840536 1.245643945814732
Ni 3.557364761901685 6.947975708541261 0.4821386786164074 0.7823234428415301 1.2504290259082014 0.27383071420706384
Ni 5.724105754627939 6.110103364192246 10.6475618016586 1.6318976884109184 -0.41092244898746005 0.5754920774731508
Ni 4.61704778512491 4.208032528139311 1.643312945267924 -0.07598329750484978 0.5619781021471161 -0.7148065309364786
Ni 6.535775266320319 8.79311604260836 3.486603998260152 -0.09866325560086879 0.1055566402865924 -0.9738359184646517
Ni 0.4422386126286071 2.0815934968320233 6.109149682260017 -1.1939120646580792 -0.6174337120122593 0.6833663101493263
Ni 5.426141044053409 3.4013000535617146 13.006603668872792 0.4233557896548063 0.707241316994711 0.2679102349575709
Ni 6.019194430298791 8.70964545305862 0.7869983784062692 0.11230321498180659 -1.0454935920109543 -0.8956093334515801
Ni 3.683554306372505 0.26747311968042226 13.519598361046999 0.5436757042935023 0.13073391088316838 -1.0463001470726496
Ni 5.465019040308339 1.326114399967853 1.7888852787149976 0.5813781039402826 1.3206034300407579 0.5526593958493514
Ni 2.6235152918582703 3.829173480778922 9.88085305320147 0.43158820486692767 0.14529689629900783 0.2738011465207091
Ni 8.120264398025753 6.700983329924099 2.613263679496398 1.3516672413250979 2.0055365704565715 0.8828862294579569
Ni 9.101460709773363 8.746930856695878 10.90972128291112 1.67654078104159 1.7518609910411442 2.3354363597430616
Ni 1.4687076484006936 2.037469313130645 11.36449734671755 -0.2416865253743515 0.4446800050538793 -0.09878692566292664
Ni 1.3902303051169471 3.4874780505614975 4.384076779277568 0.007667800957902924 -1.8800927043277489 -0.812565272445207
Ni 0.6775170041331999 4.772868920476296 8.600094754165724 -0.508710243961911 1.9881266025102406 1.2313663528497953
Ni 1.84472813362488 3.847366509387855 6.967971177265724 1.873046596114245 -0.4746318142209632 -0.8446891495629454
Ni 0.5148130582159121 1.5505950135246311 13.641615312859518 0.47919372256003273 1.0172556802111834 -0.6757453032689589
Ni 5.764126670290845 1.874453406424131 4.660277306502832 -0.5590884393041468 -1.8114020838295706 -1.4043499164307942
Ni 2.8600434001581423 6.343652387477884 7.830137116768543 -2.3069580497977107 -2.2813506336422518 -3.5288565723663874
Ni 8.754434778382674 4.805001818585792 4.258796886237194 -0.7316886514037979 0.73155701092194 0.6790144609385338
Ni 5.680946494689032 7.883586398655983 8.03874051874632 -0.7712934102796136 1.4433594649247723 0.40123530360668314
Ni 9.255230211105513 0.1256920934825947 8.723524429312038 1.3297475584338712 -0.03733061812965829 -0.8044061336731825
P 4.819147788307465 7.950643916051836 2.4170412798922394 -1.5631206788465208 -0.15374914083141908 0.5604187280797961
P 8.4343049258469 1.6917642967934354 10.054287326085118 -0.5181595623002689 -0.8385948637397492 -0.10228979660986254
P 1.3606268188119885 3.541532517643653 0.6543766333984282 0.6275813419692224 -0.8791537589987181 -0.9506949615718143
P 7.337833013155455 4.621572621797472 12.792021486844439 -1.5850321342076314 -1.0420789099024503 -1.1680015154399046
P 5.420651283618375 8.316537385866003 10.505224304863775 0.585883448009804 -0.5050523354943496 -0.9149527709751984
P 6.802796839152672 6.590054570007322 5.016099033239005 2.120276162794013 -0.7485175500356787 -0.10535095203368952
P 3.097386541150587 2.074155152488309 3.6574058092287074 0.36414405518134063 0.06620436374121501 -0.0006818565583730193
P 2.4700549408577874 7.374696848158623 5.955967566558032 0.13440801730064597 0.4041594192320136 -0.6775682154103104
Ni 8.818250901391972 5.568959129091097 0.1121766030736821 1.1579477307483284 1.2701856397098383 -0.9045804266019388
Ni 3.1391312041173265 3.0322401348959414 12.743401507865292 -0.5227338119345126 -2.1463317222304843 -0.18824974571145
Ni 8.325109281425824 2.3928610398600467 3.7798199723764587 -0.23570125432519407 0.011722687753566908 -0.40707762132007314
Ni 1.4206862968819538 0.8098642611192892 4.3961430104043995 0.18345258143312276 -0.5264603688564804 -1.3073704762902516
Ni 3.4182471126521166 6.129083320918147 2.6209549650205664 -0.34215623805633977 -0.3649495818017715 -0.24680147800341365
Ni 3.030628805894532 1.5831963212275604 6.046791249905483 0.7481989903539954 0.26154418353022696 -0.38577037520186463
Ni 8.191706229216138 3.366544061728994 8.040056749703865 0.6535726238266615 -1.6767940347029768 0.2721690102339248
Ni 0.7872325832029856 1.9590294426143735 2.2029115815311417 1.1690250716084125 0.21878210997235223 0.7549329666437192
Ni 2.7806479740712677 9.162766157361862 1.8656960206653097 0.19968858367601094 -0.6391438499958412 1.371538269217412
Ni 4.067434704574495 7.39907288340087 11.99891973143574 -0.5556210495808367 -0.12037905001140559 -0.5556984397859914
Ni 6.137889421274685 3.518205719890695 8.930907155889328 -1.2339981340456876 -0.39317900896110997 1.4330747951693126
Ni 7.141016670186823 5.055488532769964 6.6258738516171345 -0.23197906827860051 0.4074743425378596 0.3611250658493587
Ni 8.692511030130845 8.489755253517485 4.562612032633701 -0.6599654147268829 -0.3229482976693212 -1.399416483684919
Ni 7.14264673557197 5.090310101945764 1.6095415504005997 -3.001587848675998 -1.1800779869884643 -0.6289458264169169
Ni 7.117895972654976 2.3750052661583854 11.519407893819304 -0.6296744770528252 0.14262603433506404 0.9681913185843647
Ni 2.0874486167499344 8.29310753800249 10.300364432356714 -0.9393250291719758 -0.5253026011029535 -0.9500269889705121
Ni 1.4304104800416204 4.493640593639081 12.129999472061998 -0.7009436569114573 0.38127197311087885 1.1671113995254674
Ni 4.257327953752188 -0.23061303195400132 4.537835975598662 -2.2049189357460737 0.8644169670091758 -1.475880320370613
Ni 1.953464736644391 7.44417135905659 3.7223976403175207 -1.1568460130437173 2.7532758475653294 0.46597362432533296
Ni 5.980981575666535 1.027184765630852 9.567220978545798 0.45827394168823005 -0.7164309539137791 -0.5636092099926358
Ni 1.4634427245705077 6.329665677017978 0.9501529343524394 -0.369787369510047 -0.5702148882346114 0.6402576518853103
Ni 3.207968677968224 8.668434777028395 8.0770086457106 -0.9849726518077616 0.4740327471843836 -0.04243477212544304
Ni 4.550720986694813 6.500054350725126 5.6578154921461286 -1.6335285391461223 -1.00426029639278 1.4261999224263504
Ni 3.391603974977654 2.0229205111586195 8.564074993249921 0.7801770859224886 -0.5858011727086426 -0.857998979297974
P 7.813793369234482 1.0301544824532165 5.347542851094557 -0.35240928324291565 -0.35184158366490376 0.1095423644072178
P 4.338372181607947 4.160854313888751 7.590628049816064 -1.7350912277819732 -1.6279816411859642 -1.532815085884444
P 7.898097727860534 7.657194673957999 0.35948281611844474 0.46649015895043533 -0.8217765066308299 0.4034788482252213
P 6.240096394561741 3.41333818011294 2.7522408058679364 0.3814604349726011 -1.2256641602586955 -1.392946816800175
P 4.666895934058038 2.5698823934102046 10.283170053000978 -0.6210273429007885 0.34811296986040696 1.6077599148224502
P 0.95398171436916 5.690614468697487 2.9455019200224126 0.5440937656675275 0.2763933327279175 1.0788084041130002
P 9.09569927177414 4.209456493303347 6.337347594350278 1.5260453712607782 0.23212459271752925 -0.7395163749783329
P 1.7046361924209714 0.19277958909242682 12.294439343932549 0.6087557246222871 -1.746465531057186 0.3634796821244643
Ni 1.3159499117903597 7.199080723388764 12.213405421087845 0.31071678860013585 -0.09565197957837074 1.3296292876884521
Ni 3.75101465601871 0.31318802236109855 11.043434422271659 0.846694095808116 1.7877795593146242 -0.2205327741148718
Ni 5.951631030542031 2.2814826067335745 6.917458823529108 -0.5576159685236783 0.17742463007148798 0.44539245773987163
Ni 0.658797483141248 8.593967019864435 0.5856244100935357 -0.10647400989453923 -0.4076278373965883 -0.7216528644343507
Ni 8.984489466101303 3.840153001648989 10.638470908269255 -0.7028197908882476 0.12339418268864555 0.3455542079942952
Ni 5.466208800675658 5.668692899724828 8.310196993609296 1.1956578437045926 0.7236444409430828 -0.06469589751648858
Ni 5.414646272630566 5.8137780871947315 3.6563500140051097 0.561218341162956 -0.4914476002267213 -1.813478249632309
Ni 8.046817773775476 0.20105826024675974 13.107217112722989 -1.2724870341495054 0.30504442080570693 -1.2181997335608503
Ni 8.075643700155336 7.232796845924065 7.049511919290522 -0.42453875421931403 0.9506702789814659 0.6917455353519572
Ni 5.883112075214667 8.285509934397009 5.680411570933332 2.1672142221064483 2.187341331873627 2.072921070548817
Ni 3.868557359394759 3.7888340465924815 5.272226335747296 1.022255190308304 -0.6317591274959958 0.2686450562410664
Ni 9.217757443630882 4.158990043706888 2.0168489860085423 0.3088424543955584 -0.6351874364512544 0.09488064862998498
Ni 3.334561054689397 2.150964957619434 1.3353139643828753 -1.4580494628367793 0.6331459805411934 0.9132668986323432
Ni 7.599964389832368 8.175377470789067 9.472297774436623 -2.528373997848484 -1.513425882724555 -0.38743233628531987
Ni -0.23036852214622935 6.371157398804264 10.65909310902973 1.6904779599479725 -1.745252227475375 -2.7896857536529307
Ni 0.7037657409299922 8.822560269651552 6.260536852399966 1.1651977274425223 0.012450824168843072 1.935777142374247
Ni 8.073835639124686 0.7825887704936919 1.7141449071676589 -0.1235844443225807 -0.7404915944074085 0.7151333181482781
Ni 5.5795077131352055 6.065117306838951 13.372764132155217 1.0472134029155384 -0.9045025221761518 -0.5347046111431437
Ni 7.546828005553341 2.892607235093597 0.6357676570705264 -0.3600385176533993 -0.6601582474639791 -0.3392511485944028
Ni 7.589659378776845 7.105211440864814 11.883717202388482 -2.029256539781331 0.7498342119645732 2.257009742904042
Ni 3.8531841565382914 6.815500107326572 9.525881958286972 0.6579028757708992 1.28243000429483 3.6166697726266297
Ni 0.44934625979935766 6.435460667790731 5.730375885445631 -0.2555296019050309 -0.08611215840873557 0.4723003378743092
Ni 7.416048047066878 0.29828791319399833 7.3365992222863525 -0.6796574938391715 0.31004161690998217 -0.4153100365321944
Ni 2.296715286712012 5.411629714848858 4.786969922877 1.2497237723110606 0.9573368923683642 0.2873488032981567
P 0.5928566542161395 9.202843282175978 2.6160741370569958 -0.38355357005620394 -0.6585855036602206 1.060725064248728
P 5.949935387813804 1.2883324821615565 13.209010011929452 0.08188500770126543 -0.3642895796202694 0.794661909802225
P 4.643288090549021 0.51914772059354 7.166565603051027 2.1948723501433487 -0.07261823768735881 -0.7719647253150254
P 0.5185856290814206 7.084966778236645 8.533293925227072 0.0035920882266325237 0.44861533555254346 -0.04054244019873663
P 3.585881537949879 4.9872787277742665 13.117446241424377 1.3359986815499056 2.031409581568592 0.9460656903299189
P 2.22176975176275 5.769475907847848 10.660176072009747 -0.17131054675395013 1.9924280580990719 -0.6446046160000963
P 1.695474100773424 0.9346523240865583 7.648708965763369 -1.0299278763622133 0.08734525948488828 0.3428553210058934
P 7.598671579354494 5.195496160247054 9.226029557050907 -0.3438865904838852 0.6368697092496839 0.32402044768757743
