# total energy = -340870.2331366139 ev
CRYSTAL
PRIMVEC
9.25365560612371 0.00000000000000 0.00000000000000

0.00000000000000 9.25365560612371 0.00000000000000

0.00000000000000 0.00000000000000 13.54366035340407

PRIMCOORD
 96 1
Ni 2.62937074389309 6.59985530039858 8.620811137441871 0.04476496292051646 0.13673126611718386 0.5167662814971681
Ni 6.327538720596486 4.077077416459965 8.92076190924692 1.5569693145331445 1.876449451148207 -0.8965583276284107
Ni 8.861522781582142 4.394005870369231 2.766806963645661 0.6970738895434059 0.3717653191720242 0.7987119115018825
Ni 0.27875527343490153 7.247648213694275 9.073982089519012 -0.4788216839325947 0.41990639765362525 0.21366715734329006
Ni 7.4173047372124055 9.149404010263776 2.038997689552471 -0.04366195966432481 0.85130485510725 -0.199344827183347
Ni 5.036783302278058 2.275908857298672 8.814349495578503 -1.522535815445623 -1.395839822077254 1.0324871524489574
Ni 1.2512145475322947 7.3649012850097675 3.397873894272051 -0.49905575159128246 0.5316231440043425 -0.10746465594258266
Ni 4.996002441628751 6.048846372020313 5.072222952860023 0.3157191269107337 0.865391157996987 -0.2730005049962847
Ni 1.424119104199486 4.289356278110774 7.822655572752802 0.6527483281531532 0.7043084596186321 0.5991086884508262
Ni 2.719325530907367 2.7074901052730436 4.409450221724732 -1.2059674531607165 -0.661111612516184 0.9271657681016225
Ni 6.9355501680579685 4.606904726951627 5.857307728879442 -1.5185151243220043 -1.0350207175040884 -0.9012799014737962
Ni 8.467418839173847 2.8716036890296737 1.0821696906556246 0.15350591447236145 -0.720087833940076 -1.2522784204121142
Ni 6.014246953375484 2.512423043215543 1.3600134790045364 1.31402911925735 -0.25227098575841717 -2.396861814038395
Ni 8.037901156419533 2.9402380533219166 11.757617195775069 0.6797816781218615 1.652170836837658 1.0913551304297593
Ni 3.3919830170564063 7.5166704920688305 11.278577649201642 -0.2482299829198241 1.266278334235632 -0.018227578751620222
Ni 7.249906105683935 0.17095018458433808 4.584948578083324 0.11567984476352335 -0.39862589100829415 0.055087170782130934
Ni 4.125011352961761 7.686965517829939 7.264182645690685 0.6117412896131723 -0.0507692601330674 -0.7356095837247589
Ni 3.6452370661261244 3.6192620545893406 10.915621511863817 0.839919496088444 0.22010494254883384 -1.0549843051102088
Ni 1.3154349180578664 1.0575077728620077 0.5515900579559326 0.7371519885112143 1.8236893858373557 0.8551039171383661
Ni 7.031529084929905 5.077129241109685 1.464178179704558 -1.3933450806798584 -1.6765289539670483 0.6958994096193305
Ni 4.326370900892083 2.904500435026562 2.6005724420036618 -2.6814232843994015 0.3486665283710318 -0.11507512129998891
Ni 1.6138282996093916 9.162766289087829 12.117594581344568 -1.637083603487232 1.4642298806158782 0.7302367494486198
Ni 0.3751903955326163 4.313499065819883 5.248480108985632 0.7586908910242547 0.895616789650748 -0.30149501289155173
Ni 4.904761396472824 5.559873951423522 2.545341072620531 -1.1921269477331986 -0.7129833616848108 -0.3299563535560382
P 0.5782646458632832 4.847851413946561 11.84043648888268 -1.6701443905969429 -0.3921305130919376 1.9204392264655958
P 3.038178745201261 2.6823664300602292 0.7649432690329692 -1.1866646390670466 -2.266243602797484 0.2663125514531478
P 7.780334903795792 5.752636853212886 3.9334717844553198 0.12184843546808047 -0.3212655106502596 1.634777838172191
P 0.5935896250603148 9.11600756685934 2.2259002511899837 0.17319465115054045 -1.3334242359545099 -0.6304982585057012
P 6.5589078739467555 2.5900704681550346 7.181173652641321 0.18284400131484638 0.06624730116400848 -0.6899182523352312
P 5.550342686057335 -0.012847775567392469 0.8328549228154069 -0.29206266383405827 0.8511274489891213 0.7331073861281955
P 1.4556000408749896 6.316980299448119 6.062453872720293 -1.3256857296596716 -0.5587572812169732 -0.7088544271181018
P 5.293849857494251 8.330714583586776 4.523352544312948 -1.144658212728274 0.44553129731058105 1.2879355074940915
Ni 8.629228262662341 5.8569625675220065 13.731646819421785 1.6961271878139497 0.5124445141933627 -2.898646534525066
Ni 1.7035517452312856 3.569218284589011 2.270215082949337 0.38254518339634763 -1.519574418824454 -1.49059422954202
Ni 6.431373991153754 7.18222486792831 3.234564453195345 0.10488172570675486 0.5219568245591719 -0.557815229018678
Ni 3.4628290050598323 9.140455725206394 -0.10916260014106796 0.7097969935370292 -0.5588464984966698 1.4459128274742452
Ni 0.2590829267922051 1.5863819568170507 3.4185826503526244 -0.09458214355295969 1.7896623781596341 -2.0612498048584755
Ni 3.077488274595011 0.702999297808448 2.6326030458274676 -1.2197292828314992 0.439186843149792 -0.4325639385166356
Ni 1.5809963292023703 7.562688921841693 0.4626661281861151 0.4552680649823708 -0.5857489793144686 1.1265519900458663
Ni 0.4107068514568521 3.3517388684374274 10.034809518407378 0.21409704579185712 -0.22251715153475227 -0.49156407119992757
Ni 4.252813591769927 4.24741871049955 0.31760952296844197 0.7716369096619614 -0.22563024324243722 0.47236538678428974
Ni 3.094181869469382 1.1236621574279027 11.135624399923516 1.3167017809935067 0.710400431448983 -2.800281012670274
Ni 6.277060028778476 7.057198725828742 0.7693017408654683 -0.410944303364331 1.8672233045642488 -0.6163641330971644
Ni 5.5836651002162085 8.58724442677264 12.328713034571184 0.48717442677266426 0.15020616067516712 -0.05555048357179465
Ni 8.264911837937303 5.8829931009929615 6.9780457311076205 1.4200601280771996 1.8548794382869154 -0.2707520752817401
Ni 8.882389775175106 7.703279712820802 5.431197242152147 0.1939884479674401 -0.7033376110649306 -0.5983656396372146
Ni 4.8184618034582005 1.6281066903472816 12.50602603281163 -0.9534064469657064 1.0828342374429416 1.9521157316332702
Ni 2.9466230757516922 7.72372103825178 5.0027844458878565 1.3859014799176195 -0.16883303174773504 -0.26359155297755893
Ni 1.8786216573311834 5.285068138239386 10.385590620946859 0.79511982327525 0.1424447715621934 -2.2686442418191772
Ni 7.991836458368193 2.491084113182118 4.947675224759903 -1.056554477810806 0.49560070316314647 0.39004149177339276
Ni 1.7012290776517585 8.132251429889092 7.054215347232569 -1.2170375949319492 1.4380449946903946 0.45991893349082086
Ni 5.724274398506708 7.068571468678299 10.74407724258384 1.4703609332142806 0.37900220324009565 -1.681551861102936
Ni 0.2774088665312314 1.1475736037446287 8.824345294460596 3.55729425888179 -1.061904686379126 -0.5560470813746617
Ni 5.979823354188867 8.899731125948149 8.882771951155322 -2.008838381136295 -0.6585911600871754 1.78791068557585
Ni 5.362077060935901 0.7073938588981589 7.019909269473282 -0.7624763262086158 0.7430709250988107 -2.108927570550413
Ni 7.531106194953542 1.6915682611058365 9.243805178839658 -2.868235012112744 1.8904483365304603 0.5600353765984484
P 7.685549708508554 7.2799527257266625 11.7771609166036 0.0036818197269614015 -0.23551767755947828 1.533578703523346
P 5.078998479560142 5.357783364693269 7.14671859102534 0.9587733677045747 0.9428800935130859 -0.7617854707891784
P 3.2016168120921322 0.40327338983679567 6.269008422957972 0.466217622015339 -0.5675653664269064 -0.6079255154115079
P 7.489057583473974 1.974387740122126 2.8341735771076437 -0.4308379569644645 0.07087040175831666 0.7893924338731696
P 5.371867428661556 0.8146048630530824 10.580605862532465 -0.03731442017974219 0.74526921830171 0.2587026003163738
P 9.418740912931973 1.5101781021660303 11.8434032108986 0.9930122342827867 -1.7935743116195306 0.5894413405643912
P 4.318125893667547 4.108345519054476 4.3304637928061265 0.16010285096358878 1.133871663635731 0.410426483187648
P 7.879663644029436 8.975527819748576 8.324326785060292 2.699697914338873 -1.196516335050146 -1.1743868501409582
Ni 6.155855646481079 6.58799211379717 8.496276364459725 0.7101880583278608 -0.9656227865262402 0.025254403691414566
Ni 8.692893413846193 0.6291384687794842 6.428078764360649 -0.5594231969357463 -0.7237441997457407 1.1586388432780819
Ni 2.266562665046391 5.224688034827375 3.629972235691113 0.9751464097459595 0.8635607896564675 0.9473463568145556
Ni 1.4852487537228185 0.4929459403523652 4.8044776789714225 1.997588776364405 -3.0715372812819424 0.5981602084946279
Ni 8.787567565265087 8.876624747676917 0.06975313126580791 -0.5111857020855971 -0.8737780965091015 -0.878367772762313
Ni 5.296098495828216 5.714150899176019 12.519556728169336 0.0941100890125476 0.24112011134792025 -0.3236941746964103
Ni 3.450641940509086 7.516031989825853 2.5624066644538535 0.5629846890347594 0.16251094618444914 -0.5964964476389597
Ni 8.51517695621743 7.102041941328299 2.1606610531723565 0.6357746764132921 -0.6018546266270796 -0.03935381920727416
Ni 3.265004353605124 2.492694249273105 6.94741057856267 -0.04657373399448108 -0.0683085545684114 -0.14951941902078766
Ni 6.989813605055368 1.1407073912186958 13.031222813993349 1.4382000322110198 0.22395028443685303 0.24774378731202495
Ni 8.72577165253169 3.3219698580655592 7.253957356147349 -1.7304799542622067 -1.488478725860914 0.7474412862523644
Ni 3.825979469167258 4.4339446483502645 8.490751006644045 -0.7084304522068058 -0.5490850482345319 1.310486396211414
Ni 1.9936353439684067 3.0092888321204487 12.306135965405723 -1.499805977948275 -0.15096360766648195 1.1171270971875407
Ni 0.8251540305457555 7.261547204548656 11.692526056248566 -1.930029698367508 -3.018463541385415 -1.0784685042750781
Ni 8.089212677250124 9.015411075795436 10.635525383718663 0.3321767582461247 0.37483830167039317 0.4799586257505154
Ni 3.0727226419119176 4.949234465744566 6.1281131867064875 0.25627702159401666 -0.6101639178237234 -0.22808487543051686
Ni 5.45775060716989 2.311387373234557 5.014783661227987 -0.462886500759577 0.14936515283111051 1.44613034280169
Ni 5.413832757239866 0.8469149272788873 3.193378282426582 -0.17569941985026516 -1.071118748778226 -1.3025301174788149
Ni 7.591088391170653 5.22751039981445 10.969836829851603 0.38401842550776444 -0.10406231512925303 -0.23252182815594793
Ni 3.2416851412528995 0.39321188999926626 8.443348229979161 -0.5303013398691254 0.005006709185972022 1.2632020093031535
Ni 2.723619227149999 5.641778057982864 12.505390306665358 -0.613694299574485 -0.9703276482010773 0.916063487540874
Ni 6.322810102536175 7.848811955941215 6.523006465945595 1.6747304673057288 0.1940331851624465 -0.8961351240480631
Ni 6.420621243235784 3.8191132566413253 3.4368123520724194 0.547617719660386 0.7445845335298595 0.6616538581728991
Ni 5.9681730016684496 3.0351435461331935 11.09805455780049 -0.755782459128208 0.5621704206635803 -0.7034689944364724
P 8.484676907045632 5.06044489989101 8.809122105476213 0.49358290140216926 -0.5066297072837985 1.9319369426925501
P 6.60649017153213 4.041561885901299 13.140587143828574 -0.11565259107001373 -0.8985275355396396 0.024321864574816176
P 1.9025516109593 8.687109879036614 10.049599636305219 -0.36356632830099966 -1.292208938058465 -1.6545277671056084
P 3.804918148804693 6.731766162335471 0.4544424043696777 1.0322812070857383 0.23234647892034826 0.8912235456790587
P 4.187538304495088 5.746436903897016 10.324142645667607 -0.9462382113520413 -1.4073899888086985 -0.7112949182387943
P 2.348707366653812 2.3282475339114432 8.996890809286809 -0.1825814916820791 1.4896364936144408 0.6740128939588844
P 1.1795172232048985 5.629563232465032 1.543530128023129 -0.47094073852262114 -0.03734424497641311 1.1240572486484706
P 0.7692156818675018 2.1320885404818943 5.764100281888257 0.3704304024106846 2.7382636904272126 0.4031638880879637
