# total energy = -340857.43207196845 ev
CRYSTAL
PRIMVEC
9.40774243636650 0.00000000000000 0.00000000000000

0.00000000000000 9.40774243636650 0.00000000000000

0.00000000000000 0.00000000000000 13.76918200479686

PRIMCOORD
 96 1
Ni 5.715006050631119 6.641076006310205 1.7511233347040709 0.5967646136986818 -0.6964617098807038 -0.4662366481787325
Ni 6.181724159688074 4.11719505199711 0.8356267409030157 -1.0910162590331016 1.433131616549177 0.9496909457873323
Ni 4.036081495530892 6.294090236982496 3.640448289357113 -1.6158167236886558 0.49369705838253036 -0.6416956698834174
Ni 3.4584649170209363 2.9257797170406326 10.671763102249619 -2.6799574984871524 1.9301186585368888 0.43742486615336273
Ni 8.079256428961985 4.361786951158 10.670441314418081 0.22399219341838195 0.5061933910773282 -1.2220682153773212
Ni 2.5396671463509417 8.608855889378276 3.5358022056182676 -1.4371240255380218 -0.14688198139794056 -0.998333903606016
Ni 8.209440770690067 2.795670637253136 6.43783583962986 1.061740649997436 -0.42832161830051396 0.543201078649929
Ni 3.5230867007563167 0.7886774015914105 9.323319372906662 2.800634796465267 -0.8141881527606107 -0.7098245043408549
Ni 3.018474204614472 3.49103452180939 1.7787444668990158 -0.5258147648526815 -0.8536826113108071 -0.3330162234282845
Ni 8.341892378378292 8.214981931065687 9.361694495637042 -1.1983968399023104 1.2880980012138847 -1.342837815958926
Ni 5.4315695823854435 2.6261148928561697 13.079428331007334 -3.4739735471752624 -2.739927965503514 0.34995259417230695
Ni 1.186448046877823 3.50630328800571 6.050398658785862 -1.1467932567934056 1.236850001672186 -0.8267703603009954
Ni 3.017778031664054 0.895729045106226 1.3707692432434424 0.08891003286884688 -1.0878255200099458 -0.4635909830257693
Ni 7.066597610639072 7.71736879539831 6.887345305971898 1.2497890783313572 0.048871528889722286 0.22532376774561194
Ni 0.9484227520330333 1.0204672446586764 6.418407910441923 -0.7565756444534647 0.04356374352356369 0.7979372381193871
Ni 6.0179918079439245 6.269112680450623 4.724151557270136 1.9031655269868126 -0.4217663336804995 0.6159363015311262
Ni 6.17696384194603 9.18301041862129 1.5682819762452171 -1.9046886484995584 0.4407580442916538 -0.9905709718311456
Ni 6.944052355880438 2.045911185138581 10.91487234118097 0.40461527582250956 -0.54725416567338 -0.8055929548924319
Ni 8.237795706805722 6.164959562422613 0.7505675772015936 -0.6101700884713104 1.5344690765480993 0.3554686388945298
Ni 6.89063519354975 8.26222761426835 3.450488092093112 0.5982008319245762 -0.6948257169391776 1.2861133666836881
Ni 6.3187667457520265 1.3540469808195614 6.66919951195856 -1.3807793281997056 -0.6239046644485836 0.6937674508779923
Ni 3.9650530391031555 7.900038932942332 11.006023958972804 0.14728513037363022 1.4565499954731174 -0.7434198237977971
Ni 7.3860375097124225 3.3790071232476038 12.67637711981458 3.7069586881208734 2.8146637637545076 0.7262430549081945
Ni 6.789360844749144 9.028958633984974 11.240045318578437 -1.015787066085457 -0.4896185174377825 1.045151378180187
P 5.550342332372222 4.491529128985142 12.2840657875434 -1.0445962770076656 2.5753238842354618 -0.9656389844761563
P 5.783720202385846 7.784897571588813 9.619206047673723 -0.6376996613501469 -1.2213750459650385 0.5141018472911275
P 8.28699820046361 0.4319367439895396 7.624202979921553 -0.1612117677570514 -0.5799097469248722 0.06020135208024471
P 3.4085568426700568 5.469435746242615 1.1186135190536912 1.2976961864252812 1.29392669208052 0.07853871693685184
P 1.0392733220625234 4.584468217865885 2.772286752313165 -0.783190933048148 0.08661403774581858 0.06998080006451174
P 1.7789100431683045 1.9666509539592858 4.705232586955411 1.2642893288300612 -0.4506292806587788 -1.4385520162337997
P 8.951758698429213 1.8487625317743894 12.710978796998845 0.3668557976855489 -0.7513038545315641 0.5687935824070527
P 6.637284686053201 7.922786854484354 13.34400321616798 -0.2780555509216889 -0.6262726504601279 0.16834323659551007
Ni 7.158473624609043 4.923429182778645 6.704311088790294 0.18186286834849968 0.573946844473218 0.3755186155668694
Ni 1.7999175323342824 2.03503583472395 -0.07935336783077017 -0.7936722921954461 -0.4398211342996813 -0.8982130896230145
Ni 3.8410401765030997 7.992724012773597 1.3426052843020233 -0.9345391777475581 -0.7419596943125029 0.39842303096886866
Ni 2.724576326627387 4.001404556406039 4.062583106359625 -0.4009355129780773 -1.0483757986547557 1.1883679949113988
Ni 0.3753030744730719 5.783325077197771 6.6721601285463485 -1.550208341660227 -0.5126769419191429 -0.05136318496332445
Ni 7.9180265367423095 9.462871944689146 5.463611412815541 0.3165218253176872 0.7513719887653383 -0.18130365341092003
Ni 8.345034564397745 8.798290193832436 0.6253495827779094 1.1472701964298242 -1.6979161613935725 -1.1958360211536696
Ni 0.5976691818047533 8.347085452278703 5.021317685027154 3.9521059183503158 1.1110410388944607 0.8332767939609454
Ni 6.167518468402527 3.3203968870165044 5.269562610629222 0.8349588096490588 1.1994178249676568 -0.049092900871909
Ni 7.539383713655748 6.791157723580627 11.021376454078025 -0.4887880511166872 -0.06342834365797465 0.26307553257308885
Ni 5.338771609643299 3.915380158316606 9.806824657811253 2.332585777668144 0.8665085594308819 1.9821091926715673
Ni 4.540308274227236 6.656118986684768 12.862935477364108 0.8058598354005735 -0.7726800062144952 1.378570236363529
Ni 4.8831546368227325 4.07440863877415 3.335088958593087 0.20772585215819064 0.4150377567074143 -0.33134757747661
Ni 4.129867281243224 2.6793344925928197 5.76780042040346 -1.9162632407110356 -0.7992580138133396 -0.6699279252562333
Ni 5.34510302039507 0.347904905777112 13.114251090142071 1.0269934763242377 0.09698123991275555 -0.6219172017049096
Ni 8.168253673704553 0.7853602315600967 2.222484164720905 0.65440154748586 1.0907504069662246 4.038529180241567
Ni 1.5272623370775065 1.4963202717542183 9.248870261279306 -1.9495343440593393 0.3219247415008133 0.7438733663954479
Ni 9.273992697046806 6.864152398206165 3.0253230412077685 0.5659054622259803 -0.5179505316132563 -0.8302436635615766
Ni 9.378164630559962 6.221754104337084 9.186716128420878 -0.960283633701514 -0.9345445770641969 -0.7137809178854417
Ni 3.4987300552342755 8.212686441877825 7.6765805866979 -0.027584337376171844 -2.7256043497919897 2.762423318392552
Ni 6.912611680200769 6.162447695155566 8.793054785090444 0.3278421354265128 -1.059881228191194 0.5924441319464571
Ni 4.053137732816122 5.867599635168587 9.784876394387952 2.4121398232433875 -0.37347124611953747 0.06716878453701336
Ni 0.9457133221719488 8.446308913198353 12.950948672233519 0.12683868959382028 1.806176059543941 -0.4324276700490875
Ni 7.298667804435021 1.676092824585691 0.4403839560460249 -0.0052921016368747565 0.1831946997860458 -0.3676466690179604
P 2.1912043614392385 4.882270309020851 11.595317427564629 0.07390198949578886 0.015936468724598363 0.004016577358560825
P 1.9846855964721297 3.819477630525302 9.39892657764478 -0.23106092733970526 0.7938275868263877 0.03841099567803062
P 1.1085895693419359 8.152345181013255 1.3315050888398925 -0.24378763087775432 -0.16337715083948637 0.6676499278553341
P 4.875524957595859 1.6414064777182649 11.070491455729984 1.6718639443912109 -2.9278095292422672 0.15441994164619857
P 4.027670973670442 0.45585404793341167 6.879744790747002 1.6245037099396926 4.956972737978844 -1.0566994880291027
P 7.238100757748693 3.7733890996591457 8.639280528860038 -0.6420679656211716 0.38447839586331845 -0.48065616603817224
P 8.38452826772008 7.342075128667812 4.926751056681246 -3.852653334078933 -2.1502840220100126 0.7633566719310402
P 0.9931283447409279 8.306867352778232 10.633181949956883 0.36392551141263135 1.7038919193610336 -0.9110500934866826
Ni 5.177842765185967 8.492604414401118 5.616380922139128 0.2671160211910496 0.3529594993194308 0.2604416944946676
Ni 8.432046775457364 4.004311548861161 1.43678619520243 1.2018025231497496 -0.8921596843400829 1.2820155424652306
Ni 2.868844058987565 5.197175676173914 7.80478553938858 0.007394492691858232 0.3034775905392193 -0.5368334845606882
Ni 0.7074848200875778 6.482555543951614 11.60077015516006 -1.6698111756272402 -1.4681852657192005 0.2176084013792252
Ni 6.070468196017291 0.3991187747971533 9.145738824094746 -0.06807869794579244 1.091733082594468 -1.1244388003576056
Ni 0.9747926544657413 8.825920733769953 8.253482176772293 0.37856948657805123 -1.0794604358747022 -0.10403171900163374
Ni 0.6960854584116192 2.1325564942378463 2.48317553374733 0.8303171971119895 0.8586330133375472 0.8804485665507417
Ni 2.0051192133411417 6.422167244374179 13.436105956733964 1.3265100253331799 -0.690577740296101 1.7447578043374596
Ni 0.07197957920188806 3.8377098356321833 8.524473142367867 1.1280717691245024 2.769379180885095 -1.7842795165811656
Ni 2.667574814376307 0.767238097041322 11.626656499624506 -0.37982855579613295 -0.6011146631372616 0.20052522064469336
Ni 8.627878344861307 2.0227681384084844 9.109415530019582 -2.2876686054404796 -2.7568746206601813 0.5468157925843808
Ni 0.8835215583432285 2.728151268805207 11.261070682455303 0.4475856087364485 0.3999651786450079 -0.821290825243663
Ni 1.7051533413943367 5.926924859835251 4.657494878816171 -0.7652556887259659 1.071377915976884 -0.03738641106825819
Ni 6.119680097417754 1.1921679543623347 4.144964826524712 -0.6476434028264202 -1.8302531550978027 0.2814401511232056
Ni 3.337349639133429 3.8934601181210264 13.125995715970467 -0.28075649479261966 0.8637947600441445 0.17039600535948074
Ni 2.0533150785436978 6.648630423596493 9.793634061949355 0.6249732149224141 0.7529213355303291 -1.3538359668416426
Ni 3.746633479780936 1.5196420655932064 3.4640230113331887 -1.0626652186942345 0.048805451538477235 1.9750034348647212
Ni 6.800377311302372 2.956176133294674 2.9591762624012707 1.0258346801294462 -0.7367961478336924 -1.3909783802198947
Ni 4.682638011617332 3.0912713166459715 7.940852542547689 1.0158639420699795 -0.6511907538580463 -0.7208992740977778
Ni 8.919095016215026 0.3975128731399064 10.961439726144103 1.2698385407830648 1.5901691983238806 1.0298697694307681
Ni 0.5060989194684123 3.8519249346603037 13.337738600388478 -0.524456193942258 1.8194771475282212 -0.3857387506329808
Ni 2.460971379726039 2.797279361233155 7.66227423256682 0.6639261991468437 -1.342959686248771 -0.7788329131897684
Ni 5.16489771140523 6.410191188078483 7.248951648032634 -0.019853287280501293 1.6942567102641144 1.866755878009527
Ni 8.50561532237987 4.128465527599816 4.215421292203997 0.7748209638168979 1.127093464371633 0.2791567544056676
P 4.9038610782263685 2.075404458105595 1.828161457087574 1.6146802960913675 0.8781032062470168 -1.2081960853809193
P 4.598071813626746 8.546783603880236 3.571588317592502 1.1952894046215803 0.04494468303149034 -1.2024514695876583
P 7.013980106427109 5.2409028636541946 2.8579451892165006 0.012408915187314112 -0.31365761639601464 -0.5354646292376197
P 8.414350811677156 5.620477053255504 12.507277650932414 0.10676197344860322 -1.8468069456914256 0.9907442641842163
P 1.9047291923424168 7.084246535706415 7.072168875790928 -1.0155381832994446 0.09260830765604051 -0.49411023466054904
P 4.531549665891577 5.130117287112072 5.947639768207202 -1.081035493671306 -3.414876741013106 -2.790278392931608
P 8.384283666413177 1.9606676296827241 4.375171346516907 -0.26926469210293624 -0.37294082753736413 -1.15609139426588
P 3.5389763779624683 8.86002380059784 13.161038616281418 -2.4196973238756714 -1.1129439123441283 -0.29898947286087857
