# total energy = -340862.0118711406 ev
CRYSTAL
PRIMVEC
9.30338785536188 0.00000000000000 0.00000000000000
0.00000000000000 9.30338785536188 0.00000000000000
0.00000000000000 0.00000000000000 13.61644852718163
PRIMCOORD
 96 1
Ni 8.924181683888943 0.8684349650582396 9.95258933198025 0.4513764432374484 0.7945135571498189 0.9648717672928285
Ni 5.921606315202985 5.691924277952819 1.656386322523673 -1.222335610106095 0.21587882028262823 2.103411782938507
Ni 0.3038421321761334 4.309022202975053 13.22692223944212 -0.47890267368217515 -1.0321554801411514 -3.9318952477303966
Ni 2.790969813871673 7.759769670674794 6.189956023038979 0.360621643850379 -0.1989123676316187 0.14182770680348475
Ni 5.793452148679936 6.924260325271126 11.747210041675084 0.5552562100422501 0.2604596922167966 -1.326403838772619
Ni 7.93512922673962 4.696098954507395 1.3395259598418623 -0.8932737433398681 -0.9592991583010575 0.13369916415907943
Ni 1.1730548604518922 0.9506852859884486 5.437619894632242 -1.2991966822302077 -0.16888471092127688 -1.0362646172135186
Ni 3.7659369419381727 6.962450732064384 3.809623790225573 -1.0244339431271776 1.2692890960374978 -0.2244259385216909
Ni 3.242621379911201 0.918597901571897 11.729480575602999 0.3691499930363642 -0.9704456618361802 0.06327896256430393
Ni 4.676022243701098 2.7337539790900576 4.598437571737227 0.6168359305272604 0.21200519625983488 1.1362077679680755
Ni 0.9193161231076923 8.432869775788598 12.871696566276986 -0.431262960317025 2.1690240216216776 -0.5189231799391708
Ni 1.7998799148008573 6.538932610639426 0.535710465552102 0.24646080683454327 -0.6218503530227162 1.8763486639042848
Ni 8.905333020268202 8.589892354559998 6.329034227480821 -0.48736597395818004 -0.5930120886347852 1.0247982684451318
Ni 1.7173216517354821 8.797674217001072 10.148911281367015 0.5009326568990211 -0.052003389650484635 0.576432329899233
Ni 4.958240511684888 2.7370752885237217 9.623819702614869 -0.4342935196132327 0.24621886602706627 -0.63511467423179
Ni 0.8805089017053258 6.136468055736549 6.994878620473294 -1.6180517836667616 0.995682582026098 0.30109957722534597
Ni 2.668527927439015 4.853949534790268 9.335531904450344 -0.3860737653748964 -0.49147716791307616 0.2122638492378602
Ni 2.3938547069361826 2.784271374677728 12.977278853393996 -1.1789083921603956 2.2055390858285757 -3.3279626555283652
Ni 4.437715965988726 8.756534636284924 8.019652365301885 -1.6248592935068986 0.8854681312525202 0.9167137195303631
Ni 8.301673401464965 4.787653593545749 8.111767998622732 0.6391374222379379 -0.7644128811096964 0.86827259330984
Ni 8.34741815912695 8.735220574905302 4.183831165456548 -0.38557882801634885 0.0893571477085945 -2.150734222173554
Ni 9.109309797111605 1.640624522964809 7.37928436937705 -1.5633014273987593 -1.4332622285897705 0.5207106108568967
Ni 6.787091175999558 1.9295319267547753 6.517294791365429 1.617668432185414 -0.12830216151322418 -1.6165363754635
Ni 8.778751126278177 6.735782992451493 13.160883071700034 -1.9575692985486741 -0.37146861386721186 0.823108338068376
P 3.715373029411656 6.18962761345072 1.8621586532065633 -0.23359552083610094 2.0034205525548336 -0.8792342345276665
P 7.363631419455087 2.4527451515162846 1.9317926499827318 0.8550422106624953 0.2197637571593312 -1.5665132494678375
P 8.406708649381134 1.5972428257962443 4.8352283275819685 -0.32380704612519073 0.110640482567403 1.2124931700943764
P 7.182820078157413 5.306736114137659 12.84567592102484 0.5526079737861257 0.9992139922181243 2.5762068010610473
P 1.9649871375438384 8.7137483559336 4.260872519574687 0.9077030313913206 -0.1911656338066643 -1.0181951613063176
P 0.7114589032256865 4.916031041375264 1.399865872236432 1.907320429695451 1.5102783382345086 3.187983057677213
P 6.822034700461306 7.623158724669389 2.545581797389258 1.0695172086190614 0.5847300511316511 0.8797924210239816
P 3.0818495358687454 7.753555007644857 11.537339568679785 1.0466698717072427 0.20157114541070448 0.05994064221969031
Ni 3.3005721823265963 1.3768362661521376 0.7035593966707158 1.6031352715662455 -0.05377025174292031 3.189155480718759
Ni 6.270269378635606 7.219596370009726 5.4622924789966065 0.6489181557737858 -2.8563948249447066 -0.4417985697410262
Ni 8.946267926453423 8.040555216942101 9.138651751797417 -1.1023509673196306 -1.2646950489089122 -1.5429411185748523
Ni 6.619006869170381 4.4328316874098075 11.136334715317922 0.4974611534106529 -0.6130859765665247 -0.1913903482229607
Ni 8.447913353811668 5.855626689142625 10.337539329068512 -0.04174751625043133 0.8660825276370568 0.897380309309074
Ni 4.915100702598327 6.652508368527876 7.462562714655774 -0.3651493565174034 -2.396398501248731 -2.640486951196356
Ni 4.32733127010517 6.997217492158513 9.465882600825742 -1.1181198001181132 -0.014739620203019778 3.8467678218324335
Ni 5.190276306040706 9.367860246610123 10.471947232850132 0.26665347973233433 -0.9960533351019556 0.03164359504721002
Ni 7.390071647495633 -0.11570344267130397 12.718797248964972 -0.1936673171825955 0.7346983847643992 -2.8659847826259868
Ni 1.4747730292002785 2.7944771910607247 1.5017305256008004 -0.004914663692797987 0.8110393227189838 -0.6053880937016348
Ni 6.815140890124204 1.7207080848835323 10.879188147033803 0.7615455868642304 0.8988615218402907 0.7159817821915024
Ni 9.278250015615566 3.6481932663290464 6.189942067957325 0.2236579500074148 0.30732036132407714 -1.0434909597586286
Ni 3.335822718584733 4.399823267604089 0.9043172013459164 -1.9446924425860053 -1.4744135060170993 -0.6779047728141228
Ni 2.348426264458357 4.3774858335698354 7.063545995260226 1.2347098154007317 0.6541482938244735 -0.9950122954319509
Ni 1.6603011880970233 8.767400993199546 1.9179854921942123 -0.946497378550699 0.21154702567649375 1.2145780776478632
Ni 5.316309300152339 8.639116579247725 4.201014522666571 -1.1054172649497802 1.4097448621941204 -1.7500596761663472
Ni 3.5295006451674444 0.8567331639219279 5.5564641610144845 -0.1425486441299093 -1.035345962053991 -1.157061471488633
Ni 7.910289181395406 6.1098417599406165 3.973647168293423 -0.6643085221869269 -0.3426717442401776 0.6179903558466776
Ni 8.359419529349434 9.039162253330566 1.0023572319982976 1.022626971825426 0.09874655934329445 2.4207792440859404
Ni 9.065574571207804 6.991802920476741 2.1803614947434937 0.5465717948943748 -0.22364123783686646 -0.6021783285150855
Ni 3.8857273628565605 5.550670941450498 5.529340133972891 0.6331336392460193 -1.6110110747698962 0.12845077127594653
Ni 3.9048272179470738 5.3346462774457635 11.230805966421974 -0.07176540276876028 -1.0701175612072216 -0.0017907733518356256
Ni 0.29019964435113155 4.115995513536197 3.3205884211123924 0.7754794233365031 0.4540560469521406 -0.06709319410407155
Ni 6.898741132619749 7.783121173975909 7.503439009498049 1.5557673238052434 0.5057575890914903 2.3014972837934553
P 4.3064265577873995 1.3679887443834682 2.938334545799691 -1.2038552919137204 -0.3258001652958195 -0.7188292789426265
P 5.7219463102845705 4.546258591093948 4.093607841207989 -0.9961088709302394 1.8022553843332962 0.40424992206329086
P 1.390986718949347 0.9522482551337025 0.18323673448914918 -2.210316195502245 0.38376851428048747 -0.10518614432105111
P 3.0572792887698435 1.4448905476850673 8.834501677486116 1.346176650524172 -1.5135073866947675 0.8152119660394347
P 8.734169292087362 8.033838170972617 11.208488069502037 0.858772881349521 0.2649755778092791 1.0458800288160954
P 1.4436531971117414 4.7899515303247835 4.989257076169186 1.7077519165370718 0.2707685303419724 -0.04293536591094542
P 2.406488707526985 6.824444277893573 8.342361767874298 0.48361422022523154 1.4158512322021746 -0.22944061812746291
P 4.697010686508793 4.293122713277202 7.6664278508459445 -3.6540165887062037 -0.28173094289074707 1.8265643933923057
Ni 4.95984069438122 8.566345480115727 1.6924974221504765 -0.8481969056058877 0.6209993178763304 1.1420439150338781
Ni 5.373190212974257 4.041410253789171 13.736000827165627 1.2125474203710795 -0.1428486918688314 -2.7249214647923523
Ni 7.1180219823437625 0.6648833530358975 8.542428330838234 -0.9016141448847634 0.13143042272956074 0.05336581721565002
Ni 7.461512362176613 2.79498887738804 13.198451081851521 -1.7540713684289015 0.9804508526780082 1.2509483887467812
Ni 5.384847357849276 3.435266630451512 2.25718514958783 0.18782757057236685 -1.4231984165958649 1.1755947544061303
Ni 5.479137192891825 1.4980221952359303 0.6828965724349486 2.2815964311044703 -0.08699121857957921 -0.12382304269594806
Ni 8.90433755777688 3.4382809280887874 10.792152163435032 -0.5748834973548744 0.6602140404025791 -1.5225684684557714
Ni 3.107378031907892 8.425027019899021 0.1643778371418625 1.5292088565904243 -0.0769204646071385 -1.7280206940884366
Ni 1.403844000846614 6.452197126465605 11.935593410278246 0.6248161205192594 -1.7526994277820398 -2.7487041690342466
Ni 7.658874430315994 3.7230204141580767 4.48190891857078 -1.0827938711233096 -1.1923426632884304 -0.06590817265703487
Ni 1.6760704303661027 2.2486102170808033 10.273460385129434 -0.0480703731446656 0.6663252955066395 -0.0650458246567396
Ni 6.225752668159178 4.346812564094228 6.430041108492854 1.7060542171196744 0.3181269650212779 -1.8482837873472684
Ni 3.4098404716778283 4.514450308310477 3.1887817445510884 0.8283320483611606 1.7266718933700262 1.827016136217744
Ni 2.4357664688371874 2.663969267432025 3.556316730073872 -0.8361032076661471 -2.608655665618372 1.3709070633913165
Ni 6.19597252390943 5.2994143479631655 9.145242271693236 -1.092446820832041 0.7122799078598829 -1.3825351345485482
Ni 4.183696266333891 6.279154113955352 13.252794030489955 -0.332591220075724 0.9145933307532508 1.4880753197749081
Ni 9.141880957692162 1.8620358484880075 12.312986265481452 2.645468463571347 -2.8996032420113806 0.3921863060305375
Ni 2.069613036398155 2.1638935680529348 7.103878041917991 2.0071275690927757 -1.446477955949096 -0.4840284249445148
Ni 0.9145006895982671 6.955073145563275 4.7987497441382745 -0.9656338422698337 -0.4168300727211466 -0.8737827244947919
Ni 6.412313503098322 7.364617578558641 0.3540069293673447 1.465459125037289 0.38254106963128953 -0.9477307367371678
Ni 9.32739050981337 1.748180988966477 2.8592911026335837 -1.331502850562081 -1.3369708156551878 0.4433134637236559
Ni 4.794445066617389 1.575872944090005 7.36916786551664 -1.0275421497388562 2.316107834617779 0.7804611928218108
Ni 1.2820254413945043 9.024295439675116 7.8315546107032405 1.6833999700552686 0.2808521398302195 -0.4075795006571561
Ni 6.363238132614904 1.143404963630915 3.3892427711564466 2.164736964210549 0.8431637140573544 -0.2273865638119116
P 5.25252527360555 8.993101180484423 12.979797280463163 -0.6055888968585312 0.4221509707134278 -0.42614569369511773
P 4.99370502586172 3.3709150972507906 11.712800531671297 -2.6898053378155096 -2.1021686545600247 0.8664429963002692
P 7.853482695675643 5.896524381776769 6.403311545092682 0.482469307987511 1.4836622783088769 -1.3858806539820132
P 7.181015220930155 3.2922177401097033 9.259239473047638 0.21490977150113957 -1.6252110204193622 0.014157008226672393
P 5.547619430262145 9.091977585697272 6.272485445602269 0.1597845483922216 1.0524929061469228 0.16939250379563087
P 6.694522467694343 7.410259998955162 9.804809668957716 -0.3160142895536493 0.5949419586676463 -1.2388899149203503
P 1.5732400853512738 4.29757903601873 11.354102834190636 0.975949879483861 -0.1271942731610261 -0.14156005496439492
P 0.7749601067842875 3.3573693646585903 8.223654261292264 -0.3168172450709189 1.1184602141766673 2.244473558110244
