# total energy = -381174.0259980746 ev
CRYSTAL
PRIMVEC
9.21986198997815 0.00000000000000 0.00000000000000
0.00000000000000 9.21986198997815 0.00000000000000
0.00000000000000 0.00000000000000 13.49419998026518
PRIMCOORD
 96 1
Ni 1.852528413777065 1.7975780367957022 5.582630996208691 0.9132201045548078 -1.62360665204672 -0.8228995644916796
Ni 5.578200852561116 8.73417802394946 3.604381467418175 0.46771477538615575 -1.2416235118014294 -0.7143802420323374
Ni 6.947147509178367 8.833660333954308 5.455840377213723 0.9053389020345183 0.2395095723276907 0.4821780019993374
Ni 4.186591775370007 2.775639427892506 5.195429065521139 1.8236503050693047 0.8497429099367689 -0.33556521510238335
Ni 1.75415248720137 1.8563823160552881 11.79847842042564 0.2687173042398985 0.9435974312950846 0.03827729831364376
Ni 8.966435565314814 4.743683491535259 1.8084796015176423 -0.47003905264395823 0.09771786096846398 0.1753042412943755
Ni 0.8242021795213693 4.379056392733422 4.337723751792575 0.21632850622553712 -0.2562600523131522 0.8568563810530986
Ni 8.129871394945019 2.9680763856701917 9.488837551045101 0.21691086109156835 0.09880518049537178 1.102750259640578
Ni 2.793691917511551 5.839049185708217 6.932753460765061 0.700111133707833 -0.7852015357202735 -0.12648439157819508
Ni 3.5083418538503786 5.474505065663568 1.8549264998597585 1.046271093606927 0.68816835952366 -0.24248999511225336
Ni 0.6843055268218705 4.667333815061657 12.832133734865097 -0.3068688756089553 -0.18416631967069572 1.7170567388777656
Ni 4.759762930705644 3.885876759325689 12.724962982013812 -0.42086181958835905 0.21482415376586872 0.32325708715899165
Ni 1.717992188791822 7.126796518487404 5.332300681528089 0.9575459230553767 -0.32238985406268994 0.9017910367822599
Ni 4.366452841502966 7.246036992564579 5.664433299015645 0.7622243580988098 -0.4297431812383889 1.118577970701454
Ni 8.357528225217472 2.2217470038098943 12.028595109855578 0.5133446574101288 -1.3154635377110315 -0.15507891538643614
Ni 2.503340026253651 4.650857921829157 11.283080763788092 -0.025787393376749134 -1.4208594840500433 0.4309492857313481
Ni 6.0685131089149555 4.8163360033831015 1.1932142446474232 -0.7250300084366997 1.8296492029652167 0.5187272618782808
Ni 1.6425921580949114 8.835319909098041 11.0018076705526 0.26360672248621053 0.56535293215662 0.6116253328605983
Ni 6.325267823374183 8.344454461029624 13.298358179993853 0.11442514642081583 1.1392828073489734 -0.8368994783151974
Ni 8.920539092728703 1.4325821435174806 5.371919350139938 -0.8085888042959622 -0.10282690006025516 -0.687208566713552
Ni -0.026424124232984295 0.9362585371985657 10.215082385721473 -1.03724677862113 1.2307803984393384 -0.67470786314338
Ni 5.327641885305156 8.932192998182467 7.346485544097559 -0.46293226639584784 -0.39116197853108114 -1.0193742692160832
Ni 6.005578331519858 1.7380730480309843 13.085891994203697 0.38664506449733416 0.4691275965732824 0.6858152859104512
Ni 7.809619491514207 6.36048769586895 13.150300105531954 0.6528285465717854 0.32530934170233006 1.1036360046796412
P 0.0965752875447455 7.515164761706524 1.0990010857239234 -0.2990234114226076 -0.16658614469508728 -0.22792109615914297
Ni 4.774422511141947 7.280353318592202 1.19400623078546 0.46810969683172926 1.3466718449930355 1.1203047235845738
P 4.763165059750295 7.92792875953851 11.175599301590452 -1.0217306852634016 -1.173713221112701 1.9627593273900454
Ni 4.805290608815371 0.08485315511284869 9.665274360464824 -1.3743088899840137 1.4736491170472492 -0.29629649940974784
P 2.816907529799986 4.1583974376503745 0.10739663946807197 -0.22454498059805844 0.20701417080314666 0.45813381656594
P 0.45393990112037047 3.572069539369704 11.068131669185677 -0.11678027691655371 -0.3232025797719724 -1.1619617370037278
P 2.799832345543361 5.354619201252718 9.22331290393744 0.4795223095440451 0.36603227334298893 -0.9585378546550007
Ni 0.6604850915921642 0.2735394730656994 1.926742770232398 0.8360142474967667 0.04801972241238827 1.1832563847164461
Ni 7.828105314643005 0.5063732558004059 3.1765752648806354 0.4477840979004997 -1.1521396087069833 0.0332433354341621
Ni 8.543861634410986 8.682178002779176 12.168988713112007 -0.19257048457399092 0.4455793769396971 -0.44407039649433844
Ni 6.079798219892337 3.0563012442833903 11.032925626483774 0.1966824498598355 0.18857858980577843 -0.09035242174232826
Ni 0.1875052536422278 8.555487880279022 6.50002108600921 0.46001149320462714 0.37303441569243495 0.31860390465769645
Ni 3.7390135789672776 0.2812730932354926 13.13638733391033 1.2788474291498941 -1.729346354878396 0.8947582983051946
Ni 7.387543433153499 5.011603458767041 11.390346481217048 -0.7414737558150198 -0.13516777828480595 -1.4125522497359286
Ni 2.0549597018647843 3.8687554757595164 2.1650771225823866 -1.9397063022253238 -1.109436156301186 0.5310695854937176
Ni 2.7006542909815283 6.9604702096377755 10.787425597457625 0.17648643452793475 -0.8521432918481453 1.4920751849629206
Ni 8.021565677092658 5.889251333806124 4.115016143393209 -0.8097023490751151 -0.9385264445300804 -2.046528439487901
Ni 0.29550671605157114 2.460449228650077 0.7578661950678109 -0.17440358385697707 0.5309749688973823 -0.18856059208364945
Ni 4.258386840060254 1.5709538310571278 11.460272679898214 -0.2784525292497914 1.1526152627918214 -1.0812388679313636
Ni 0.1932953269214721 5.719688853426216 10.486477318906994 1.0807105062317195 0.7046707280540574 0.33249634636907255
Ni 7.81568616065074 3.996920776165209 7.370248816183425 0.3636881985908446 0.22607144454491387 -0.011690034743418577
Ni 5.545525661953406 6.293062845723865 3.2882397784266724 -0.05482414692873139 -1.852443060931281 0.9490543406445978
Ni 1.0606252544974928 6.457351565091467 8.292105007092966 -0.9514248977593034 0.48376128732605717 0.33169621906528035
Ni 4.641075648343046 5.570566806899946 10.465574969971685 1.5295328155887464 -0.05931509282054946 0.3606859214294111
Ni 6.854994989391669 8.807558904888161 8.941796406347533 2.173341418050109 -0.588053459077929 -0.07558811894896014
Ni 2.6733542798671297 3.475104251666181 6.639969369935402 1.5636163875360167 1.3617634492188353 1.831395496232362
Ni 5.337765293681923 3.585318480933835 7.287097647579093 0.25573117639287574 -1.7250652110045388 -0.8487594629775769
Ni 1.2270622016900374 1.8217617345846475 7.8355687928588456 0.5769473218624386 0.42073712108503675 0.07711972510213816
Ni 7.862320222189622 3.614066010368044 5.002907285013883 -0.5222527585330361 0.08711643130353383 -0.3332206261296068
Ni 8.064769950001159 0.5779654835286415 0.7194571723385055 -1.4322736394242557 0.325551025399491 -0.662399478089672
Ni 6.973488654654165 2.8670820183121637 1.8766650902702715 0.630615757920172 -1.1014094293419676 1.3461751078622752
Ni 7.313019289338003 7.029904989679158 2.0676084304185984 0.8184027050625905 0.9326764135072066 -0.9364330523361615
P 3.808374600113384 0.2386828631301724 2.527733936894136 -0.4364324203331064 -0.6269524501359719 -0.691069592330855
Ni 1.0953103750015007 6.472213982489781 3.246812172908156 -0.6213657000768137 -0.34385136637057556 -1.0154404813793156
P 8.840796507072358 7.757859186753573 4.45304578455816 -0.5800706979827688 0.7862063228357041 0.22842991747476143
Ni 1.0244004170545775 3.8472270982005425 8.903729440495075 1.0058145282537774 1.320551750867216 -0.09360306746914202
P 6.381453661851436 4.308515229262884 9.30626123557976 -0.0891108360257433 0.8025703660160243 -0.7186958386885558
P 2.8061295112276348 1.6263559812720623 9.712949344413303 -0.5875898891779494 -1.0706636635186788 -0.11563845000262665
P 8.88300503489462 8.064871368482166 9.983184418970593 0.31562168210092095 -0.9292869282096834 -0.4169514287903594
Ni 7.643883253826794 3.7604405380452453 13.361200758769854 -0.8252001876003981 1.2631523870121408 0.6691835908910411
Ni 6.139672003133439 1.8553865709690487 8.776073998452985 -0.04422888791138834 0.14185650315889117 -0.6280096877558926
Ni 3.9124484013492276 1.4855225906025455 7.374661442093371 -1.2997695240145422 0.18680067196974925 0.7263183882308201
Ni 0.8917173843131689 7.018389382154037 12.593421368176815 0.394388712998495 -0.42098497542978464 -0.07067936879343312
Ni 2.2793342612974103 7.595036425429602 1.6543078366234714 0.39289464495147175 1.1398314807635919 -1.2146791220021016
Ni 3.122324675418213 6.500408320209414 13.1895822491841 -0.0996256195141381 -0.8159197907397367 -0.9595886645170183
Ni 4.365208160145166 3.066922525203278 1.741129432254025 0.8203606001199097 0.14430753580254502 0.10701548422030603
Ni 4.0013647496056475 0.3623654666754054 5.001679199407522 -0.5889836842016825 0.16665222204633234 0.9044073913591844
Ni 2.4574435536675394 1.6949794134653988 1.0654426323452717 0.9577446693297441 0.5000289141378292 0.22952546453178535
Ni 4.176394608097962 3.29926304532582 9.46175512867177 -0.9223570338590695 0.5975660265540548 -0.1403881461434808
Ni 9.169853378626863 2.5350194717751213 3.154418092739425 0.49731922851614996 -0.2913034170705306 -0.3018827352482736
Ni 5.478958258965916 6.252477013597697 12.694601054759229 0.014457570186226714 -0.3867905889362629 -0.4551870752327903
Ni 6.005071239114828 5.15854961788264 5.638011940741233 -0.15230726617856993 0.6210713087648465 -0.5169470300494065
Ni 8.270483508928706 1.0238656650638192 7.784520261437636 0.10114257037929679 0.0565033344033672 0.7461405651630699
Ni 3.3956013824194877 7.665457730695316 8.820807846452292 0.36749445971081224 -0.2280884749749427 -2.3840140115414488
Ni 3.1937693853558944 5.019375802356856 4.178276381913717 0.4498674627920897 -0.33180446250837053 0.7518741252127373
Ni 6.83407512271873 7.490427872203001 10.831038310248724 -0.1978124496992206 -0.8626575611159079 2.0556841378452404
Ni 1.3633409805761996 8.966573863243458 8.677120908521745 0.385931069149445 -1.0903575424031802 -0.7740529753026217
Ni 3.0088189554488234 1.9577454778897019 3.487616526263733 -1.3735704691560926 0.15489456728977194 -0.9996739625736784
Ni 1.147089119485953 9.164367560790636 4.168304179272267 0.9787014740870693 0.52127291111827 -0.5218763490302238
Ni 7.676475465677316 6.4602650414549085 8.932336828028257 -0.3594798169364519 -1.0573186096703402 -1.7059272046235072
Ni 6.72402685096545 0.862067230398007 11.090491678288899 -0.14821946926244153 -1.5543681294648715 -0.7868745525473223
Ni 8.503865873447035 6.312655052281817 6.2724546103834715 -0.21622411943718892 -0.6751968869646565 1.4978123445570142
Ni 1.523019768988989 9.220415101339244 13.350176569884518 -1.3110484393624713 -0.5997275529817477 -0.6272782089065068
Ni 3.5116517842759336 7.345537742293249 3.6023982751214145 -0.9525086177417853 0.9965295034074259 -0.9134746437677751
P 5.597811498842888 3.9205250003820584 3.632030911298948 -0.18641937737093053 0.41535528794783305 -0.2881815836120972
Ni 6.267016735829174 1.8448021694967995 4.216114695190816 -0.31854708327783204 0.40619239050164235 0.352264015914303
P 6.429904036186515 7.136320635840047 6.766329421379191 0.03435456622046986 -1.1457869270160783 0.8299369309544352
Ni 4.98562188790572 5.654366131796525 8.05793987629851 0.4642196177487038 1.4784604223929636 -0.10068645667848465
P 0.8541870144238508 4.340286873403451 6.653611999603075 -2.4170231194776184 1.5580910868424132 -0.3029921662623685
P 2.5561698349958 8.866925595724235 6.56606203488166 -0.23197932538891664 -0.0383253779427598 0.38284985912096
P 7.089861751677447 1.877440480656871 6.308363206562886 -1.8617728229726387 1.1503663188566446 0.32566441104890365
Ni 5.774436393445567 0.7563550597008234 1.6481010255859123 -0.5127656449782073 -0.3254121858287815 0.03825647237803734
