# total energy = -340889.2718704564 ev
CRYSTAL
PRIMVEC
9.14906084582316 0.00000000000000 0.00000000000000
0.00000000000000 9.14906084582316 0.00000000000000
0.00000000000000 0.00000000000000 13.39057534910391
PRIMCOORD
 96 1
Ni 6.535100826261916 2.0524545198034794 11.070403636356776 0.6601831871646437 0.7403504408438539 1.797382115401395
Ni 4.619324123434584 0.31335532709238045 5.994478258216592 0.455966376600976 -0.6384367966264877 0.10656631249802936
Ni 2.770436202983089 1.267337029610617 4.721798177189276 0.4159055040243482 1.5302159576987002 0.24091493731564959
Ni 3.8455697665628525 4.48223459872941 4.903173729946733 -0.9473355581812781 -1.199587774886618 0.7462845469401018
Ni 3.777390966636067 2.6892108425764865 2.3361065066056956 1.3259436113067486 0.021963134534652498 1.373813181294518
Ni 5.5290701177340855 4.606735015987018 2.884209346634397 -0.7373826164647816 -0.4056570868234627 -1.7313965525392052
Ni 5.285439781817502 5.036347456695833 11.105179215868546 -1.097465099982239 -0.6061699661729819 1.3894506307214587
Ni 5.759040906107636 8.076003918219664 12.277376078737527 0.20938164259405875 0.2011075755107246 0.769092803083869
Ni 2.0189689578426586 6.737798264852621 0.2851551774661952 0.47291354597827584 -0.24678476583286532 -0.30628060720565314
Ni 2.967516118337745 1.8355943353342619 0.11693322919810233 0.6769205545239826 -1.4526311200346853 0.5879128197350069
Ni 8.173166942269914 9.145995709716919 6.409746801646125 -0.5663914007234632 1.0215566215793825 2.170387477628107
Ni 8.71499261179006 2.587116474838563 1.2316932042436328 1.4573691489403031 0.008451216091146737 0.23425398035570624
Ni 6.809600092794841 0.6895226151371704 4.529804224647194 -0.5739532722311211 -0.27368647531971574 0.5005346501296541
Ni 1.0146582727160953 7.658486535683583 2.1212545409480628 -0.7945318119822639 0.30173412548555134 1.2911265036275634
Ni 8.011695170945728 4.050618513739333 3.5976192442096844 -0.021426288194576 -0.06466530138886926 -0.2293974235943533
Ni 7.749547136283597 4.125274848602802 12.729938023168344 0.6367642940200712 -0.36284076298888474 -0.9031177260134834
Ni 8.338325785034051 7.608148404014612 8.422845722178929 -0.927902389157331 -0.37276522119144834 1.1772353753333467
Ni 7.19479384407202 0.9506880406860246 0.2600620488350632 -0.17144475833896927 -1.0388863711070817 -0.9962338265438778
Ni 1.850324322972765 6.866324268794045 9.151547359716325 0.7050576790798309 -0.3053490965303193 0.47263046752021826
Ni 0.36870165455844306 5.012468408412297 1.5107651712869454 0.4536158740909285 -0.21470536879981733 -0.5285097951863413
Ni 6.492621737687027 2.1913647075770153 6.8814705386918975 0.4523812303528789 -0.19848299340368397 -0.034636616237262934
Ni 3.48725595546078 4.207241282921653 0.1873672725738889 0.5300668552608161 0.9924481342492003 0.08888200784438886
Ni 6.371167957624214 5.733249704149288 4.685254999160886 -0.8864086407889187 0.9635162817061987 0.004719774073172517
Ni 5.253573603590852 2.9756770804331145 9.245026971950887 0.3730231028385253 0.47915824133640705 -0.30966932117222795
P 0.21712733704005227 5.831867428842099 12.655043812728104 -0.5136115379182703 0.6814158712911748 -0.6889432900164716
P 3.898414740848563 6.242129606286669 12.597612414341038 0.7494534315863867 0.37294057042704803 -0.13779621704658848
P 2.7624856692825555 8.702064989098627 1.2519602033845099 0.030800016099992118 0.3364892695785495 0.12420819394950865
P 6.269869558162409 7.859271820599478 5.9594218025430195 0.11470333978286697 0.5638521792413773 -0.28884724222055413
P 5.081681052191972 1.1291770648099735 12.587529234604148 -0.26856998002875687 -0.4637655609304206 -0.6340764627752628
P 3.9973984279671755 6.214545188441894 8.212560052689234 0.8932102370917844 0.42798686066891456 1.1922045950486693
P 4.671080359503536 1.005920919800089 3.6836798831671875 0.8609508628374463 0.7394664955770038 0.8630170013378556
P 0.20675504698677838 6.1192577218238755 3.4922485978547746 0.40854803521801253 -0.5461208233998853 0.5344469866063828
Ni 0.6467535013398347 0.2652889071815705 4.768611175791717 -0.19084861678687776 -1.2333358178713405 -0.493828184643756
Ni 2.1095629563497753 6.411149352643008 4.573765461046578 -0.42626576421274975 0.3125954936800875 0.6493799259015526
Ni 6.379209981931198 6.004766376911932 9.205725352138018 -0.08922910677116246 -0.9203955392573246 -0.8887995096185982
Ni 8.939226939139173 2.3299729763492656 10.098809992096848 -0.7099556306020804 -0.2571802501345764 0.5506644769065097
Ni 2.43101520211301 4.988058714611349 7.319957568226394 -0.2041599891838032 -0.010334806267104781 -1.1643541484953044
Ni 0.7345506320077648 0.040492827508851574 8.923907751995129 0.3045101455687917 0.9793331941337973 0.7944865605666253
Ni 1.7530881064373542 1.2675291598841625 11.56447578384017 -0.7223362636546204 1.2303129718846166 -1.611236046296509
Ni 4.086702408923343 6.737349960881015 1.6616633732236685 1.4817144105538866 2.1223024491954225 -1.4628108887811646
Ni 5.568237246355472 8.00415634497422 8.173928144115582 -0.5404083463961402 0.2878026030061237 -1.036935160917982
Ni 5.602216857591125 2.976033893798271 4.59817606975359 0.2171016369461358 -1.2071154507222308 0.28604576821601707
Ni 0.9216763693806249 7.536364874193683 6.699772938999736 -1.0228280320926384 -0.299018269216285 0.6460716874639261
Ni 5.392968691578575 4.556671356137398 7.429398631662279 -0.33992426340202747 0.30777776057646994 -0.6494640009749266
Ni 0.8467574564766432 7.90423030460917 11.64191343313973 0.3700061703890724 -0.9872581054078288 -0.13977673781172703
Ni 4.61533513299335 0.5012340321563267 10.404851560109591 0.06229911514953786 -0.6339882739368308 -0.0526281677186771
Ni 8.052435937998059 7.544150724802606 4.75062778218784 0.5781094604913398 -0.3234535194405139 -1.2421683285613059
Ni 7.308123258282045 6.167683699818035 6.868373658378533 -0.6560984755723088 0.513124828089839 0.5783431737687007
Ni 2.8578646265070247 5.156072064296736 2.571807351661229 -0.8638976041705961 -1.1829062004658788 -1.043861712834486
Ni 2.1481719922718145 5.7770554065177055 11.459774848724477 0.21425773973943746 -0.21959509279195086 -0.842845154375671
Ni 1.4324409780108827 3.713667759243412 3.5637411875471914 -1.1085308708780974 -0.8413729407055187 0.8871182652614334
Ni 1.624992108346247 1.1480881731632566 2.568941865867205 -0.314686057660529 0.1612415925537223 -0.6704501163082905
Ni 0.9543385158833928 3.2081364133021135 8.220433734280348 1.8530053611926538 1.5487721234343326 0.13853052410945174
Ni 3.836045594431374 2.762092259674819 6.912469385969398 -0.5492107751791186 -0.07267351640532645 -0.5129610488184649
Ni 4.204112304181051 6.602328123881618 6.071647840039253 0.4607440004952775 1.4820190862784992 0.13756841730649857
Ni 0.9526550887247066 0.34648590550017394 0.19931594577630202 -0.9917449375345887 -0.4205941677492692 0.6399573470360721
P 0.4467641847000582 5.724338519081026 8.015973271703345 -1.4853175545241128 -0.6710144734521928 -0.22711222710460244
P 8.678515306998312 1.7303801379163823 7.800063674635146 -2.2387119730361187 -0.8701944929229014 0.4611960004310315
P 1.8603333953184311 3.3371473174577235 10.43494007585291 -0.43273620242844185 -0.12136455385312646 0.5859068450485715
P 4.190068496090926 6.226008961430121 3.8174656820734407 1.033594269470207 0.9051517257243766 -0.24496365346372656
P 7.0385278882548565 4.160626818935209 10.431392070134766 1.425585428770803 -0.46892679341638593 -0.8945461822943884
P 6.651522622969961 8.00592211367871 10.135807878439298 0.010954442128974683 0.8251950453940757 0.03344953790769723
P 2.489596637423156 8.45212180133697 5.808175021395721 1.4115873147194982 0.910397290394032 -1.2287111746151353
P 7.157932278733182 4.165183051136436 1.45416267779432 -0.4434067947684105 -0.022448044590871016 0.3059918723206408
Ni 5.540863256905533 2.791314359375055 0.4369600513128408 -0.13484356217616777 1.3793076287501858 -0.09881417935643626
Ni 1.420666136960725 1.3083980137855251 6.907126334552698 1.3471462135262928 -0.6252521796154136 -0.8521769732995581
Ni 6.726014274741819 0.881506503712543 9.05971457839787 1.3627787778572273 -0.4145654450566861 -0.6177676983129102
Ni 2.952511658879891 1.8841941454806772 9.209582596105964 -1.039532746441829 -0.4623131447546102 -0.07730947251544106
Ni 6.743671961786733 1.9742483494097371 2.46165632111929 0.25549514912266963 1.5001345649322875 0.8573281784831945
Ni 4.341357362917192 7.1493047145449165 10.406231238454861 -0.8183615674120099 -0.11459612478104136 -0.4691617922453275
Ni 8.369679615864579 7.659858894780338 0.23862122521342832 0.084675425962209 -0.28785891016535586 -0.43043686487130384
Ni 7.947569404884691 4.095384867475479 7.963682730492724 -0.7597596986084012 -0.12345100406850998 0.49130130445684417
Ni 3.2364802031804256 8.670336046781653 12.347074537637454 0.8085787769936332 -0.4524187684590337 1.0584938609253642
Ni 0.20751807864457414 4.837639008546361 10.19346800334249 -0.7937543103862911 0.28425679463639436 -0.06097756812463692
Ni 9.081284403774601 2.767078497726362 5.481405341585593 -1.2851024089206706 -0.3274893800727844 0.48571172618420866
Ni 3.980802031957086 2.755120675463304 11.41768825485126 -0.21370752366292228 0.43674120982277687 0.2743801589526306
Ni 1.325332925039481 3.8714158628850712 12.61996082477866 -1.2509967254862133 -1.3258757341832907 0.2790716508910291
Ni 3.0817329914303375 8.661315072985651 7.9808097720202245 0.39301240147625865 0.11062788416191272 -0.08015851192846193
Ni 5.8550145522740324 7.652640285931406 3.3510721877594642 -0.6508832499199565 1.1955884239192376 -0.18119103909245568
Ni 3.313012095476127 8.302909771277127 3.50676358256812 0.027245465979514365 0.5488623907007644 -0.12549348841983549
Ni 3.3944936295807904 4.62366077818033 9.710925502083965 0.4507542362724173 0.27318999529927146 -1.1111567385367185
Ni 7.413621076579919 6.355312635526372 11.269133127345729 1.6466118546926414 -0.21417160778353436 1.90634289627353
Ni 7.9223088484437545 8.886162387397983 2.4499528427421637 0.653315770620849 -0.08823177585489966 -0.04987683022578507
Ni 5.131451942100952 0.609697975915322 1.6565481334170304 -1.2905534047329128 -1.7787341612829044 -1.1620668951230244
Ni 5.701584805256828 5.456371681848654 0.17318988819834577 0.6915802134186864 0.5994568158188645 0.4650040613232121
Ni 8.30902134378801 0.15722294756063418 11.18465161625556 -1.12176870972461 0.12834869848044347 -0.29540715482625896
Ni 0.04135466902161369 5.49832012490613 5.6907001678074325 0.7477408197706542 -1.6764561917475838 -0.4860611391038274
Ni 7.571122155584162 6.273840250482353 2.2832267658895335 -0.6976837552132629 -0.1652589412432315 -0.03786515047688963
P 8.721854407273835 1.5924123033892847 3.5061615743776766 -0.685809115262864 0.994490618600526 -0.44394801198386125
P 1.922931268251747 3.1731687035167973 1.4629073499588425 -1.129188913448081 0.867666327184409 -0.40664284777549964
P 4.702818450881155 1.1307324051196292 8.126753757617662 0.9320791462428398 -0.05520852685134363 -0.4132770652625656
P 8.836382348428357 1.9244408632581775 12.455363734338128 -0.14104943387656352 -0.17397009586398426 -0.38036823034968686
P 6.3550015674644404 7.84606057702805 1.1422748600294026 0.19235913989413322 -0.1600560568860534 -0.17788948552304848
P 1.9391159565328102 3.4108155537715295 5.70301937796597 1.4082639067732199 -0.3094080970910413 0.946523603802944
P 7.062443532780973 4.170855468736357 5.834501443401804 0.67752707775973 -1.437476266671118 0.7454538235086904
P 2.472076186287918 8.719676930840317 10.293428810137993 -0.13607717747295275 0.05914745689443362 -0.7149823943927105
