# total energy = -340861.767110185 ev
CRYSTAL
PRIMVEC
9.31388427987837 0.00000000000000 0.00000000000000

0.00000000000000 9.31388427987837 0.00000000000000

0.00000000000000 0.00000000000000 13.63181110545605

PRIMCOORD
 96 1
Ni 0.26431405707402417 2.738449545705038 3.294304005559829 0.24663589895982685 0.12052380311938599 0.26239496156629655
Ni 8.061939653762709 9.393890262850046 12.913073340630879 -0.2933885817343334 -0.32373634078825536 -0.6713325189132439
Ni 0.16538477539870083 4.431788167849063 7.7179630154543055 -0.7401360108402028 -1.0685473885066243 0.2073080478944817
Ni 2.3036681267338976 2.5145251465939618 7.366848216448842 -0.13601238567328836 1.0318721445727776 -1.1394090485141926
Ni 8.599183110610106 6.069103777737319 6.218981867665593 -0.27161159506855803 0.07606223037190127 -0.9646509095312742
Ni 8.289878336877482 0.6040016518007518 5.944682395555923 -1.443246593495992 -1.6198631258438874 -1.5588017397561929
Ni 3.5404028996964296 4.656541502636076 5.832983778917566 1.9310997915032353 -1.2208230301163103 0.9409191131319731
Ni 2.6526500463035227 1.888362039205285 11.40489100683926 -1.2867695122104486 -0.33990112347357593 0.5306492101268474
Ni 3.3128088302896304 3.0863603686147445 9.508515301840983 0.48797661095898537 1.0160279784516697 -1.8761098084206014
Ni 7.150492279475593 0.14503207608343902 3.302715374199593 -0.4968525732923766 0.830510544069718 -0.30546839571700296
Ni 0.6226648125585413 8.083454725801083 6.5167821318822865 0.22236571355855253 -2.0566722127901227 0.0532989685334566
Ni 3.4449449025876437 6.862805030505336 2.1972299917783418 0.5143152488535142 0.2495564150407315 -1.2881363106509878
Ni 6.953242844138501 7.430169588206456 11.852191217293857 0.6478861149648455 -0.19037270559172373 -1.1411404293830025
Ni 5.946691400334572 6.062202189693841 9.884221548769789 0.07189087260303102 -1.1928561125897392 0.24997113398064688
Ni 3.696261434540651 6.561407744288114 8.756475052201818 -0.45377965336230236 -1.5565692508812485 3.0554779138262345
Ni 6.277092121325602 0.06331205787361512 7.052689977764184 -2.735988264129475 -0.5749400616244227 -2.055479478033602
Ni 9.01447057037072 4.5181837558265325 12.129584761668092 -0.9685384175111383 -0.903120811337277 1.4356281577187855
Ni 2.6352889665288353 8.40304202746893 7.9985465650983 0.19586818148865623 0.982069619228354 -1.2677973419833197
Ni 6.159280802618505 8.387366760698114 9.62182242624602 0.5007030573867183 -0.7061735378518289 -0.6255805094891097
Ni 5.9172222713607985 3.47212281609759 0.663237954036275 0.06837591747123709 -0.6270200701491138 -1.9614305812762929
Ni 2.0119759076439423 8.457500307212815 4.099794772694153 -0.7843481865810427 -0.21194169001175114 -0.3818867238767423
Ni 1.189233964566122 6.465893863875332 2.8101981197052157 -0.8499349713429167 0.3766588998188997 1.4514342715131066
Ni 5.976020821048355 3.589133140780747 9.170555432596124 -0.38705361278966244 -0.6180407494686389 -0.139336822060831
Ni 8.833492490380397 8.849475115323191 10.4794681496112 0.2777272210479927 -0.4183207983340602 0.0003972354384186707
P 3.3392136914276347 2.635447302556823 5.228331086625262 -0.06020135208024471 -1.9668707784552577 -0.1828943949368076
P 2.1564249345890256 4.988357933994999 1.7015227320142055 0.9569918503241197 -1.9664010379076908 -0.04132482689071593
P 7.534168416942596 1.1460920538813826 10.870250780569668 -0.8834323317694142 0.8975386892638091 0.8283659869228895
P 3.1201883953001883 7.062736864434226 6.313027879960085 -0.17953396310500694 1.6729551205728608 -0.6706743165039547
P 4.405308795639063 9.483582965763265 9.874624522696912 -1.2173967780435808 -0.06786298239056056 1.2188234831877782
P 1.2731706871677786 2.943969710033506 9.793474514187848 -0.7898724588333815 -0.3331530061164649 0.42812467179835945
P 3.9977704873658637 4.532135954057478 7.921990164177686 0.9322064158493236 -1.0601082566003355 1.5290239942731279
P 0.19055740968359838 0.5468814640098688 3.013052650433085 0.3068143682219361 0.0957342548795319 0.8541304974815033
Ni 2.236878264574945 4.451384579783581 12.001569151651365 -1.215143977453662 -1.0895628144160268 -1.3566083873804573
Ni 0.978125469838077 6.356334646391613 0.622351866056165 0.695622244698544 0.22260893991761016 -4.2814454642579625
Ni 4.493762751980379 0.3055102973913107 3.574737601671435 0.7631054751521825 0.8434750746501861 -2.108663261145433
Ni -0.00974604821686343 1.8574026887916244 7.324317296554455 3.1160605605052982 0.09416151107577331 1.1496628650317169
Ni 4.361701190754359 0.17332858706170048 12.405424750191244 -0.9195475894347325 0.8256264765045395 0.6161121649873582
Ni 8.735799161111782 8.184100556297476 4.364387314899756 1.9657119822604663 -0.7558598493333628 -0.6416637882042174
Ni 2.060063490732308 5.616085773895557 7.384433760827912 -0.9021083109123625 0.13876706560029003 0.7512820001546933
Ni 6.381528702609708 7.237474642145019 2.743442718917061 -0.3513610444840594 -1.2652342092418338 -0.38423105573920274
Ni 4.033293640939179 7.555618291792975 4.359780667873704 1.8024595299243023 -1.8579817313613227 0.6762428117306676
Ni 8.79179423171555 4.790624176689942 1.5200556731139199 0.32401247726777743 -1.797206766165795 1.1562040085843444
Ni 4.596206162088636 5.340310982560399 3.815653319362427 -1.5376919543607712 -0.6927914601179681 -2.0946661755353926
Ni 4.764685009751903 2.144624243561917 10.91400927037516 3.498557150051897 -3.0564127669356784 -0.010405768714356273
Ni 1.6543134481869732 8.636718063127269 1.7229930974093826 -1.4919674557404627 -0.504239352674751 -0.6850817501785362
Ni 7.166754320938364 0.8809090114302243 8.709200571186592 2.842618339985904 2.749044325982485 1.8972720443205133
Ni 4.638593648169432 4.2700153166652886 11.090949781651787 -0.5590475587638823 2.8853580449462757 0.9206773321638014
Ni 5.194651150695408 2.8366085691736203 3.4906155327781923 -0.06786632482467021 -0.3936191818223221 0.5422315156478081
Ni 8.418503074907761 2.979176191550845 9.919350725049933 -0.012485276951204303 0.25450476018494234 -0.3637375637715413
Ni 9.342011928973966 1.138333588509969 0.898642646564884 -1.9363422708490974 0.8186837266381191 1.5859685299789719
Ni 3.4429889869477917 2.663416896206709 1.7046717561943672 1.3285072582688668 0.4160919090035415 -2.1595813881515387
Ni 5.394778576188283 7.466689327367695 13.651303894464286 0.0077940421231220604 0.2405087030161664 0.7455499827669225
Ni 1.9226650739746922 1.0598268602799024 13.55123273061065 3.1705154970200686 -2.040256490436261 -1.0741865890702724
Ni 7.3710264248109265 5.871863656284226 0.1771398283942124 -0.7023184257717969 0.19635026333139732 -0.0766471563410938
Ni 0.4674833970810694 2.2133886491287202 12.008466082752845 -1.496074535930301 -0.25274355451946146 -0.6264024911697729
Ni 6.641702738246045 4.852505621981266 7.277232818772814 -1.4530350403413232 -0.9535062057683642 -2.266489143149387
P 8.650623691938218 6.07915345857256 3.848410249387952 -0.3417772574503662 0.09461171123931447 -0.3775323035627885
P 5.8660517926686655 5.903111737101866 5.233074647746103 0.9143357062164899 0.11607116666467106 2.378374296757168
P 6.798464719838198 8.82988801727267 1.109845211521322 0.5616834537248326 -0.7867817357231998 0.17180882654660734
P 2.3177320915728346 6.301243022535776 10.913655342783187 3.281100186648872 1.482520194284634 -0.05550394660457538
P 7.31472399603518 6.49741204732895 8.14448860764847 0.5126766848088268 2.9810958993702337 -0.39256657218809166
P 8.179657833629811 2.863171766339612 -0.10665235428753962 0.010084123708879407 0.7653855294356108 1.1391858767597929
P 0.24454720106231806 3.7937684861292813 5.480137528876631 0.30764766275650884 -0.044549504475600694 0.21022573576190892
P 5.776731645115416 4.882393875735007 2.0729892989465313 -0.4433335183283139 1.5695798042083033 -0.22657743764705493
Ni 2.5921377419600957 3.9502603650854544 3.603568729591256 -0.3502289877621452 -0.5542079712833938 -0.4199434215391477
Ni 7.693398577794563 2.7547302149358077 4.908801531038212 -0.4422533978902577 -0.727659989860379 0.28393977761660777
Ni 6.769424029528392 7.7538363710659945 5.419762138627995 -0.5963264977199988 0.7339177978446327 -0.2610081085210989
Ni 6.950001612506745 4.634448969789746 3.7739392270947802 1.7140079247491125 0.386358900715483 0.20788448922324196
Ni 6.798045595058229 3.2928491768791393 11.7087164226151 0.41748313292411326 -0.21847743424773985 0.4419209542515034
Ni 4.46013963074292 7.649027234421916 11.205293541345947 0.008098203627102181 -1.6428523876502092 -1.6243571570594992
Ni 1.3812955665156068 0.6226750578309406 5.688077440268117 0.9293908007773994 2.637685991412451 -0.27932798987620927
Ni 5.742074682754036 2.7047798550475832 6.6901656708595825 -0.4646063116641611 -0.8266320349509182 -0.37434182164994884
Ni 5.315591934426268 1.128805485178689 0.7324587399190435 0.18807928157185672 -0.274476832431495 1.0214946579931956
Ni 8.74998420644271 7.420408637775193 1.7657969141049477 -2.9593011720926454 1.9369495654157929 0.47660205057345667
Ni 4.019890961864192 1.0980882957490106 8.031522371397807 1.2643955153906223 -0.05134081636582127 -0.05879984374702776
Ni 7.415183548851589 2.2870987270991496 2.209280294896631 0.2172913843594387 0.7266582880687421 -0.4487672877493755
Ni 3.5460657411680017 4.911974771316772 13.63221974614973 2.0127230609026823 -0.4927277524907256 1.8674323352512614
Ni 3.889636294134036 0.05963679924749288 5.736361546308868 -0.25178247615777277 1.0239942844865977 2.0186615378743045
Ni 5.084104661507762 7.260321599595292 7.272639211184361 1.7972872416947434 0.30044086059542446 -1.4087184778121353
Ni 2.0994053367453347 8.591080031530717 11.180143260382646 0.5690182968233491 0.11140564286820169 0.085623134587459
Ni 2.148796863593602 5.906148063285635 4.676624099315359 -1.1289994231450944 1.8135967774880444 1.4432561065776885
Ni 0.9234976774054056 7.318999068790857 9.242313320480301 -0.1552879460734487 -0.620762519275176 -0.32258474368231543
Ni 0.37823869198821414 6.657219668988873 11.731359406005788 -1.1672116725487578 1.6244977964024216 0.5020747409232643
Ni 1.4214290926685738 3.177384956939865 0.5561767202411663 -0.8971807917037581 1.8278957106092195 0.012614089219584729
Ni 0.8639968608643024 5.074157433396515 10.108369481096847 -1.0197259961285472 -2.3120264654595535 -2.145355474360144
Ni 1.8277379682538664 0.8309828676403974 9.322822533770216 -0.48476401755895865 0.7422301743650701 -0.18316384654811035
Ni 2.4276638644165263 1.5413267213915123 3.306000381086145 -0.6675182873734762 -1.2352937129286599 1.4627098444269262
Ni 3.1674749843646146 7.149719227103652 13.04800078396348 -1.6738866312481948 0.4186347300300532 0.10966346336611436
P 6.0067100688260355 1.0553003126562444 5.055466330986728 0.3818697545958778 0.28040425365952354 0.14417075311436459
P 7.77520242096038 3.0257735531993237 7.7208670844852865 -3.77704413208405 1.0143626749341046 1.0126454351326817
P 0.14345337274555833 9.132170122469825 8.248908423941378 -0.3652439731137387 0.5824111731904873 0.8494564890446016
P 3.49514673734385 0.11760268770551204 1.4483117560557421 1.6321051764360341 0.5116898954155252 0.1359103128777853
P 0.7730002141911795 8.376860699546908 12.886791422761666 0.020938807035196197 1.2301003416531782 1.8587165526448182
P 4.043920782582376 2.463382609553827 13.007774118970522 0.0677285136952253 0.6629869751620259 0.6073611582676055
P 5.8604914039210865 5.553962167620252 12.310152099374045 -0.2722163185320925 0.3737754076235176 -0.12226006908420232
P 8.259244972403797 6.11475112321787 10.012850943742066 0.3980085691392694 0.4865450207187814 1.5731893759364326
