# total energy = -340892.07336365135 ev
CRYSTAL
PRIMVEC
9.05630155855683 0.00000000000000 0.00000000000000

0.00000000000000 9.05630155855683 0.00000000000000

0.00000000000000 0.00000000000000 13.25481275594161

PRIMCOORD
 96 1
Ni 6.4467283661116355 1.8912999347081854 11.49657562696885 -0.7691257132043334 -0.564589314517718 -0.6055189628525443
Ni 4.651207878197012 0.3593214488237574 6.084118574140115 -0.9778782068548255 -0.5318010643431036 -0.30045474455249543
Ni 2.559401423820762 1.8305502628954766 4.584932956716305 1.0387076794373724 -0.059116603656498186 1.3427239160888813
Ni 3.690814251673108 4.266215436570586 5.117881821758496 -2.292966620614625 1.1213869009051591 -0.9295100999640831
Ni 5.008641993746206 4.453019771764494 2.6422674900183574 -0.03897381016003611 -0.07766197075885334 0.3444062104327811
Ni 7.289725153680837 6.35318582583831 2.5119590817280284 -0.4583616163060299 -0.5382951567078793 -0.14734195175349463
Ni 5.182486761205473 4.567255961425424 11.22626947319791 -0.5225497209481645 -0.4216331505367448 1.0739981272085504
Ni 5.777857091354444 7.86616781327397 12.4114622430736 -0.9685409886142998 -0.01921951035124432 -0.522010560615243
Ni 2.1244181968028397 6.330898267351268 0.511644820919917 -1.7493999310951613 1.4018217506923019 -0.8723637326600783
Ni 2.7828656683017683 1.565390805381418 0.4534336304740988 -0.3788055138482573 0.3895239287070259 -1.1573455783879552
Ni 0.7221259512818571 9.209443763127883 4.7096735507206375 0.01837541718339416 -0.06338180669075535 -0.03386939905393522
Ni 8.698097800164112 2.387757337674925 1.5693828231713765 -1.137598477668015 1.4328703924679904 -1.1150632726799763
Ni 6.728225391894943 0.6140996676975493 4.827376492672847 0.1901330787770919 -0.305432657383061 -1.0658729269982545
Ni 0.6731395097490419 7.306470255526648 2.5386941899806073 0.7419656078497738 0.07502067648126434 -0.11024813222499079
Ni 7.313045130561833 4.0937562832716266 3.688244073250263 0.98444943231444 -0.8814795789184173 -0.6065335201599876
Ni 7.37931914641237 3.7004048751748466 12.669347679061127 1.577231150105974 0.7624817255252545 -0.16990132511124936
Ni 7.641997177260257 9.011282825600471 6.874529040250211 1.8784281721411327 -0.9603779931875331 0.003749696850419349
Ni 7.053527749007721 0.6461979178176722 0.586140147454947 -0.9469498927070852 2.255455768153361 -2.093932125582845
Ni 2.0152897613014766 6.560375896161976 9.205109417133613 -0.15046558498414087 -0.24940034907884145 -0.011260660515483831
Ni -0.01056055341395347 5.079100020982771 1.4423093258487727 -0.3031754859177682 -1.374825424609116 -0.5940798677776672
Ni 6.420175289523255 1.937287834747681 7.01897976927738 -0.36224940926178906 0.7042045870509163 -0.0060019832197057916
Ni 3.5036023829026375 4.214005857262257 0.27970297241626924 -0.24832022864078523 -0.04583891271098557 0.46331587498751176
Ni 5.842962844285506 5.553088739428442 4.836085032388873 -0.04496010965045805 0.24738897507576746 0.07197263368355991
Ni 5.385085286566551 2.7480532445617487 9.29540165072632 -0.04347992556050576 0.6141984929044132 0.24048633441866324
P 0.14220023805438178 5.36427390525683 12.48496047079131 0.08053543565190646 1.472696780436309 0.15099986022105608
P 3.9833418529286706 6.103059829148505 12.512980668255313 0.7219313149067179 0.508630282653595 0.7367663230370215
P 2.081618114962222 8.631995854045899 1.4328581693932356 1.9924928498987362 -1.338938995125152 0.0802155904186425
P 6.3054953410789585 7.559458043554081 5.634541116930455 -0.5568245829706346 1.2711210070399142 0.16646324596397782
P 4.709267828404418 0.8956637101134477 12.627316477234956 0.6191491520414693 -0.34069970811547134 0.5212636551468893
P 4.042189701384094 6.0386514114484475 8.174441606297682 -0.10962438259806283 0.2623571663498256 0.3225261225302381
P 4.684453561742697 0.8872431607915251 3.8235234855444666 0.4143044780858155 0.2342663216508804 -0.8345890850144658
P -0.033947546927540165 5.539631075100224 3.7068276043414494 0.7503219502342691 0.7143115935779311 -0.2311678852312148
Ni 1.457657040342064 1.3805516876567028 2.4947548253859586 -0.04652951102010696 -0.9648856512498994 0.978198823419038
Ni 1.6933382358182028 6.644934585147555 4.98285508028176 1.03321220354044 0.21364401741483852 -0.7458700851105026
Ni 6.033326306048049 5.524226305906214 9.126296951577546 -0.3909552618369138 1.6886483629384015 -0.6435484068214401
Ni 8.602879844076034 2.1596924919296288 10.13657812165355 0.2571280567404023 1.2807711285351686 0.18052769447684394
Ni 2.2794439693266844 5.240990470196245 7.046801633734122 -0.3457496118345529 0.04937675066091496 0.24892160967021001
Ni 0.7210156486932706 0.10303173319600878 9.30713227832009 0.7206773878949588 0.41306494925175957 -0.4244518509324625
Ni 1.5062259863664467 1.15824664979347 11.424031933450463 0.031201108193152718 -0.10922534738743124 0.13511764177316085
Ni 4.069403887996675 6.470446820267492 1.6931163564265193 1.3981293894423792 1.2621905373195035 -0.3566289777512181
Ni 5.761619142403909 7.985765333542102 7.861707584686051 -1.040888489138775 -1.2448168219277465 0.7817840253982923
Ni 5.238998083821946 2.7092288791680272 4.950818413013206 -0.06546028648633888 -0.9733890607352204 -1.0578762819460235
Ni 0.8044576956790721 7.79380796268012 7.132560282695131 -0.37790819884496846 -0.9827877283413009 -0.18153325292322284
Ni 5.118531158590483 4.401652428514393 6.967604275355748 0.029426532791233192 -0.014586382454607135 1.2807083936180332
Ni 8.238164461958949 7.477344556027869 9.114075472431562 0.16328124869157043 -1.2454853087496809 -0.5134606141627028
Ni 4.7251616378903005 0.09388667973797755 10.477333246359352 -0.3744112414353036 1.0507453273281968 -0.4496530327884385
Ni 8.332648857609215 7.396689133075576 4.772951741968367 -0.698987561626351 -0.5693795368175097 -0.146366989434735
Ni 7.397902677503557 6.341086606765296 6.930889122628272 0.480463847521708 -1.3961229005353117 0.8017452990115677
Ni 2.070913566351217 5.385891297417972 2.6574576248620447 0.6286637764001238 -1.3908606236951078 1.076422420379327
Ni 2.212282435909414 5.271157011163468 11.63616131072205 0.2943488887650737 -0.7145527630544596 -1.4299851005003954
Ni 0.808351905410656 3.4094530704153203 3.8247288793009178 -0.09419724940971518 0.3494440299670046 -0.2570144139806735
Ni 3.66168012909984 2.45928400851225 2.4884317155380704 1.2729778577429949 0.1826686520792467 0.7478349221463573
Ni 1.1983841789338883 3.4086470595638994 8.437629506931355 -0.46355884423625326 -0.05489073850060869 -0.7083834010189543
Ni 3.5315591862547295 2.443951689731851 7.018065988435714 0.7246520562719908 0.9561043055128435 -0.6052790789275964
Ni 4.070064998020873 6.81637037635426 6.105710608656493 0.1895350401817768 0.31944851204617886 -0.45274118479545894
Ni 0.879032717669074 7.405292619691864 11.443211369193598 -0.13163842497530878 -0.7223174946015432 0.14301169980925693
P 0.09518535340195229 5.5037228388543395 8.012733188748406 0.7663867170066156 1.1480734090574098 0.049970675491172005
P 8.699003430334248 1.6923510989327546 7.882240031903369 -1.1278874210278382 -0.17920460479004618 1.1609170977892975
P 1.7605722196490838 3.150651136695615 10.566219941928011 0.7090524020615209 0.39839320617219776 -0.3310827538509975
P 3.794789651506399 6.145796516877214 3.7875228750212293 0.057799941727603686 -0.3111821582723286 1.1023805350059854
P 7.082118493478907 4.129800364043031 10.408249060090885 0.600637980611159 -1.1928149749391586 0.01612261659347546
P 6.3842308280705655 7.64782037925423 10.113727261200683 0.005938734081938159 1.0263692124766777 0.13991274916895902
P 2.534904127718589 8.507372086333513 5.90368081904226 -0.6064910969578264 0.2998898731879609 -0.27996228102609855
P 6.757395739675018 3.828116841767396 1.5239718095502575 1.2247095096549103 0.40351175834568576 0.8265538734148152
Ni 5.2847414637155055 2.7450556086985993 0.489609027620173 -0.34699531131619593 -0.8868770957849049 -0.4426550042040505
Ni 1.4964814057357856 1.1956854010268836 6.953859526263596 0.17344610503971422 0.24863210345424924 -0.07441029659077507
Ni 7.010700498262 0.6951028526351751 9.128019460161145 -0.36340691990499996 -0.4068940445543573 0.8284762872485085
Ni 3.023002564214975 1.7619850027144957 9.158240338938576 -0.4713189477976463 -0.46226146558106834 1.3553308062196143
Ni 6.430916063341065 1.7996773303955473 2.6103105182047757 -0.6286678901651819 0.41855502583205334 0.3328300755594074
Ni 4.367238482049233 6.790052763610114 10.411337258971047 -0.9837850592575638 -0.3061289121191373 -0.17243668993859335
Ni 8.252437193440286 7.308181896548204 0.13054568339490427 0.33796019769712116 -1.1129765653542767 0.47996839594252816
Ni 7.35830852646522 3.8396726827383287 8.231451025507731 1.9142168997049678 -0.4431340007229982 -0.7137408086761255
Ni 3.023871969178306 8.432874948538142 12.450299287289702 0.7185436293814077 -0.5279007008474328 1.322005452594607
Ni 0.31081318002077396 5.094142538108726 10.148574098887169 -0.854479910401122 -0.9402298003744323 0.1747450263567958
Ni 8.491940148234399 2.3218002923839354 5.691484425138082 0.5406119777665142 0.12400199147597353 0.05088393133406075
Ni 3.8463562333939305 2.50250068023113 11.588325019505307 -0.7033674358616016 0.8580853683641931 -1.03099334151225
Ni 1.1177106433781918 3.3725395846805855 12.717768101737608 -0.6208350243843244 -0.6010529566613907 0.48229678696538875
Ni 3.0715262287308507 8.490047381178815 8.106709525873228 0.9075685626959853 0.022209446217503686 0.11597475029612285
Ni 5.5535143856084055 7.578965317418805 3.5887144119221692 -0.9880029539936532 1.3417263280623022 -0.6306489251509526
Ni 3.0110029644606757 8.584042736537208 3.480329498790488 -0.5594797612052945 -0.9238883829019314 1.0345391498819796
Ni 3.433497551432426 4.393012716691297 9.559132929462077 -0.22677027038415137 -0.45093241372149434 -0.4785198364214598
Ni 7.384816321545094 6.192128556381361 11.305639806938782 0.3795984420631978 -1.1016727103056834 0.4921453976246944
Ni 0.5035937687074099 9.324821046803182 0.31684739384438876 -0.6209774634994596 0.045184309846122185 -0.5220403854119138
Ni 4.352857074947477 0.11354066569026453 1.5653002423644042 1.2184375606032694 -0.42373065649572184 -0.46890905280457307
Ni 5.914634415950053 5.419779978384454 0.22932276605161514 -0.21587547784851852 1.1744395577557645 0.33901306444166773
Ni 8.088472851137203 8.787909144136478 11.440640285140585 -0.796417459040751 0.9976505043857463 -0.6282179471119568
Ni 0.13765940838132093 4.93750474388204 5.8151382629382535 -0.9541656937292342 -0.6753087299521725 0.19140783172445747
Ni 8.069617630994975 8.797680893672242 2.4697295468945963 -0.22369163145882764 0.3927568338220268 0.9302307801801915
P 8.432684766202414 1.542695713317815 3.5916432198923887 0.14530023873311748 0.43812600598544543 0.39654406877860093
P 1.9289560371824315 3.394872424676134 1.6119836663745641 -1.1613166472205612 0.24124918072661677 0.12673224592294302
P 4.9184683977057855 0.8991721213925536 8.280307961926217 -0.7299277028486332 0.6667667539194324 -0.04324724072440939
P 8.391578212779951 1.741680774300051 12.444639098726356 1.1795028312112847 -0.08018679406323609 -0.3435225222762471
P 6.449246017984613 7.89418801073797 1.1706465380829691 -1.335387530328468 -2.7196735861298516 2.5746186306383207
P 1.6707155941682106 3.3587015556809106 6.021197201179421 0.9810956853508587 -0.8179139383516301 -0.5284434607247803
P 6.841347656446605 3.8216053608441194 5.806257653489902 0.6901385958761533 0.48038105799991454 1.1512836884645916
P 2.5249784210539 8.33268508281602 10.406870690971937 -0.1728868901021345 0.7601114255208652 -1.499354235122837
