# total energy = -381165.81557905895 ev
CRYSTAL
PRIMVEC
9.33100196129818 0.00000000000000 0.00000000000000
0.00000000000000 9.33100196129818 0.00000000000000
0.00000000000000 0.00000000000000 13.65686456250060
PRIMCOORD
 96 1
Ni 6.0777387068208215 8.287282614649564 1.6879474375889947 1.0604548413064767 0.5586343824858637 3.1914915850511036
Ni 5.6323886517825175 5.185275037399547 9.529172707262024 0.331533468235171 -0.6848256683036722 3.140884561527513
Ni 6.616482759111857 8.704537023196911 13.006551558273834 1.481121257054578 0.07294862444358403 -0.5072555137932554
Ni 1.1346778147591114 9.011284377146989 11.449273604022617 0.4083045517486387 0.17933650238222018 -0.27964089313093776
Ni 8.999480659840094 0.43510461503595604 6.798291731044231 0.345729814340211 1.2276493090095244 -0.4763678230754635
Ni 6.252200447917268 0.7187428098696247 7.468475074323493 -1.8425036903303815 1.195044635600626 -0.09376813229209657
Ni 2.6895399726381917 1.470780500446333 13.5095345460758 -0.6079327145003595 -0.6058714610959565 -0.5107923233019204
Ni 7.74972359959013 5.061424650194481 11.142048502779172 -0.1346730980365745 0.15363035586536766 0.4458488285509999
Ni 4.908573509321568 4.49427702835231 6.238578118354948 -0.7228222021521035 0.571417393183145 0.6646839032484747
Ni 3.5258590040866724 3.476106102363067 10.12816237282734 1.068700626255037 -0.8854763587826363 -2.5860993775844108
Ni 7.595267526403551 4.193968065660541 4.130955810345554 -0.30629346272145963 -2.2232403597630808 -0.7143108222469827
Ni 4.952606506927286 7.180747101390526 0.2955361552589817 -0.7562853669065557 -1.5791612772491512 -2.178768245492635
Ni 0.9861935827396568 7.172657122809438 2.7019828635700045 1.6698921653768206 -1.4925384977525844 -1.029581291656072
Ni 7.440494199154968 1.9058011364658762 5.600474759345332 -0.7652744577790433 1.4822034343751633 -0.17873357869089865
Ni 4.866667980131636 0.2895232576838333 0.4174783525911154 -1.506118036209232 1.7030930776088216 0.15043653151841832
Ni 8.346562469235097 8.052122706690392 1.3657134199122374 0.8558708772113776 -0.25813387229709733 0.17086831701020896
Ni 5.790315857647489 1.5857011189061836 3.2121899129838263 -0.16490875699266438 0.3066917266011428 -0.3531713582199208
Ni 0.6330310264182891 4.05654107080209 2.9799282141910757 -0.44512223479762053 -0.12607095818986028 1.3868350474754827
Ni 8.082000574529662 3.6227707890269136 12.934429445878434 -0.0466827487685196 0.20085612162155086 0.588057058622355
Ni 1.205108216523885 3.125288426799978 9.502459915241332 0.0576634161497394 -0.10325755983977056 1.4621076920665528
Ni 2.948316646212975 6.304584692155138 0.8838520878382443 -1.5042401024602288 -0.24638881594602724 -0.006774085499039947
Ni 6.756606413497338 9.184075868917004 5.2161167977271985 -0.7990592675389723 -0.89733274390059 -0.2254330396299666
Ni 2.0585776293242017 1.3000604910811635 8.581823152013964 0.1563169015585953 -1.1030865599340745 -0.6430670963096473
Ni 3.0461428693319323 1.211593262791309 10.908980605428857 -0.1716879846980269 0.179010229391053 0.3775194480469821
P 7.942203505208009 4.22019751178677 6.132123517849679 -0.33369242355970274 -0.03226991577729926 1.0351202191964302
Ni 5.913326454688428 2.4845845175821166 9.526400466620222 0.5417903143453315 -0.6748446458315603 0.8850187024199274
P 4.052948635099992 5.148090995132375 8.310925507070282 -2.1725253499067163 -0.14318447794169534 -1.9410898128364118
Ni 4.282435293950395 8.680211101442705 6.32002843327343 -0.5944470213090989 1.0612953349299012 -0.7597699830210464
P 1.2203737355073467 8.201680003919565 0.7280514172888799 -0.7094954031362103 -0.5941143205600283 -1.5510439501876447
P 4.882847937293814 2.510580688662755 11.407783304413837 0.4787738614137948 -0.3767946540658156 1.3314023204284748
P 8.563592240650953 3.4155012455185774 1.5314534736041345 0.43755444975269164 -0.5932584003176363 -0.553864471901046
Ni 2.23666913013004 8.467193660811011 4.684577211944188 0.25195602562115965 -0.34859042371745774 -0.7356774608482168
Ni 7.363317483071709 1.3818093980580024 11.41875003085715 0.3970171517602775 -0.6141324155531681 -0.7142228905188668
Ni 3.183541871184912 8.415527903713562 13.009597197269068 -1.7212923742256678 0.0605124555627603 0.3987400479886552
Ni 3.0082776639316338 4.026560561942761 4.938240496519622 -0.08313790627176004 0.9338030709124822 -0.45574243351562804
Ni 7.181614884560124 1.2078048760509146 1.3007957740248655 1.3862053843112836 -0.5778875742885209 0.2253451079018506
Ni 2.5652510283474146 1.0928189405782986 6.196051144443563 -0.625807023677619 0.09056016687776015 -0.032487945325376306
Ni 2.431304497169178 7.738582383412713 9.946581077339463 2.1012330301196327 2.1420724327334977 2.1313882135467748
Ni 2.8220588605374117 4.224004560530812 2.4861092032800975 1.575299994521532 0.4252671477449063 0.4641828509734974
Ni 0.41585942377471524 2.109487575273937 13.61167355823764 0.45702567110342585 2.422937428079524 0.42586132968547946
Ni 8.956166149374795 0.1717230920612099 13.08819222562952 -0.735713713402791 -1.5251681108621473 0.47863476473276917
Ni 7.987906752140158 6.427865888248963 5.67976681354201 -1.0371431631637298 -0.9360191047271945 -0.49448818682525814
Ni 7.354527679353848 8.124475294830836 7.3320567607621765 0.9398924716396716 -1.24863928099763 0.1966066023165775
Ni 0.5865682359376962 0.7479665744810575 1.8155983418368264 0.7621037733605456 -0.616609159228435 0.26546614429245247
Ni 5.2065590525592516 7.550973260746771 8.039646224152015 -0.44084134803407954 -0.5766246484156973 1.5521428396787784
Ni 4.617175653371366 8.691529606654768 11.301792454699202 0.4148207556006017 -0.24779340960303778 -0.38435009781557034
Ni 5.3248761556829045 6.89968799546091 5.176183842322783 1.046276492923566 -0.46767929416253007 -0.11178102392974942
Ni 6.108764287884398 6.736871344640356 11.71130773033403 -0.5370808246848041 -0.32859341177024054 -0.16946423757383072
Ni 5.833705016127376 4.467049165030952 12.716971381478878 1.2757682760039384 -0.11247367912139984 -0.12807179066997298
Ni 0.5361173752776833 7.7615179858952 6.259828541908086 2.0589468677569123 -0.19451963788056176 0.2557476314531079
Ni 8.894926784406298 2.811206905416528 7.581157185445854 -0.42722144325779965 0.06844070927090148 3.0212866126565063
Ni 2.8011854094579474 8.706701815619995 2.06801780386917 1.1112135599165829 0.85324012445675 -0.014101215288072488
Ni 8.74599466429931 6.862765221244799 12.645900872989003 -0.5744533517959913 0.2794128362805317 2.4302648149788726
Ni 6.491130080613187 3.25077173932418 7.389948162276354 0.04074118647310403 -0.36273971863464627 0.21543659053888703
Ni 3.8461456416828375 6.569538488937165 3.0488544584618795 -0.8998922770976502 0.4825754945480721 1.3311737493574365
Ni 4.500015594473844 8.928770328020612 3.8744801618204785 0.6909924592360165 -0.001478127207423261 -0.31275773028956455
P 9.039715939703594 6.740622407373457 7.7938359107113495 -0.7063224047248674 -1.1190322846300536 1.6686066137961777
Ni 7.434223765929487 6.825963750052394 9.597798493274107 -0.4938320412984979 0.8243311547318836 -0.8672060997185388
P 6.098528178883874 9.196000889247605 9.834471889729071 1.4927017628033261 0.11377877108606857 -0.5463784479366461
Ni 6.480865978607191 3.8020939820734716 1.5799354928793612 -0.5074177504027325 -0.1545929768889531 0.2245964026612842
P 3.6555972534424503 1.513945714882454 1.8271519882948475 -0.2839788583846593 -0.6722514311830874 2.158756321147082
P 0.6808085550558315 1.8732919261123426 11.475276306804531 -0.1291125732296615 0.39200067238229264 -0.8068481674557716
P 3.413177826064493 8.97144099936008 8.291710175014877 -0.43876209690754764 -0.035046192970855775 -0.14006727246895231
Ni 2.162347700604812 4.07925272924081 0.321161885567222 -1.6446377616854062 -0.2278318788794463 0.09813566523217292
Ni 0.19298284661617282 6.597288888360647 10.670817981082841 1.932869738919465 -0.981339940151181 -2.450959110103431
Ni 8.408119088265597 1.5808583289597185 3.3487724521772386 -0.5240659004823748 1.036656967555931 0.6812132683620656
Ni 4.177452192432712 3.081208774185141 0.5784679932546014 2.0029788370317245 0.5896884235781908 0.9636736332196693
Ni 7.053033679430476 5.994515501555848 0.4488407828205246 0.45165797903360927 0.06498026152612679 0.2847514748846257
Ni 2.2880269641673103 5.226350107427176 10.389773804756143 0.22283648254738397 1.096413518789273 -0.7621652227261003
Ni 1.9147962222238573 6.409371842634524 8.433414501109281 -0.8373378514041967 -1.7655474873893016 -2.881387490334302
Ni 6.181284834057665 2.0851149985106106 13.205314027419563 -0.9844527747485498 0.7903578831102324 -0.8015375538761357
Ni 3.0544287989513172 6.569650460959049 6.207071990697454 -0.21731966649421283 -0.8228579126204667 -0.47428060152913154
Ni 0.22524011992046836 5.524662235728688 1.042484717441081 -0.2915363590169431 -0.049400147699682664 -0.8248970545376827
Ni 6.848628753481996 5.646347830510671 7.808721657920589 0.8888576165500434 -0.5489937740723061 -3.1821497388248874
Ni 9.124917317355177 4.829185345806106 8.932313309413043 0.2548942823138771 1.95195503768569 -0.8149378864424417
Ni 0.3068761217752416 8.510424192259897 9.09414740574157 0.4133891653603977 -0.5354674574510971 -1.1866872647748659
Ni 0.6732448449775955 4.954920595379546 6.203083920518034 -0.13580849719259835 1.7984650640529285 -0.44119127517433043
Ni 7.970476440733614 0.7819687451263722 8.934470637034668 0.018296998536974942 0.6680577048167139 1.3635552510119355
Ni 1.8504869576553862 6.573494833710385 12.283038740271968 0.44806949035140253 0.4070457396408732 1.5897627069140814
Ni 2.3055412545902674 2.1059511255827807 3.840952006067804 0.747128640107952 -0.7142892249804279 -1.1195429057178847
Ni 2.0651653166116857 3.3948237454774093 6.9048424408682845 1.8290745614086692 -0.9242429380278727 2.814284526038218
Ni 0.35647319576839226 2.5774466477309015 5.661316623636141 1.3752835951924574 -0.5335920948052553 -3.7817754761214486
Ni 5.2691234197867045 4.609860147941639 3.8022208836982725 -0.3363476017943627 -0.21345709821501302 -0.3397617696822342
Ni 3.7196825739671544 4.240744377802407 12.3463925102537 -2.1064883649813013 1.3867003216698313 -1.3192924245388182
Ni 9.013589134597424 7.955238914755623 4.199594659760191 -1.292044901676775 2.478410264335848 0.2277298060839433
Ni 8.019100291236558 6.058656808091495 3.110241253259189 -0.07123858373101279 1.0543474428571582 -1.6887344948943046
Ni 4.796713459459868 1.5824725922752068 5.345801860372582 0.23617150909339327 0.6127298787786867 0.8009287166475432
Ni 8.211225618785141 8.374508819696874 10.981949039689658 -1.743744532581597 2.4712438284943956 0.795301857379069
P 5.3721376799196 5.719754821857183 1.874882861923272 0.1020213734398243 -0.5676700103255707 -0.2467955644661427
Ni 0.9513889459375097 4.457578198179966 12.024458950835664 -1.6878505496274545 -1.4385995816422839 0.07835565439176827
P 6.848824704520292 7.802191822844412 3.6410978097087088 -0.3605506814031274 -0.4017901476688887 0.14614304634938702
Ni 8.261575704625459 3.1217613081106452 10.055862971397293 -0.2861043893680944 -1.663289572458639 0.46911422683684373
P 0.7579087569241373 0.7596956437733627 4.456876506842828 -0.34152631778182474 -0.9613547552785057 0.5388536003145107
P 3.869501139247388 6.456838648911339 11.449655241997203 0.5063995935508634 0.6174265129234076 0.23225854719223227
P 1.7200395521610121 5.769339765547964 4.284089680573725 0.8193879517939954 0.06940075919132564 0.3168480983088543
Ni 4.307433047835905 2.2864686868627637 7.839928260419544 -1.0583902454679643 0.034822249885507764 -0.8561482992424804
