# total energy = -340855.382559108 ev
CRYSTAL
PRIMVEC
9.43808997436767 0.00000000000000 0.00000000000000
0.00000000000000 9.43808997436767 0.00000000000000
0.00000000000000 0.00000000000000 13.81359869424206
PRIMCOORD
 96 1
Ni 4.163754898861444 1.97433513488837 8.759326946376222 -2.5031833575154696 -1.471709476822375 1.9358871855895499
Ni 6.08589739700233 7.787226345533064 9.073572866236232 -0.02373462461277848 -0.6685333589015519 -0.6595481246838061
Ni 7.91171475036115 4.261995975878543 9.082882598042328 1.1256461904021453 -1.13119797345831 0.4881403902303594
Ni 8.177189341036238 1.424764602308036 5.548011219628757 0.7007752496543932 -0.38190703559171646 -1.2792937726586935
Ni 8.974726807661172 0.31953502539948353 2.902154105877667 -0.36168788033136423 -0.43157689201301797 -0.5894495680945074
Ni 2.5140994921376665 8.845028577248167 6.5099894691316464 -0.5744484666999848 0.743367887513939 -1.1927684379719394
Ni 6.639781136633948 4.479204175174492 12.473638120022015 -0.863397781716042 0.6981234138538428 0.578011758571211
Ni 0.8477716997331606 6.154276357804413 0.5408799394669372 -1.3826865725247477 1.017858346792189 -1.2113114910814493
Ni 0.7318172157273307 7.674412857821911 7.693331508881646 0.20512826663434347 -0.14487163583613116 0.7965177320640411
Ni 6.447196913698612 5.666166666182418 10.30954452629274 0.35285382697950196 -0.992271242351704 -0.7408266091493241
Ni 7.712995769037772 2.5810438632859314 1.615845337533811 0.06714461616729728 -0.21571298412872528 -0.2495942102572024
Ni 4.626372309858673 9.262824499653387 7.6248440100465436 0.6408574902528381 -0.737397528863117 0.32740247678593287
Ni 2.1256277148272793 2.953952230470351 7.820444646490831 -1.4694327649730565 0.6602443794198823 2.290794295553655
Ni 2.864356443735475 2.6350108609210334 12.033177568704424 -1.1058898337108245 0.20871109888959535 -2.019767883564606
Ni 0.40590204160428484 5.385053160662742 6.992194691757398 -3.187241808635814 0.9424126669583641 1.2983860134034542
Ni 8.052870821825051 7.701075461585319 6.2970255788312395 0.2673034546115074 1.102633788667372 -0.406583455292474
Ni 7.783554928590068 8.711441853826125 10.578799071943843 0.8274360189094523 -1.0682445125542248 1.2928722826740766
Ni 7.806017582380124 5.678936401719371 2.4764188623093384 0.4594692475479119 0.6523912019240506 -2.1432350855830316
Ni 1.016302950742464 8.967289592876902 0.9244269215052022 -0.9958175649420655 0.275622516000164 -0.020826192716731876
Ni 0.7513323540641792 7.3049493934246215 2.680805416574282 -0.6355347924883441 -0.12984970850600216 1.1603982491713498
Ni 5.845735763245281 0.4609581948055097 9.912472761531301 -1.844827710477868 1.0203751996767716 0.2677122600141519
Ni 5.542329489552448 7.139244850318732 6.418129484647092 3.695215688652333 0.6353481303988349 -0.3422382562471848
Ni 2.727173808089059 5.776205355484212 8.265712016957698 -0.674818163468999 -3.0134084954600104 0.7353589011665336
Ni 8.110679122020048 7.454222222140392 3.8757091163632813 -1.3665480150916722 0.8615224190702001 0.23276839694911527
P 7.451721128336037 4.545950346436374 0.7363418359907564 -0.5087241279189819 0.22126091053014796 -1.1218003342934937
P 3.708895597702629 7.2320684637746995 7.04442413705521 -1.7656513599570172 -1.1964965375558037 -1.0803718919453782
P 4.314434002961549 3.434577516858936 13.271166148557125 1.0148100468841683 1.3115456907138638 0.44680656447857886
P 0.3987725085483989 8.341232780332444 12.579491960294183 0.2974938621519586 -1.0746367892338138 -0.7139719508503252
P 4.548442002150901 6.598687693523903 10.075998049695965 -1.402465812034204 0.14457313075910588 0.23640959324612837
P 6.709094468328979 9.315724993137954 1.3822299628812935 -2.4680536036918723 1.2741438530266378 0.5629795468284369
P 4.474645577787687 7.003298604439752 12.875862138020427 -1.6406993458629484 -0.8047349777675109 -0.010106492306382595
P 7.644862198571211 4.4340523534385134 6.654798081358888 1.1650992541914449 -0.43764238148080764 -0.7993336042462815
Ni 5.684788017412578 3.249279499270626 9.709896432895322 2.9371187224583353 0.8042328413201116 0.8844404613189543
Ni 1.902162061975529 2.2673972621299843 3.2690570165046866 -0.9788179450602756 -1.4806000944437856 -0.4910966446452058
Ni 6.319792139113749 2.693149494260003 5.856703767434115 -1.2566948043122552 1.1600339238533957 -0.8655166278312577
Ni 6.667547996907203 9.136420162590268 12.781570901596242 2.749646478342858 2.901209924376868 0.7609668315426249
Ni 2.4545262691448784 0.6330863018481706 13.050521540754891 -0.23982093292052245 0.5682991592691374 -0.4651974082809408
Ni 2.548397510571727 7.127994647244048 4.588877610399951 -0.9332060607584315 0.49682480537823465 -0.1145084501632415
Ni 2.9361614311450333 7.837078336003265 8.894479448900688 0.6582530600214664 1.2702159787271414 2.3324165990801315
Ni 4.724698329684222 8.877656053782715 13.669578122074103 -1.4903350623433622 1.1983071084019814 1.9653486853837765
Ni 3.482136051500993 5.254335616548338 11.776134023672471 0.6670387766338964 -0.11091893303977025 -0.17813682564716418
Ni 2.808001609373951 4.234974724701682 4.224557904958789 -0.5985798125305498 -0.9583347375052592 -2.67973252696054
Ni 4.266261992480689 5.596825020217904 5.295622540499852 1.062246900209893 0.2263964319845004 0.9210969361997232
Ni 3.7404093796375024 3.242068798642222 2.0741806871761876 -0.3395406548103636 -0.22746061158295666 -0.4426562897556312
Ni 8.199302785502667 6.7085564972087965 12.544943832479687 1.7154325730107811 -0.36969069603118265 0.604740689925623
Ni 0.6821360546830122 2.3319349203721713 0.9275669739908962 0.5701081874534182 -2.5840700058592074 -0.8088073480646716
Ni 6.320698195737213 1.3766680965457976 3.046823978184441 0.12106347767293989 -0.4358534079011848 0.45464123003164925
Ni 0.5173621072341379 9.105784123009375 5.223377738104319 0.28728555416038914 -0.7935645629729882 -1.5476457231393734
Ni 8.808710807590966 4.490407187800037 11.518966839663774 0.13152863887032187 -1.3708314729583748 -0.716289029019276
Ni 7.708861885693216 6.326823516035426 8.121539531984846 2.352364502956968 1.399668708905041 0.5682981308278728
Ni 1.3111866293208347 2.174941734177298 5.571770666961147 0.0944816134193534 -0.753690609596186 -0.26093071831594417
Ni 6.002257044948767 5.141069100525452 7.574217152401483 -3.1415695034096798 -1.3326305364086213 0.7165816205590305
Ni 6.0730804710162385 9.226034825504799 5.50546525449422 0.3581919513629637 0.7291741125120603 -0.7628977300167507
Ni 3.489035295165081 1.6930611818416215 6.653388974547604 -0.1250288900785911 -3.8211940871283865 -1.431200460964735
Ni 2.2609793610471107 0.523995196765084 8.582112652725383 -1.4086174334578967 1.4013355550845028 0.335582441493564
Ni 0.5124429748159122 2.4853793847918086 9.886779449593206 -0.017994636805207718 1.0135345226058543 -1.1782342489115063
P 9.371607923008089 2.975027485055728 7.061622224339344 0.31735332008004696 -0.6530447763476495 0.846164191446575
P 5.761123287939459 1.659754162839475 7.60123651596038 2.5351791936957757 -1.1221191510854933 -0.296268988605922
P 1.7503975775452318 5.359891213181947 2.1796475657654164 2.286146512368998 -0.22219499230864315 1.490198793875814
P 5.727032907481609 7.341842886561316 4.148389688621859 0.09061004627908911 -0.17681219329846967 0.487883794134863
P 0.2392451952347735 6.511206038910444 4.968101947297105 0.7871306344221863 0.4603457366155943 0.3244413372750799
P 2.5815818344061134 0.10906845366749997 4.26348436264438 -0.4138020845281002 -0.3263915190229153 0.02355310472959169
P 8.696614614706721 0.6642046278192609 0.20279717993795002 0.029530662469265275 1.0460481789628435 -0.22030420304383347
P 0.727570075304841 3.082187556960055 12.760297447124483 0.09662642767649811 0.39625096301821433 -1.5676630468015647
Ni 2.9978865386185496 8.26608670912386 11.372597167379023 1.377495001021479 -0.9795414534898613 -1.4348156891198194
Ni 2.1262317525762557 4.550744896068873 6.245459631248318 2.510668610148921 0.14527581325308528 -0.289612659631669
Ni 2.5410169243264233 7.807027457991694 13.438130676655021 -0.9639451417135011 -1.878557241519829 0.4883843879203653
Ni 4.18479240108751 1.557596278543857 4.2137965949371825 -0.05489228116250546 1.3922626462489571 0.5486677581914551
Ni 0.1840352011693563 3.8993373742470654 2.374502593113311 -0.3135992523542535 2.1133125869919858 0.5177211892112696
Ni 4.93333674341657 1.831989864106172 0.6757030526564145 1.4777924497916612 -1.0993363488630228 0.08292861847443138
Ni 4.955988159003182 5.510192793688943 0.4193145110585072 0.15912351776945496 -1.4617716488833727 0.5713271474621837
Ni 0.1478269133541578 0.7037709879951745 7.295720829191044 0.254898138968619 0.031072810145404545 1.0127665340915784
Ni 3.003436135437269 0.5797346676698383 1.5440290244164594 0.21671725702352354 0.9194079785330747 0.8177020794511402
Ni 5.31914697939553 1.6327517878422684 11.96091860917415 -0.688086341332815 0.3908529319310946 0.01535359963793485
Ni 4.614565259484151 9.029363909674046 3.0521555551281394 -0.8087975778726587 -0.17793962203469355 0.7921363151668939
Ni 8.156359476786381 7.987276097522154 0.8196782815518656 1.2485937724716756 -1.1191148170415306 0.4516507799447576
Ni 0.14539188617859705 1.0440414967462353 11.521452832524405 -0.5887756819559343 -0.6391474495402669 1.6516072510247037
Ni 6.23609515852122 7.250189596243989 11.909504614837456 -1.4191391589248268 -0.7801917412105079 -1.988773234955304
Ni 0.9635251524256592 6.062028467827938 11.914767293725413 1.2534567569909316 0.9481601109651026 -0.7247299606977776
Ni 7.340748068141296 2.342269628733563 13.135018871364814 0.6100669872345428 -0.926250969596837 -1.0358486127220226
Ni 7.186841137320099 4.6887108931709935 4.322358223180932 -0.9814646386545032 -0.7454458530888903 1.6218102222679296
Ni 0.9315404098083809 8.354634867887855 10.320319049640105 -1.0324596416451315 -0.3981965167803594 -0.35485748767309205
Ni 4.477420376197046 5.31729711378929 2.917708077913807 0.6466234462023379 1.5251182314608185 -0.28003015814955645
Ni 2.2123826365240014 4.100472506566348 0.24571783723864776 0.6514972293548715 0.4494193195110776 -0.17161805069203992
Ni 7.910629370030959 1.017341140623517 9.094499942811312 0.8613195590307748 2.506344785962587 -1.9338763258071083
Ni 5.770042282826688 7.439838573242894 1.9650537173517557 0.6091902410565444 -1.6557606110714451 -0.8451995135404604
Ni 0.2238875354670509 4.214522384044937 4.81117954677594 -0.9211007928544653 0.217589889436464 -0.4124784806206703
Ni 2.9070543621162375 7.613386168995649 1.8256323667981964 0.9678015393451139 -1.0857853496514656 1.2028026822794897
P 4.063069356578956 3.4324728228273464 6.0484640451274885 0.7914729705512821 3.3437044917436545 -1.6495696517693847
P 8.765201213485016 2.3306890925149077 3.521003049220669 0.3227292396799797 0.06874255678203645 1.8276493989263685
P 7.4443594182703885 2.0880169268636766 10.773404933720284 -0.4265473000089105 1.4112091054444726 2.1048947952419366
P 5.401154541908892 3.3807615286610786 3.544058415051909 0.4427771316042116 0.2259572875645528 0.05632001474796752
P 3.346774967191333 0.6285144911356061 10.413588140935943 0.8963467258382369 1.1268222129881176 0.9435223550827752
P 0.743136316857757 5.605526939039094 9.619057649730129 -0.5559252110848169 0.0009345959991274228 -0.1603118816506013
P 3.6538054673780245 3.7847306494686386 9.689065624836484 -1.805961372429974 1.8690027650621748 0.6947670957871002
P 8.348424604781192 8.577515359170285 8.447651018376309 0.3144052931953166 -1.9405701928875159 -0.8789778955424863
