# total energy = -340868.0470147152 ev
CRYSTAL
PRIMVEC
9.29559008617063 0.00000000000000 0.00000000000000

0.00000000000000 9.29559008617063 0.00000000000000

0.00000000000000 0.00000000000000 13.60503570375630

PRIMCOORD
 96 1
Ni 8.678957568122867 2.1087696184405194 5.036107946345196 0.10440812850444599 -0.5216459781869726 1.121324937318972
Ni 6.4950052192665035 2.637911773014141 4.164038469706411 -1.2111939916669787 0.07700942477651898 0.22138123815809616
Ni 8.245634353352225 5.907570420969124 7.238327988304082 -0.19323640029276398 5.198774962995453 0.14257281249962545
Ni 7.00587224426575 0.10208416733763465 5.23748946319422 1.400280117236795 -0.9219716254951927 -0.9194360035575326
Ni 8.13987842803805 3.944853109686583 6.846870250937852 0.5832426679528472 -4.937899523397477 0.7422198899524249
Ni 4.8422586459224775 2.5668005109368415 11.781430385477682 1.981243502237162 -1.1636478664568992 -0.517843830832063
Ni 8.433637657340903 7.3391005479189575 0.6183640142855886 -0.4632868215217892 -0.10449657445319423 -0.46415122640461354
Ni 4.392249847435659 -0.029695691219887785 1.5442800540400818 -0.14740417244999773 0.9246116342212012 0.6540750173843767
Ni 2.58547535087322 4.7244649317991385 1.2730802916568889 0.3552693783995301 0.08172174265052377 -0.42633569821873674
Ni 4.705641362425735 5.496268458467911 2.856689986200115 -0.273175082900936 -0.845734302998008 1.0283163089007192
Ni 5.295353580227551 0.2941329120133767 11.14305482544046 0.691671487580912 -0.4688383474676377 -1.4977002444591818
Ni 7.327555425369937 3.927052055192723 2.23190643758896 -1.3423886442366493 0.3210726779131632 0.6496403786517909
Ni 0.36904885900155726 1.6133704548918122 0.6555222050081765 0.21246825193918248 -0.8218477261883975 -0.4666932761001769
Ni 7.601115338006911 4.8242159060934515 4.79891795841458 -0.5569485101430085 0.3417734007956243 0.22449201587293596
Ni 3.043180897726051 5.237218961530632 5.2292043039929785 0.32229883701078044 0.18832405059281115 0.7927952889071315
Ni 7.137534978391615 1.6164101127609987 12.398377751875612 -1.0935279697113618 -2.003312309111743 -0.2426090371886209
Ni 2.285980742655113 6.419692350593264 3.275167214478775 0.8352550007332389 -0.2938051004464618 0.04733400919927332
Ni 3.9248211136373565 6.973077403401866 7.281292204424511 0.5394143579139871 -1.087479963745069 -0.06231222777566043
Ni 6.157138416296096 1.6698504586018348 1.0081104335670563 -0.07608151364561092 0.4747889086241178 0.3843850648185638
Ni 6.866345441157218 3.806255865559454 11.37372767535246 0.45593603758367285 -0.4920921757892558 -1.6369722747203483
Ni -0.07843618685075224 2.2043654640879637 9.646419316992167 -0.6793494756804493 -1.4609782064478 -1.0431199495724552
Ni 3.300399163469967 2.78505166418036 3.190925002230182 -0.1277455176788058 1.7534057098204445 -2.22116702217382
Ni 4.8671150530851826 4.851953946098505 0.5067369944448746 0.6532908309201846 -0.4724432912100767 0.5234899733742467
Ni 1.6433952099911167 3.417495708357254 4.449009648399084 -1.230657499708229 1.529993557275249 1.9945178507485652
P 1.4047030547465542 4.102775885037072 6.827605141048283 0.49893182441890843 0.06539240936288093 -1.3114991537466445
P 4.637067796367664 0.7822480513838128 13.138885816317504 0.39895319244072586 0.4806445960739464 -0.6570109600842492
P 1.0451310495603967 6.316418347759433 1.6010946989834092 -0.9140850236582644 0.7258057102604597 0.6202698959094737
P 6.106719137144819 7.394567332339252 10.783269021688577 -1.026520393342561 1.3865967062124314 0.40357372193187263
P 5.515510329382945 4.614479513119582 5.0513043765731656 -2.5199466930167373 -2.5403129153779154 0.42377127992567015
P 2.123726222451287 1.0962846803069823 10.18849814390997 0.03547968096384858 0.48551812211616374 -0.5431110900392839
P 7.9473202850405 7.590165133205988 4.181956648631928 0.2560865028497654 1.4382409127512843 0.7916781445835527
P 2.1915654369140496 0.507344926018712 1.382516340978437 -0.11887855420647914 0.6376880913859211 -0.21646117514865945
Ni 7.6660822152171395 8.558458837363645 7.538046620236707 0.04963308964609516 -1.219854495555454 0.30909185140220313
Ni 6.711220638340751 1.7321123191761816 6.711336833213426 -1.167132996792022 1.2358958652890326 1.221968199464347
Ni 8.149099653133563 1.783154402844999 2.5732562980626827 -1.2307945395067255 -0.5524187405934551 -0.06331238690540064
Ni 0.3441097210895066 5.898981295980964 4.629780053953468 1.001178572143663 0.27105340857224286 0.6684251154584617
Ni 5.352577231122695 9.098653448226145 8.47906613432103 0.4655169964038886 0.13295688667641617 -0.0656780589240998
Ni 6.435318237070642 1.9767536519017206 9.578080929356393 -0.43713715970961486 -0.14167318350349148 0.061270159664391255
Ni 0.5797650071418265 5.0205573541453115 8.58915845228345 0.4712469569091303 -0.3638527491931669 0.046749340340396905
Ni 2.4907439950784798 8.817833679944416 3.302908043160773 0.7069322703947244 0.6545619843231244 -0.3718797332627015
Ni 0.06415258354251974 7.296740545136441 9.188813232950347 0.7904771822969161 -1.153430559604265 0.38285268733443745
Ni 0.34945561479155307 3.8371079281522062 1.5432872850479438 0.11210524003838758 0.45383621763185067 1.7782060566935762
Ni 3.6857664303900473 3.0200999482178243 5.9932088308077835 0.9272277316878096 0.1888758093312231 -0.5649639242483173
Ni 5.03464017271356 5.257920240046468 11.886814487199295 0.7220027915746017 1.2208194305718847 -1.9375715152705082
Ni 2.0775550278450194 7.278400346433367 11.52679815282003 -0.27614650682443415 -0.5913066759079041 1.4845544511058435
Ni 4.9843510318196795 8.432912601335408 5.878803359171657 -0.5579988057843938 0.9299865253798694 -0.15783256687217337
Ni 7.602351651452177 5.729699309877734 12.464824486984234 -0.7434437350571971 0.6661879985978268 -0.16776628104611752
Ni 2.8902126717464376 9.273754473552954 7.904416490253863 1.1256454190711969 -1.1261519263939703 -0.08465382869565422
Ni 6.4264409487982475 9.17534206419186 2.974809045966945 0.5256484144781464 -0.6454278832323401 -0.5581885531976968
Ni 4.8103561816807385 7.94000465585686 12.787902936119508 -0.9409029151820568 -1.2312061731228472 0.01088039435792965
Ni 3.869688970450368 2.0081169719342444 8.9801802264874 2.068577191757824 -0.6338118962599665 1.888497383451677
Ni 2.19863008517271 1.1095123046123414 12.596698230998879 1.777245235442204 1.6901488587433278 -0.030975622445907944
Ni 7.446464610270959 5.96440365709208 9.930642200704812 1.7794332442324579 -1.1245879243409602 -0.3409105385746968
Ni 6.0365188428692935 6.584428793277435 4.7840478033890825 -0.5759163094947629 2.3683881320787337 -0.514346873422398
Ni 2.961565619158902 7.466106191547996 1.0072840556325893 -0.24153791561162918 -0.49992504157011325 1.0521954295111622
Ni 7.113608130210313 8.333087262322582 12.497422261344061 1.0311674051962694 0.5903484257596929 -0.2952955689490591
P 9.257663807584875 7.227906702563577 11.923235537649633 -1.154741565106205 -0.23891513327680144 -0.13132706438247704
P 4.375062301869525 1.1028287755360566 6.69471167083104 1.2110736640390305 -0.389453994701039 0.959847831715676
P 0.6282972815608567 7.4296860706566425 6.174876260779222 -1.5884419312201288 -0.23304067677389545 0.8982385435443112
P 7.927976162637512 0.36087803555502834 0.8991772756544473 -1.214791736320566 -1.0864911174692387 -0.9060868359441363
P 4.353654558527823 7.628267755853681 3.159973476826419 0.5293700863041076 0.46368200007767885 0.6297302699914252
P 8.728577426550137 0.9821069506212996 7.051884484286198 1.2117056411960745 1.1302914024836406 -0.536528808836076
P 8.973153690146978 3.7812228421902816 3.6932912103445017 0.9219343444993542 -0.45553057461513813 -0.8058276966110574
P 2.4076786045003424 6.82462683407187 8.672257306984916 -1.9805503328248797 -0.3881910688282153 0.6281446706718602
Ni 8.255571338863419 6.228091653346557 2.665430437099584 0.3175140140276274 -1.02747812927014 -0.17152651941949812
Ni 0.9673548495864404 9.39133438911057 5.091793177126119 -2.4484823664281636 0.5266655428887511 0.9865119712704237
Ni 2.899155029147531 5.428466426364405 10.345459755273687 0.4091566153362889 0.5833653095736404 0.0046516398393984405
Ni 7.805925068379348 9.012511217419565 9.951158496983348 -1.050741984894087 0.13115685735319993 0.6250099816976203
Ni 4.517591580487987 1.1981922314381506 4.008451676076187 2.253421511332151 -2.3503996659211133 1.0206906740346615
Ni 3.33053546564704 4.312475095651687 8.251181961353236 -0.18066396294439208 1.1975715157875375 -1.6596378346386644
Ni 2.49785512128621 7.771884618480385 5.413565595892521 1.8776797240108825 -1.2234141878822544 0.5400489061741924
Ni 3.724333832528442 2.378527634843557 0.7410741658615656 -0.6072511150523026 0.0592191906726335 -0.1243102667450117
Ni -0.3181034494668058 2.6941036134399288 11.86039363227089 2.342561400823617 0.4774854816196745 -0.9206559920075628
Ni 0.6488005640136542 -0.04421075471448954 11.4107334184021 -1.5913035690386401 0.3898229480046835 -1.990893109511784
Ni 2.1555729131541406 2.2588190292185284 7.70412348697206 -2.606510594250911 -0.2881167918124328 -1.0579734696455199
Ni 7.854178475103958 3.4425845052653106 13.602450373430116 -0.7136179099450162 1.1551112897407976 0.8464326146166131
Ni 5.303013146234308 6.000526319109385 9.285096022685048 -1.8815592615709469 0.3839721456508613 -0.7352815109613787
Ni 0.7709678531444922 0.05470547561452501 8.735262814744384 -0.9425772175606864 1.5063118973875929 -0.4267406469666392
Ni 0.2205936418766534 5.190127503532776 10.921156082753916 0.4065279194641902 -0.023939541534732964 0.17078064239240912
Ni 5.777478641521829 4.541667158106314 7.301767600107866 -0.15234146185061503 0.14972819259748407 -0.11482649562429258
Ni 3.210166873145216 3.7909274379561246 12.109923515679625 -3.6556865202094593 1.398902520162978 1.4232794063454457
Ni 0.5395736654629218 5.424199750639767 13.364239729737921 0.5376899190237128 -0.27018720391720563 -1.060260465907484
Ni 1.0577544605278442 8.568804828826657 13.545500012875504 -0.14043262622817104 -0.20575741557791014 0.7160923396274377
Ni 1.7914925469081804 3.4409205946886 9.894561368841668 0.7346850150279606 -1.1721170802701748 1.1466752431583025
Ni 3.615817117039501 7.94741324093864 10.011075080247616 1.5164764966254207 0.7647790061998636 -0.21496170778499754
Ni 5.658039608001407 7.206350229784851 1.3663401555840686 0.5996205950902382 0.13104912813074204 -0.1363314595756039
Ni 9.243237052193507 8.723790197795914 2.4347297004181403 -0.06846796296441113 -0.42300791939708443 0.6150405291897343
Ni 0.941252833388655 1.5129223113614463 3.222053143840411 1.9145406015929736 0.17342964997948196 -0.7572490163714056
P 2.60251416700233 1.3994882288608856 4.799475693803421 -0.9158230893952938 0.15542112921720327 0.06624575850211172
P 6.99236575226597 5.5585489102218855 0.9248879475210621 -0.03428360377321838 0.4134791539710428 -0.8748399621147127
P 3.3891255682448462 6.197537049627854 12.998577254105614 -0.06619536488015051 -0.9788418563196755 -1.2863175122746942
P 7.720387050910681 3.6378662560783708 9.195004095766487 0.5424631720426399 1.6058578127037313 -0.43196795680384964
P 4.776613190655825 3.9272286713991895 9.77157142001229 0.528990848587818 -0.6660136778034917 1.4249251694789848
P 6.2232579466432645 6.852838949157438 7.138806615078175 -0.765971483846068 0.1975615100306791 0.1498030116994775
P 5.141158336392486 3.351896731039672 2.2409807923654124 0.02392051537133945 -0.7738585999036285 0.08626333927461918
P 1.2847899461456176 3.309285747332176 13.260270416786001 1.1482731837730418 0.10562168919657296 -0.8855995146240618
