# total energy = -340866.2382821931 ev
CRYSTAL
PRIMVEC
9.28179953629816 0.00000000000000 0.00000000000000
0.00000000000000 9.28179953629816 0.00000000000000
0.00000000000000 0.00000000000000 13.58485184004557
PRIMCOORD
 96 1
Ni 4.431131060283137 8.100625502607219 8.146645592489895 0.47556358200661325 0.0018560793721322873 0.7680643618193546
Ni 2.227585460437058 2.10811013783973 11.190970001536359 -0.4938335839603946 -0.08018396584975868 -0.8452311381093445
Ni 5.3240123225497 0.16831336679483938 12.752766417916556 -0.06542351971113249 0.26209337116547765 0.2439557810245024
Ni 1.4846702319807066 4.143200359359294 9.227280022331893 -1.0082488487268828 -1.4229379638456268 1.6080602196716887
Ni 1.8242355832781472 3.1310386922839775 6.972655751899631 0.0872537282123465 -1.0209799231403063 0.5604837769897767
Ni 7.596633073947155 6.401257967410321 0.792763132434673 0.011405927844096485 -0.7904537852581484 0.45952915425156987
Ni 2.328859174301217 6.284409394059034 13.599116163150416 -1.0452503656518966 1.8182260487299395 0.39618668543918223
Ni 8.938734866284063 5.654379410586268 9.740107795894101 -1.1014181710927158 0.08758797162331368 0.0019967187150546255
Ni 6.153545303529223 6.726260175361335 12.164242785251023 0.7365071558383638 -0.6984100918563262 0.09091806443781117
Ni 7.316016430994621 0.44515417372868293 4.315078865325173 -0.142397977484658 0.008387709843062974 -0.7772018053442485
Ni 6.592639390393099 3.365506228341398 4.310759115858361 0.6332686221619868 -0.3343801936553467 -1.0481711388431174
Ni 9.01141135602436 1.2452183696154269 5.404325876882373 1.9351346236942415 -0.06937273416686762 2.003558877904911
Ni 8.260411680241852 4.058160512743638 1.2332086492993393 -1.4508434320066432 0.21332982860852936 -0.4570061307194
Ni 5.519319946702356 2.4255291156352112 8.535131596000005 1.006911360862382 1.1006694658521494 -1.2966785437940445
Ni 0.41147237986283575 -0.05262965927527743 2.656286716450077 1.3406359232116007 1.7880418118370753 1.7774182706849584
Ni 4.64732273321174 5.778514196510496 8.579145889020245 3.454607741054141 -0.9482837810271604 -1.1883456263138954
Ni 1.2737784665414664 3.7771076252166713 1.9613268330629732 0.3832656065021399 -0.4832025866091097 -0.373326493011557
Ni 7.7651441430704065 1.2612758826742663 8.651866003217984 -1.4039475387860532 -1.7219660032539248 0.4949946941480313
Ni 2.626210901672877 6.469804056392708 8.95044756901756 -2.258347744989175 0.47506941597901403 -0.17425934496962892
Ni 5.437797902080515 7.803041730249159 3.3267537874327506 -1.3946404024525143 -0.8142984530862298 -0.45004178358642494
Ni 1.9804204227238622 4.166070713218819 12.425683230527511 -1.192728071652307 0.2786829000930426 0.3875480359275777
Ni 8.061112882323126 5.955852256916382 7.464360006259927 0.21223222466897643 -0.8238372458146005 0.12448715864250819
Ni 0.7050789011540095 6.923247805215523 3.6321686139918175 -0.31087902520961297 2.0824819747643746 -1.4837532953607866
Ni 5.95811701598364 2.9522433893635043 1.6111904403651207 -0.7608099942497865 1.4404782867222352 1.1060016766983403
P 4.535746221951448 2.0881171418115567 10.579570445931628 0.01709115115433186 0.2417441180851643 -1.8701353360047215
P 6.334948792096826 9.33637643677755 7.5078860766287825 -1.129236735966881 -0.5439739522602115 -0.5741877568394306
P 8.975574328324834 2.3620694527547 7.393596495387508 1.4842276638940437 0.15762662150895435 -2.921390770200117
P 9.302033778790438 8.04641051198486 5.178464425280533 -0.6073938112777539 1.3218810112016008 1.0031097277281047
P 6.425502027589332 4.0725844290982245 6.840856055984657 0.19536578793094095 0.5293412899487012 -0.1352261423265671
P 4.0431796884216915 7.494523998131959 12.616020451071492 0.2570082433330864 0.6028234182982521 1.0398356223942287
P 6.0880900537656775 4.325829045455085 13.314499992812303 -0.1261699456615698 -0.189117493028384 -0.25293587303592563
P 3.0823463723379256 8.871785246808106 2.638734833678826 -1.5331927809388368 -2.7820529196980215 1.6157503892270948
Ni 5.75126283330775 5.411669636611942 4.935567158957196 0.7863814149609876 1.5850347053107927 1.4500574457702382
Ni 5.508980022108397 0.45185748929578906 9.596910050247187 -0.20079312959409934 -2.0929859596194924 0.583706237852827
Ni 5.892977347401597 7.910218668567318 0.8013339460523217 -0.3421860628530107 1.466804326211274 0.29471861339966665
Ni 7.898950564027762 3.6980174120522964 8.601207798147156 -0.7242383657733399 0.5196896257915501 0.7385028461121539
Ni 6.2903683093097715 7.999296097946324 5.475959092363817 0.06722432036529713 -0.7871609734394895 1.5873337857576146
Ni -0.016660830023477652 2.8869088029928864 13.001165006777452 0.642686315931461 -0.4873986269683284 1.2715760922994617
Ni 9.441075134640965 3.8333738935188006 5.403007861359623 -0.22601616582694625 -0.4599868106142787 0.3887672530466595
Ni 4.097700978426097 8.866383239524728 6.09442302553449 -0.2401173811150187 1.0880088396653458 -1.2232324108887513
Ni 7.87791800646052 8.002823181739595 2.7893775106693774 -1.2306004212180484 -1.9923876917794396 -0.24733703879190955
Ni 2.961209607637977 1.5263083843402165 8.579594199933968 1.1755777851252656 -1.1025330014234498 0.1599267303970407
Ni 3.0072194875412523 0.21375798511124547 -0.156826211788123 -1.3360745290931637 -0.13287049761019698 1.1564801450638662
Ni 4.293324183760255 4.906377756028041 3.298130574270411 -1.3749241549705096 -0.9747062368847472 1.0683743532638696
Ni 7.9938291180667544 1.6732485515277788 1.776450095138944 0.0035645774228067638 -0.3737576670117047 0.019668167852888708
Ni 4.419287484177311 7.161901432827588 10.49302137872443 0.282442624245791 -0.28262594390119067 -0.1660647249739785
Ni 3.0723220289254707 7.146985581101834 4.476439236147541 0.4299689240959498 0.2894249691008951 0.6589809393264263
Ni 2.980190887525449 6.607128279343879 2.3076177762462144 -0.5823669502161132 0.6634937395951154 -1.5169778617418714
Ni 8.004735232427526 4.639377512877424 12.016684450219694 -1.625292267279259 -0.0016056539242230413 -0.04646266233791353
Ni 0.5481756504304018 7.922925452022549 8.861181719109599 -0.07733981153274423 -0.6587695946465686 0.620464528418783
Ni 4.0856996117295195 2.527480400859656 12.534580086284864 1.5847238589385935 0.7767328361276301 2.047366876228797
Ni 4.679150023546283 3.1924563592841735 5.825592411531154 -0.6288892621473685 0.66750208942356 0.21636424455947895
Ni 9.082277894870739 4.842259085386156 3.2996787784196675 -1.3360837850645442 -0.8818331056030941 -1.0456378308983025
Ni 7.01785718707029 7.71934774455462 9.052469395917871 0.626434887069605 1.7712219120662591 -0.06721377884233587
Ni 6.789905474230966 1.9098416196606176 6.214947191470344 0.031757494917254984 -0.30767697333254757 0.9317179062486793
Ni 6.875585765009084 1.851486946480894 10.888666434154935 0.0666494216984336 1.1017724691083413 0.2659541396724645
P 8.767819811101715 8.63830158149302 10.60313971929019 0.38851245672337603 -1.1088314328376518 -0.30793382653836
P 0.08273517581073692 1.8864236396331893 3.436233540195938 0.7203223185483851 2.3090175034299008 -0.16144548103441228
P 8.932497497049647 0.461348129239525 0.2097760931446316 0.6473078738638723 -0.054219166354880825 -0.2774528843406835
P 4.346880166621239 6.706257897533706 6.1294033431442285 1.0473190752554673 -0.13252674111753304 0.9779507119639738
P 4.19179057951133 2.7942485990238737 2.8851508301759243 -0.7168364168823138 -0.47259292941406345 0.41438983871077023
P 6.34649535062006 0.23545326315964474 2.4279795106915887 -0.6299624406068892 0.7430423858537202 -1.1585025748105338
P 6.763248146193401 5.234749257181575 2.744602110093747 0.7347071265151476 -0.24288337389593012 0.9297682387214761
P 0.4390653132855624 5.646294963260113 0.6544299778826373 -0.8168366461270514 -0.9162411507693188 0.026517586674554332
Ni 1.340848749410352 8.346955178369376 12.247817035732583 -0.7389928983746951 1.039438644066126 0.10949274211620497
Ni 2.118719234617911 0.17815671511790238 4.786173812173419 -0.5116790967822478 -1.5428609001562201 -0.48527515286742234
Ni 1.3836378449024032 0.2423542810551632 7.339677594167796 -0.19646570586333906 1.1560302020106414 -0.7537201772825406
Ni 8.25787774899037 8.289129567758643 7.0332993168251985 0.4049662314040251 0.9577503257566989 -0.6171861147778274
Ni 2.0894258755348494 2.459444810847349 4.50208763258424 0.09900495521100368 3.099669006521152 2.040824190014272
Ni 1.8175619694693002 7.417902743622874 6.561225140134347 -0.392101459626215 -1.0163840762395076 -0.10107957835184526
Ni 2.2014293495701165 1.5775067901393824 2.586392910186684 0.42584975972125366 -0.42364555298108325 -2.898146712070512
Ni 0.46328431260604164 7.7951336371126665 1.1212868550992845 0.28317333176422843 -1.4189237004799111 -2.4527126024594272
Ni 8.27665482928981 5.8701626843388075 5.058279045024824 -1.5400738243293866 1.8582866641962512 1.0758274671078052
Ni 8.807239613391246 6.781264118937451 12.277826021553699 -0.8034957060437712 0.9774742865481876 0.6637084267090828
Ni 1.3592267123331851 6.404580851615561 11.098877843694053 1.4428444729615668 -0.09119728624112682 -0.4983844365558707
Ni 3.671443620209836 3.7062689317686597 8.84129360741528 0.10610582792184307 0.5903610241651833 0.4603241393490395
Ni 5.067797530366927 1.2067824380682286 4.328228390614455 -0.9060156163865687 0.2476417145165219 -0.5152382748884159
Ni 3.411859534824544 4.098833357959726 1.1055829785997178 0.45949521568984086 -0.9314327709080926 -0.08894782808531779
Ni 0.6804218008992081 1.7174856077349627 9.164911899067405 0.6683621234310103 0.43579838629353335 1.130612533268485
Ni 2.9926563441948253 5.129484369551346 6.761167166755372 0.9306236447432359 0.12432620758461171 -0.7411140584827559
Ni 3.6358107920983427 0.016431569576915037 11.321248410520498 -1.3666619149617172 0.22659209293507426 -2.8984020226144276
Ni 7.531242796779801 9.069673211209523 12.307046982601003 -0.2888850374370251 -0.8199510233863169 0.17477845069789252
Ni 3.9947751042587742 5.283998485094985 12.667521443532923 3.1490095046274926 -0.7527035630925683 -1.3395995115272865
Ni 5.2717186644147285 4.3470750844098145 10.664068235459055 0.30049151132770185 -0.08013665755159102 0.15755643039265124
Ni 9.28569781174792 1.2147555038009124 11.524504967727252 -0.2715594016743839 -0.9554849267612899 -0.4859030162594084
Ni 6.6072675063357185 2.0023997238356146 13.292886394599115 1.1461355686047485 0.4098497847485716 -0.9135006119097042
Ni 4.236463880292944 0.8484910563683553 1.5645401162993833 3.5479976640712123 1.3929177633344527 0.0019324411360224787
Ni 5.146126635975913 5.792102750914046 1.4273606894197255 0.799350573527146 -0.04648605937668123 -1.5983525054656216
P 2.1659357484504627 2.2101728046576463 -0.035461114821557865 -0.7434949000101067 0.6581314468419376 0.89584510361147
P 6.7318292550349215 5.983317101506616 10.033364393345783 -0.8070759671958617 -2.047702405191344 1.0866350992462706
P 1.8590516130375148 5.292491331597203 3.8741414130893403 1.7552383921538093 -2.757258743472477 0.22744261386082767
P 3.274470339277181 1.6227741260861792 6.1148401997978015 -0.41519150867645915 -0.785244216032751 1.0966022377613114
P 9.19189594644582 3.327617922962102 10.746120270829833 0.1255701072940418 -0.3205939385045318 -0.41976010188374807
P 2.910373192017594 5.04282948983035 10.654504269299617 2.126258605629693 -0.4871152913999547 -0.3261236100735093
P 2.637256243025489 8.617965158884974 9.401246933175369 0.05731271767854 0.6816349292805164 0.04419237824649809
P 1.0827404701385601 5.426539079340415 7.672194346958368 -2.198837248328368 1.4161975597979999 -1.4566608100193688
