# total energy = -340867.77992573066 ev
CRYSTAL
PRIMVEC
9.23220212293618 0.00000000000000 0.00000000000000
0.00000000000000 9.23220212293618 0.00000000000000
0.00000000000000 0.00000000000000 13.51226101220901
PRIMCOORD
 96 1
Ni 0.6031305455020043 9.066696631094764 12.049828925925105 -2.77597097517 1.0759526798317598 -3.3040071731540324
Ni 7.67998291350253 4.575211736977051 1.3714676586774794 1.6010097405828103 0.15986708080369885 1.2134192814530715
Ni 2.179085946293125 5.208919336569929 13.238854418413942 -1.0030739893941627 -0.16649821296697132 -0.1125065892418643
Ni 7.733594312387101 1.005903836209285 8.39615439067708 0.5779084002241273 -1.8459044884818143 -0.2905122886278029
Ni 8.01566578993494 8.698497938083836 0.655218631003425 1.2252813229979802 0.7545149052696942 -0.5016960174276069
Ni 2.0788888544911193 8.496525047882741 3.378686926541954 -1.6921579187535567 -1.4753499017884397 -2.4250094801172044
Ni 3.744895156732232 6.741612637279578 12.34985519054901 -0.22397573835814974 0.2814527495286959 -2.282696863257501
Ni 4.3805599832174 7.780817027264763 10.247766734842626 0.5399897708014829 -2.4083435894257494 0.05251426784863215
Ni 3.1696089334337523 1.8275606106759519 8.632375981832556 -0.4265017914829558 -1.0012657325408303 -0.5694751818551096
Ni 1.17361602359298 1.2318342914362905 0.3548276943877969 -0.22534665056374736 1.00797476912989 -1.0412276176457487
Ni 6.223335263320211 0.9292765569356601 2.0855905101567487 0.39510193701543567 0.0994466707341126 -0.6739445026147942
Ni 3.5839686380552984 2.6952399137184044 0.7823940644311401 -0.6526007468316953 1.2335088531140952 -1.3414213952273737
Ni 2.431208159507995 2.3409818462138823 5.573226656302081 -0.3356932560398154 0.2256515833986759 -0.016637865666997154
Ni 6.249859380591672 6.244421613423942 5.6970129482573455 1.1176929969933396 2.895669454174613 -1.812002436417731
Ni 3.813730457245985 7.654612821521335 0.7759619890733167 0.27079244160137234 0.8125896979252394 1.2468384803434653
Ni 1.831299652616412 3.830117616367754 9.103845166798525 0.6725234538975514 -0.12151393494679717 -0.40329578568013763
Ni 8.480571802270111 7.039323465561094 2.7069925072744674 -0.43590740106757186 0.3619388199999057 0.08492816540296343
Ni 0.037371031779723604 4.776741481466684 3.6844288476234848 0.6543647807106536 -0.8044056194525501 -0.5795274238847891
Ni 5.974693590380782 3.192634046025128 11.646542324768715 -1.1530677769482076 0.8863405065551446 0.9168787843533176
Ni 7.650005952562595 7.845073155426743 11.37489215720209 1.3251560824084467 0.6431226321379311 0.1655034531538698
Ni 1.8507519029091262 8.257577187381541 5.56271394751788 -0.41189509731337454 -0.36586900829224733 1.6866094781315017
Ni 1.4111144283296064 7.999878723964109 0.16674280613987202 0.9261206146665598 -1.9872863659971323 3.0900394538511877
Ni 4.953787425398046 1.078432017651887 12.350990751434631 -0.7645648333065284 0.3780627221449618 0.17681682128416001
Ni 7.159129755095291 2.952633714459207 3.252996031247636 0.06858083439319157 0.6485083219298766 0.10508021487080613
P 6.5845174825663255 4.382544906716657 9.331445727425603 -0.2755752077019964 -0.6001754391524438 0.715783035917135
P 7.363733822958191 1.8397655821457992 5.132645650645241 -1.3752722823385477 0.5123406416256467 0.8549401378669921
P 8.822015572951527 8.566394355056572 9.521522924934642 -0.05251581051052891 0.060607072159095624 1.3686617190005652
P 4.38091080690564 2.148047282086146 2.730314896780616 1.6249181717692918 0.6200662645390999 1.0848450972253831
P 1.8531245789059119 0.7799041394648635 6.997865337813367 0.7239118356718566 0.24555295030829324 1.1754214620530594
P 6.392506138670801 7.7843067997425255 1.8010087967975248 -0.913476186429672 0.5163885864427752 0.8501285754109618
P 3.605627384703 6.039559043896022 8.975938542946897 -0.5979043837300799 0.5789741224844803 -0.7905077784245353
P 4.408939773155607 0.5341475297510977 9.88504366102895 -1.3670442380018004 1.3712047971373933 0.5376575231238805
Ni 1.3757735578405177 5.862263830501962 1.9144310184259727 -0.23966101030389045 1.427869082598657 -0.12249481080282773
Ni 5.259511805295165 5.230208795124745 13.356221560094633 -0.4220329570783248 -1.745092561969059 -0.48827125938126875
Ni 6.010809965864929 8.403686021331467 13.186683243091624 -1.8975808338101836 0.8341957062307892 -0.6667148176355743
Ni 7.0717838889256806 2.944832503497012 7.611646151914172 0.6517232293227485 0.8383086999578981 -0.5285373059901671
Ni 6.379147141910689 9.006493439752196 4.172681253190842 -1.6214854919386592 -0.6426410645158223 0.54953344862586
Ni 2.0506383153854215 8.21335493825857 9.808266820077707 -0.21227181965766023 -1.3264753154405027 -0.03445946722945033
Ni 8.360940924580035 8.075601247410166 5.139523641375223 -0.5523557485660036 0.30358789086483845 0.10833805968647148
Ni 3.6367768353378445 6.4230462639523855 3.289708807001792 -1.2659572034507875 1.4156044062986912 0.24361125320089008
Ni 8.392118071821846 0.7196381691465058 3.6377166735342366 1.5244541155142584 0.439756856720649 -2.0500963593448174
Ni 5.953459525039898 3.254886786283207 1.056676332879803 -0.37904694043510206 -1.7837447271236182 -0.48784265648428243
Ni 5.43713937797282 0.3497712171759699 7.631522160293472 -0.9434218249491688 0.8509610986145861 -0.5870669267949438
Ni 8.742221648281413 4.029930171225472 9.52599592695971 -1.2627705781926897 0.9301819292201271 0.3454562489638502
Ni 3.7640242799436723 6.14594171125385 5.824852177032021 0.13961244431972084 0.3070892191498776 0.5205126359134779
Ni 2.9755572728250392 8.20592301538926 7.636549094457869 1.5306041942760542 1.4853126694281065 0.1355192480869537
Ni 5.119043846964057 1.945474298734113 5.32339864536426 0.9592194541030576 0.03484487559332708 -1.0833178619475796
Ni 7.356745045800344 4.974467558599603 11.468855665996198 -0.13778696107520785 0.94627549234788 -0.5779269121668885
Ni 8.105448957517591 1.8029383270828485 10.811943849086896 -1.3445481137818132 -0.1998935005979654 -0.1624754649608234
Ni 3.5272367547858496 0.48876479279623536 4.5715899440060825 0.7365930306839508 -0.1472023408518368 1.042117990670502
Ni 1.1830605665685123 3.5350841267596547 1.3152657038213205 -2.4033013990161516 -0.6207319231475568 -1.2569886814035902
Ni 3.1596381549258594 2.1106291660745797 11.115334328236981 -0.47991234589361226 1.1486007423157896 -0.7664913609052799
Ni 1.9880347514391021 4.742563868470183 5.274240860879881 0.04909058687906384 0.12443470813801796 -0.25863626585481264
Ni 4.806035259434782 2.6590589128180024 7.421960399783592 -0.1521522286579444 1.123292345457988 0.0770806443340866
Ni 2.404462469380803 5.199696366450127 10.815443776987212 0.8594058869478296 0.7393253420134493 0.08855084975721525
Ni 7.194858378081908 6.503144851299129 0.007250971703795775 2.0965402526296537 -0.61491197403167 0.969119486825589
P 5.930535966674065 6.659049051912828 11.752734808758708 -1.0413955106821806 0.1800936922632189 -1.0066059138068213
P 3.6219776150154805 5.570987847238967 1.2598207895555757 -0.1735522916002753 -0.515418509220022 1.5398496241337223
P 3.6497203829934612 3.9056647279696906 12.174291015090349 1.147888289629797 0.26674449678424383 -0.14704601777963064
P 7.05034671513371 8.249563635765938 7.090991485856859 1.0769821495375387 -0.43852504119607705 -0.7015836044883014
P 0.8153585660425142 2.474479491791788 3.6465675859004563 -0.6656308405427762 1.3831956509506824 0.7980675930496642
P 6.879347863723339 1.670391598344122 12.822784909922339 1.736756274189222 -0.259048927912199 1.646670990065351
P 1.508809593302317 7.090229829165283 11.739965749726979 2.2877249125997117 0.13117279819279992 1.104475212751485
P 0.7432107513355838 1.963273984811167 11.66962098413356 1.3339137739964189 1.340778362326736 1.21247234415877
Ni 5.2227768722554355 7.212501116719486 7.638764823015179 -0.314696084962858 0.41651228437041166 0.9232988289470487
Ni 0.3643460949819062 6.48984124775295 10.24057761889439 -2.188978096146101 -0.8830476947364857 -1.9340493610498628
Ni 0.22048899517834603 2.4228437842041513 8.098276459533533 0.8866348978671117 -1.2068763381282313 -1.5616788041936716
Ni 5.630101638707523 4.990217695761145 7.486847087364172 -4.10535857916129 -1.7716417732124974 1.107560536545028
Ni 2.9380560669925737 9.207709289362878 11.913665943536804 0.23433805542908032 -1.352565327659335 0.6275664295708869
Ni 4.176500615291505 9.052266698865285 2.510497082711088 1.316790226942255 -0.3108427726550388 0.023736167274675247
Ni 0.29481376319283326 4.258630287149115 11.730264551526892 1.1223798609460476 -0.9459075674855001 0.4257415162781636
Ni 7.717059438028178 5.403958842827109 7.43409520651579 2.701761224625805 -0.05680980990019248 -0.04588544967820485
Ni 2.650205230791086 4.09017952357965 2.8205356707533356 1.6127943919225645 -0.6482666382327158 1.249974711979602
Ni 4.819809705299391 4.542982118670518 3.837765572771401 -1.0619460811400228 -2.855740736300475 2.1741739412537333
Ni 0.09368284984351573 1.1294953286955518 5.808218518108251 -0.022521578141283794 -1.1956038505382056 0.366002448546318
Ni 4.267373182748166 4.036549660290435 9.600785997971231 -0.36907363127247406 0.6981676368282169 0.37768168465645924
Ni 2.303591426809282 1.4161367463928414 2.5474803619932826 -0.21336839515594866 1.0641777986840188 0.32215202702027096
Ni 6.428013188801688 4.055761873322774 5.44683319041105 1.3929036222670657 -2.0085936121153405 0.22795812004466545
Ni 9.222480813078276 8.394666159662753 7.409854212878591 0.450032013394412 -0.41241471726227036 0.3395457970166862
Ni 7.077267817105021 6.49245396101011 9.366712740296114 -0.34406091127822036 0.9360754118864266 0.7698119406380806
Ni 1.2860365512694776 1.1070980058620803 9.752556018385086 -1.453506323550787 0.40972945712062336 0.36569725860107344
Ni 5.7347763486357595 5.582962013650761 2.2784641417491587 1.026572329626419 2.4891029681630035 -3.033044781633699
Ni 5.684230040922134 2.2466379706841026 9.624918974841263 1.0921683703596738 -1.3229315639533021 -1.0601177696820323
Ni 0.05166617385529959 6.168606767954664 5.923707829836623 0.15377536608366418 -0.9862024104498048 0.8807475858483993
Ni 6.393780182591255 9.022788276850745 9.736435669910426 0.5750943278140999 -0.42251041093537556 0.7537834264203083
Ni 8.325830859149 1.933518596726963 1.255026506889697 -0.949574731924442 0.26913922226866555 -0.1230797367720203
Ni 0.018368389740096858 3.3885967725145214 5.680284197649658 -0.9199859625237318 0.6551196565988072 -0.293393723940656
Ni 1.63942679175572 6.459402676696908 7.708164211090812 -0.12332861955803277 -2.1074324740621253 0.7545136197181134
P 7.235969375022324 5.232387594872766 3.750004257497295 -0.8282047787546768 0.08586173296082632 0.44212355718061275
P 9.149047875808106 5.316068276720494 0.08389025284043936 0.6304365520298304 -0.31525221457664415 0.2797956735412471
P 1.0708616117477456 6.772235852382062 4.219203243912255 0.10229699569871413 -1.1825413609272926 -1.9920447066177243
P 4.69159287944974 8.00984027026968 5.314710219758909 -0.1510044882067464 0.34096170352760635 -0.008706783745378553
P 4.0583745865799346 3.906421768560105 5.851836057979123 -0.43657537366887395 0.6014777029036351 -0.3577088410789581
P 0.5468491937058753 4.436377878456958 7.459228030897307 0.2757456718415896 1.5937553730132423 -0.016902689292609598
P 3.1478670969651517 0.628232903615858 0.6869497103845633 1.7406247560056924 -1.9724606138382095 -1.982769194853069
P 0.4230795197147913 9.146555181181133 1.8827987236096808 0.1913813493618962 -0.15350334336920016 1.361099076161959
