# total energy = -381165.99735831417 ev
CRYSTAL
PRIMVEC
9.31730030489133 0.00000000000000 0.00000000000000

0.00000000000000 9.31730030489133 0.00000000000000

0.00000000000000 0.00000000000000 13.63681080336570

PRIMCOORD
 96 1
Ni 1.437873744591051 3.095141960932169 5.909402721530034 0.40860742770103825 -1.071626027431948 1.8755943022367632
Ni 1.3839172581637087 3.585818950178091 11.91689518613745 -1.8196401554686468 -0.48250093255639487 0.5368764219834818
Ni 8.27795551137497 2.7946683413853943 5.186543265779853 -0.21489023111711378 0.15060391033421805 -1.5321918504781482
Ni 5.968196750308105 0.9954883231491202 1.4960397873243638 0.17895315090087244 0.040368119404401444 0.3081965932814434
Ni 2.490495753592781 3.9610359532717725 9.953890007272042 0.7156351974853611 0.9409983031093407 0.0183515059239942
Ni 7.320807879237508 8.12239386444164 8.878872935107342 2.30863698016203 -0.34523899074672154 -1.2630847669989989
Ni 7.985615895048895 4.262171101144629 8.674470931378384 0.9660927841841234 -0.18970524721105392 -1.1290575300765393
Ni 8.406608794847383 6.661385263038451 3.1890500996046853 1.1146236140393964 -0.014147752255291763 -1.0540185987628299
Ni 4.044593502966197 8.911653061259763 5.796572077541459 -1.351249179951073 -0.734184164132142 0.10512469495549637
Ni 1.953977646539481 1.2480617015073312 13.216974443865679 0.11341778820222402 0.7670179228327113 -0.21486837674024284
Ni 4.660811797361837 3.1801995959857363 0.7510703778024533 -0.0830332623730957 0.29353359195263 0.10250756904762345
Ni 3.6249236598198724 3.5207655590132307 12.24075616133632 -1.4597957561039245 0.3987953267066229 0.19380178587793073
Ni 1.99323143298714 0.021768940578284067 7.468022156771726 -0.42178895938831873 0.8473918932060891 -0.6896994514562057
Ni 5.269175607547798 6.419312482194247 0.48737866491587967 0.15570729299905442 -0.5887828810447859 1.8234782982678146
Ni 6.9686232426519235 2.965752610730734 0.9332981383871477 1.2013497518830472 0.8385010184743624 -0.37084357868870327
Ni 8.156523135687255 5.191236389974888 1.3179256148518559 -0.9635080541760827 -1.0884371854520158 -0.1572890356638775
Ni 7.148391235939637 4.584335395946601 3.861617563162004 0.6333053889371931 -0.5710458687763391 -0.1851399964378747
Ni 5.8982704110511195 8.246192834422661 7.019534835319215 0.4184336697628407 -0.11991753699395477 -0.8333184458321584
Ni 0.2575562705946716 1.2619631136554224 11.772808726336555 -0.47927008432392293 -1.1422575737065812 2.5029208478827023
Ni 7.274482261811028 5.066393882352722 10.831309500166062 -0.2499906743646727 0.16391862516525318 -1.0750062567580905
Ni 5.207476444515184 7.973223885560314 9.222316080488275 -1.3635809620435486 0.2808446836310518 1.2424493501368343
Ni 0.5729664543603495 7.165143742000137 5.035065391597533 0.3290744651717171 -0.5012157353570788 0.964794377087674
Ni 6.239973084723432 5.710163433934626 8.307490421809442 -0.5897920390355907 1.0093433673426424 0.4244958167965205
Ni 5.84289769496794 1.4997219844295417 4.404676415073186 1.465595136394521 -1.4863225987498596 -0.013897841028014776
P 1.619458611450398 5.999959427260412 3.15066282209119 -1.208331839627835 -1.0511777868799252 -0.899438220279367
Ni 4.4709252158751775 3.949985635036092 8.510283327764958 0.18783579810248296 2.089232406114331 -1.114424353544397
P 2.3419127646345994 1.0926957178817165 5.41730484397809 -0.1967827228831256 0.14024467858708103 0.7946243716960703
Ni 4.069368204642989 0.7522667191696215 8.492174222770972 1.058941232875428 -2.5246916639008905 -0.8829430508378213
P 8.638236881979784 7.3378958081112335 10.430468989332121 1.013469987916506 -1.2401412708289479 0.7189210673254844
P 5.340117532544825 8.17857718565678 4.307213726310525 -0.31388927279084655 0.5390389768524393 -0.2767689708997814
P 3.4600912990210273 4.4902027103352316 6.239250062214926 -0.015314775980199431 -0.51297930365091 2.171248282966506
Ni 8.307836093653071 8.247282958565643 6.515995312916161 0.32189388826287785 0.5374374366932744 0.3761289954573587
Ni 4.549516644473803 8.564192295960428 2.0582447597604205 1.1282244926522829 -0.7624976663648545 0.3073525001135932
Ni 0.15951777266930756 0.17608859137264524 4.303613521448579 -1.001519243312533 1.6716536281526178 1.5563036559246874
Ni 4.691931580588796 5.602967893208227 11.68193336893361 0.6745044888833222 0.07643786854376514 2.983484454207068
Ni 3.822729946618782 2.472941959700688 3.3236450255213597 -0.16914619211277965 -0.7839874608075142 -1.6004353561365794
Ni 8.946173659120808 6.020429536167487 7.066049593943152 -0.15737568184041284 0.06968100943590581 1.045369407728264
Ni 0.18665906863940748 4.308301055263395 2.983257022930881 0.38151108570487846 -0.13465715719697452 -0.5166819493134779
Ni 3.0759296875746864 0.2295559195307017 3.5222386242013095 0.200766390121222 0.18940211414833835 1.3374379850995932
Ni 5.492818768265376 6.362122892539433 3.145466563676317 1.024068846478275 3.1202355178185943 -0.35531925780085905
Ni 3.171310891435281 9.045039533318793 11.553392824795644 0.13465612875571004 -0.11389267095611352 0.4705792414181444
Ni 0.9713006113954713 8.15298256154766 12.027994675717771 -0.7687485323705728 -0.5089863804414331 -0.44579123584018704
Ni 2.1039768651535002 8.395046025091498 0.5898149286146345 0.03974591243937026 0.17022348433735845 -0.3363658566268078
Ni 3.9894723539929347 2.270262724809653 10.001645830304911 0.622106177787264 0.1924280454588557 2.3509514246595256
Ni 1.9249356212944408 5.367445174522271 8.030609138522843 0.686572732901766 -0.9909383824728932 -0.88104506248416
Ni 8.642653282353908 0.30357162191891895 1.247471916394078 1.0353127948232106 1.1380551055894592 2.027413058814689
Ni 3.1878397822869657 6.869170378530796 4.279449102945849 0.7862212352340395 0.8140711675667722 0.5780053308133077
Ni 9.218900358173604 0.46239059706067503 8.755296648605098 0.01007975283350522 0.17368753162655892 0.18428973262243745
Ni 1.4286309826266368 2.3328936178790016 3.6892214179249407 -0.6020456595919631 -0.8441461325752818 -0.6096944343864725
Ni 3.3788630744184416 1.1844990784012475 1.3863183264683756 0.16696949617643503 0.4245433822050043 -0.10072322345369104
Ni 2.0764908290698085 5.592075969078791 13.15865000702612 1.2965746712263282 0.3006372928769468 0.04219103154575315
Ni 5.326803110319877 0.5283589471216094 10.74025711405614 0.5019366726835033 0.03256507842021489 -0.08883264266369217
Ni 1.025583203335671 7.535422575899122 8.89300075765436 -0.9978693052647719 0.14419029349839038 0.49752928764442705
Ni -0.12057704751399151 5.56554029763257 12.416507466435666 0.6229021913259981 2.134080415666957 -0.9645694055610614
Ni 3.263011761650772 6.716506412011712 1.7620123753408656 -1.233983221647352 -1.3999031935133504 0.056121268473600126
Ni 4.421571475829308 1.7952853866827205 6.215944698806065 -0.4533199401170644 0.9044166473305649 0.7939656550661488
P 7.013802832133219 5.224983651905442 6.364790435634606 0.7761332548704182 -0.3585565337912341 0.03231028209693146
Ni 6.306172503833476 3.3248972706907316 6.788159247026769 -0.17397729495283584 -0.49803245253309064 0.588756912902857
P 7.628344012462736 0.7676495820761217 5.7545435990444025 -0.5937908757823387 0.44847495331993736 -0.01296530191141638
Ni 1.7216134926780586 1.6456774946841302 10.165806413747271 0.41817424545386694 -0.27701039748662615 -1.0264879974427288
P 7.297766195429043 7.392290207655842 1.247018163866188 0.3104995303830072 0.0582632545172674 -0.23340680186406254
P 3.6843400842624843 7.242989786569374 13.018981811059422 -1.3173944361851568 0.7007839914051415 -0.8827491896594604
P 5.636845597343924 3.374595750850194 11.940118557303078 2.4503464162200963 -0.430221149316072 -0.4154025962460007
Ni 4.628723014896672 4.741238734132829 2.3269584975449975 -1.8341427199601963 -2.5496200517114547 -0.13799650598285265
Ni 2.839754757863017 2.528389214186807 7.8865767190640765 -2.194120559578989 0.4913087606560119 -0.43679803120264127
Ni 8.605915167005437 2.623994033256218 10.4495340493438 -0.9830435531058489 1.104461328794414 -1.5117952890996673
Ni 4.469816457131463 1.4858298895818183 12.969070896451585 0.5365480921097856 -1.8569440341254275 -1.4750495969392017
Ni 6.876894420535331 6.621059987048546 4.868273602531433 0.5854083081455983 2.2074879820248303 2.1132763344374124
Ni 8.438986413623935 2.2197815914193337 7.314826172401667 1.7420820572775093 0.31579034646830134 1.7102705691938673
Ni 2.638892396543616 4.40508917147946 4.346297006161461 -0.7847256245251195 0.4553068886401062 -1.796920602383944
Ni 2.363445045783553 3.7142579357420558 1.7739040457997186 -0.06378084190138693 0.3736005726085501 -0.36802899205804357
Ni 4.58775484518142 6.427371947012007 6.238745064535015 0.5993056349529808 -1.0921997378182418 -0.5074578596120486
Ni 6.24149180468331 3.034560873943638 9.624260691415746 0.23848421638696995 -0.9441443049374902 1.0588404456315055
Ni 8.302329569135965 1.9409893298273904 2.987266257278953 -0.7026835224206994 0.43845819251388357 -0.8162419499658458
Ni 6.874155134227329 5.377041993900646 13.049677657119668 -0.7084075693886703 -0.10842342031142617 0.03158651655702947
Ni 3.432558676435498 7.492842513220317 8.00212149264966 0.575696480174473 -0.05812338650529345 0.7829718750588064
Ni 7.926404451214365 0.06981359992254095 10.746993522221736 0.8669196788263716 0.9705353933365091 -0.6203274886202865
Ni 6.93790410334076 1.3442628278002533 12.338367926904857 -0.5864886856939706 1.5354106145257622 0.9894286306965864
Ni 2.5761590131702268 6.642508412494193 10.603111111298885 0.37508409913261204 -0.24751958711636085 0.27018617547594115
Ni 6.591263260473751 1.0801080450854221 7.878899263561379 -0.9319788732195499 -0.5949550712937689 0.3654692017506673
Ni 0.5460087092074865 5.204047677979999 9.958445235421642 -1.4226374018860724 1.0090705732972298 0.9527251046279658
Ni 1.3342374126049812 8.133518721080259 3.1316387582011282 0.2392951423240395 -1.2149529444887786 -2.818111355983476
Ni 5.632839158185962 8.531563110073956 13.2875585845286 -0.3587259694895628 1.0408357815239688 -0.33931259795995755
Ni 8.082497184268634 8.68718066080949 13.119634743467866 -0.5101166373911344 -1.8209372770135155 -2.0521753533610334
Ni 0.10570477266762228 2.894913176037748 0.7584301133626257 0.9531184834116423 -0.6434949278756853 0.8022762318143731
Ni 8.270194200168964 3.65158045617087 12.62007743524182 -0.7334277455820918 -2.5017512530546333 -0.5354926542620778
Ni 0.19921133569430574 4.776532667924363 5.208198535293655 -0.7356268101159396 1.0696534770866095 -0.481715460540622
Ni 4.866398029967486 3.6746500918804372 4.75241483592347 1.4245317906953079 2.2421713923396287 1.8358648448576254
P 4.52667994127342 5.950764081320788 9.764528921526102 -0.6657781647539179 0.23303810567073416 -3.4070906693097838
Ni 7.225883223094913 8.820362152260437 3.2605613116541576 -0.5823975463437325 -0.08402879351714561 -0.2564359157693842
P 6.018845595105037 3.0420147142375202 2.9002361497376166 0.1944435332269877 -0.5235244261566081 -1.2943414110204352
Ni 6.487077207766006 7.7344587463465215 11.10445547773539 -0.4206314487451078 -2.0109261169032595 1.4151439217225046
P 1.8182432147878789 7.170286891802916 6.814859834689493 -1.8173138213283153 0.0813065094899761 -1.3255193792851365
P 0.6841181208227266 3.223506408093194 8.84480795323426 0.29056113958786733 -0.25139963889705735 -0.7714294216368456
P 1.3442628278002533 0.7903353450105532 2.058776777611396 -0.7845032241016682 0.5171249503881674 -0.5172095396821738
Ni 0.24538135420465118 6.806492898959609 0.7012582265785096 0.5402008583710245 1.3834846429460108 0.2922943202288902
