# total energy = -340869.98551084386 ev
CRYSTAL
PRIMVEC
9.24324057476301 0.00000000000000 0.00000000000000

0.00000000000000 9.24324057476301 0.00000000000000

0.00000000000000 0.00000000000000 13.52841690224266

PRIMCOORD
 96 1
Ni 2.9136080319887894 6.54791152026667 6.3280518034102835 0.33537238236528694 -1.5956333067622455 0.10145547363402527
Ni 0.3522321630474336 0.008229256954394996 13.3687814763611 -0.2529947512983191 0.7911418124641085 0.4857160970595829
Ni 3.4960800708949495 4.035423149957006 3.0792025329315917 1.5928418600600371 -0.744375502842847 -0.7006464373860127
Ni 8.943306520815268 8.634268020294947 9.33399888296586 0.7651284191194823 0.08403393572346818 -0.9448266757164954
Ni 0.8099435642562492 1.333716404814791 11.130260903734102 1.4143137125117258 -1.0599107958775487 -1.0481881081239819
Ni 1.1206134967123798 5.52549820987743 11.272310098330808 0.762176792690326 0.2537907648370532 0.37354349411836957
Ni 3.1933547035879855 0.40920472408281994 9.73871508949611 0.6115384295737468 2.201048139936758 -1.3501384633853974
Ni 9.228682325836038 3.5953524731079143 10.603965582862347 -1.4662101442707007 0.9113640251826756 -0.38976715506608356
Ni 1.4952882475226699 1.5377701805367092 1.3006736689273697 1.2666136060878637 -0.6091786710923186 0.2668380849393146
Ni 6.178865902877952 5.195301932013955 0.13883162260319215 0.4842174010268692 1.7827360833534456 1.0551133744889054
Ni 1.0435988174536817 6.604785178629459 1.55363065678971 0.8482411285802617 0.0898698256789549 0.834385453644092
Ni 8.280362830729771 5.2319606235574 8.18212197414874 0.014294048025168933 0.7341471402466195 0.9048665903837901
Ni 5.415771702738687 4.1023626971475355 4.901670064641545 -0.39818751791929485 1.1234908346220391 0.49526723108312776
Ni 1.5111126751379953 1.955878918125279 7.534989771141967 -0.8336429190511128 -0.39764990024826996 -0.02095654764700907
Ni 9.118817170090852 5.0036340984675824 13.518297360576767 -1.0653183400463653 -0.08766561893878451 0.36601247584864705
Ni 3.8622233107888 7.889725003697713 8.048542360757597 0.0818639246553429 1.397594857095148 -0.8783412903997518
Ni 6.9096549777160705 8.413437763193462 5.483878671195464 -0.12409429407946372 0.41764896907801624 -0.9877851815558923
Ni 8.0346682568729 1.020194932686156 3.4747734773808805 -0.33004119996036063 0.9090317775050731 1.0366765079399567
Ni 6.345308933292184 6.221070538679106 3.9193178825978556 -0.9303747619572236 0.8814842069041077 1.5891474419275857
Ni 2.3015021642656106 0.1887238614695719 3.648018608427191 1.8991283808029615 0.9080542440831522 -1.565166762742272
Ni 6.846680780669803 3.5103146611563996 2.1223783323061305 -0.03650118024982746 0.48978461070200174 0.7155050996654
Ni 6.034070541549639 9.101236526793919 11.991574701001412 -0.7256856397428276 -0.9553381167707806 0.12805790671290201
Ni 3.6648246681761303 8.968392675340965 11.756519096878908 1.2769039322702782 0.001506152231881277 1.5198963209402467
Ni 3.564683401362792 5.84367827518254 1.1209296155350692 0.9362808430290134 -0.6262240566103796 2.518916966200643
P 9.121950628596457 1.781338809094794 9.135753559529848 0.5960084522589477 -0.21928090398564173 0.4539575737010633
P 4.486918471976974 2.034104461880243 2.5261203012951086 -0.5081235182205055 -0.9658924952478591 -0.6528462871835983
P 3.05522371860935 4.399791687688389 5.00976236687235 0.2801551137631949 0.8981732375240143 1.7942165731892195
P 3.364530273102128 1.187941260000949 6.955094747667554 1.0900204707787355 -0.7565818151010518 -0.3957853362357055
P 7.415944229002189 1.2151995760275816 13.196713009821467 1.2062628729139482 -2.294790046976609 -0.09616645732094406
P 7.1886621900809065 4.208937259299814 11.723685258225194 2.226289945222682 -0.9145228825266315 -0.26889008237233686
P 2.83413465077584 4.809378157600948 12.68270103115649 -0.4411771341069434 -1.8104361203718757 0.09148165025076503
P 5.379991119036044 9.010578824661259 9.525439332797665 0.0009163411666822927 0.11526821114740148 0.1271186827280843
Ni 6.818433437917212 7.641627187329167 7.893425072841647 0.881778855326391 0.07157771223798641 -0.33736652997718025
Ni 5.15498291726042 4.744324231458039 11.810632723649444 -3.4567612970620334 -0.9953768778602212 -1.433313650652996
Ni 6.023505517738705 2.906342845011192 7.008531769238653 -0.2855626579320114 -0.7959194363584099 -0.850779064510767
Ni 8.61034651406337 0.132255057037594 7.096236256054081 -1.2314730536309888 0.9920982071089494 0.4297524372097696
Ni 8.195029235084512 8.658762607433156 11.425383705787793 -0.04325392559262873 -0.6784899558936315 1.1316556298210187
Ni 2.6623582706337796 6.8864174712762765 13.00983225049354 -1.0657407722957646 1.8314476896265361 -1.6114556185064828
Ni 5.420384079713014 1.724474393972433 10.820108592742026 -1.2342166778143968 0.00025248233043827483 -0.0865099080677865
Ni 0.5847440274037352 0.6021157734669609 5.179259363924492 -0.8916634614299547 0.5760024414506661 -0.8553741400806172
Ni 0.1940895625389039 5.126670871824825 5.555485130478855 0.5865491066182609 1.1401150734422816 1.6695381244715117
Ni 5.3529176678180015 7.542669055290806 1.72535989640558 -0.20821281909693817 -2.0440848630434147 -2.2358091975670273
Ni 1.5951614603635527 8.58395706263711 6.789519657529654 1.8162046474245368 1.2667735287044957 1.1466158506752768
Ni 1.5245615899629361 7.583256124016796 4.608860845667361 -0.2791665245976805 -1.3001389915388188 0.10203731427942427
Ni 4.944782386652877 9.019572497599176 3.2479157031953116 -0.8473314722817987 1.7954597015677014 1.3028520195946076
Ni 6.315138996530255 2.9244688394934664 13.2980679141032 0.28330394380482177 0.40435353752069075 -0.4849902746371519
Ni 3.268862734656673 8.877716486727447 0.9823983982458362 -0.0911648903412946 -0.07607637143928833 -0.3301746402144314
Ni 7.709472572081789 1.8787071037792786 10.993096761704393 -0.008218017034418105 -0.25190743177141134 2.033582935070827
Ni 2.9714060143945304 5.92406673719801 9.014511823464018 -0.7314492816994823 -1.982315138034786 -1.6040971212588824
Ni 8.517895623287384 2.1823937680909125 1.3546273876384771 0.43565389029586904 -0.27815762371719194 -0.701926589650017
Ni 3.388054319995237 3.185146706086578 11.101310150384826 -0.4273823943156962 0.1135363160579593 0.7068209416278407
Ni 0.5982983151695723 2.878030799575595 12.768918280586812 0.7699988598379061 -0.19803947810836217 1.0927759220366857
Ni 7.357277381996074 8.198162693590115 0.31674181709427734 0.32641954404737333 -0.44598098325349 -0.07903802517077356
Ni 7.0747484950275945 1.0775862125129991 8.906460191491103 -0.3241469459631127 -0.4695425726235139 -0.6447591393000897
Ni 8.070143813641367 3.528616277206834 4.526567351799368 -0.14354906036996568 -0.9672243266854053 -1.0714190536274644
Ni 1.0175143929615973 6.698779690557172 7.930709531762171 -1.5427056055252786 -1.333306222319407 -0.385728980440968
P 5.173386208955581 7.198875970755518 12.973386153479971 -0.12727192047649694 0.33123856270257146 -0.3849949304884208
P 8.195972045608322 6.649651867674313 9.935904834875071 0.9602720637372882 0.40609957367752 -1.4168755597016307
P 3.0482080991233502 7.544231162923395 2.5644196680147937 -1.8444728982416103 0.31749061698885966 -0.4561155005843306
P 4.599094437829538 4.625687240545245 9.706165018323581 -0.133294472521493 -0.5402144852177793 -0.7098072779496744
P 9.04929875882049 4.697035813420653 2.4614139209923493 -0.08643380341421245 -0.17536851887340768 -0.2859660640180172
P 7.426842009468585 4.591736818447646 6.277130791884099 -2.0074823813290332 0.3838253356603519 -0.25398488312573037
P 1.8532142466746833 8.166264270867869 9.288488864387112 0.1886230698904687 -1.487437429080593 -0.6991837367975572
P 7.254455575458176 8.111978719825341 2.7380160421974256 0.1467680815278956 1.2659487188103553 0.8924137093324179
Ni 3.7751704724236506 2.059024238078209 4.936749086395587 -0.5009218582657436 0.153493058956555 0.07740383200146024
Ni 4.258619676608444 3.6431492693689234 0.9823521820436886 0.7382362227143286 -1.3175813553849824 -1.6269963944545591
Ni 3.449004247387443 4.103102156381896 7.147441035061452 -0.2883888145268969 -0.7963387832840156 -0.3125522991469778
Ni 0.20192320880291575 8.738624204744143 2.6850393339997174 0.5475513851988247 -0.75056363393143 -1.0601578788913484
Ni 3.6353572176868445 6.989914034365528 10.766319403710563 -0.8492752262717309 -0.4116207606060653 2.1676006589115895
Ni 1.8426677093446093 3.4693301330919404 9.30046163371546 0.6422443432980358 0.40657188532824823 0.08878867679963418
Ni 6.342942663742229 0.7273820164158005 1.6957325378568635 0.741620051584897 1.3469641794224738 -0.41510074873486574
Ni 3.9270646424018305 6.650326624225668 4.127925802879395 0.9323568253842589 -3.1803646219000066 0.24047347890285684
Ni 5.475862008770948 0.5483691033414745 7.265530826140818 -0.8142076931446365 -0.5523619192135906 -0.4924737274983905
Ni 5.988593798636438 2.039650406137951 4.022526056585707 0.6657912773800404 -0.6015828610229317 0.03389125343080615
Ni 5.358066152737241 6.747288216331254 9.409406162713866 1.1294426813301 -0.3321932133063569 0.10629968910020403
Ni 3.8735740100362417 8.541244048612333 5.182749611510676 -0.09032568226945088 2.0257708952255755 3.3693808134638354
Ni 6.685155154164071 3.460826351896789 9.344753393205599 0.0621384212019575 1.2868073074269193 0.6948234029463324
Ni 8.625274347357031 6.611199987487541 3.942735632226026 0.7637749904153814 0.7278793049600367 -0.703438398308853
Ni 1.2824811231140032 8.015340641134788 11.356308045734004 0.12900921488257783 0.4603030563031169 0.17410147923552596
Ni 5.594979648186076 5.187833393746908 7.584422620959 0.499380739030869 0.9333541563005215 -0.36720572482579983
Ni 7.418310498552145 6.163032232022197 1.8305710805945064 2.3475598824794734 -0.6704447169916518 -0.7434203380184294
Ni 1.6711224102132867 5.386433657615415 3.5166851024604195 -0.6031124102935806 -0.16739861329405362 0.5326335875467278
Ni 8.346045297221888 2.9975551415696216 7.447285284326538 1.4096039657408819 -1.589043826470186 -0.5214721716132698
Ni 4.6360858860284475 1.318206247374069 13.553985511875114 -0.89214194372827 0.21910324075719684 -0.3029715974370782
Ni 6.71342098339752 6.289276409808479 11.298311333659026 0.13634920018741678 1.3313784091690748 1.6279075934149188
Ni 4.503047926526473 2.599189965538491 8.858570038501755 -1.175884260622091 -0.40660325278681586 -0.7932508883873112
Ni 1.7950650211326198 3.8508910980222177 1.259008838367299 -0.4699097261549456 1.2704800310218056 -0.12297792108683339
Ni 1.3947957375730098 2.9531321280653846 5.258576534374182 0.03692155561669771 0.8926667058834884 0.11639589699394148
P 0.13651249357942746 7.120872264770862 13.300489643095732 -0.4150043323663175 0.3758883402014623 -1.9543127392845892
P 1.2637820477250994 4.3557846200034795 7.418713503834872 -0.5299580975970937 0.7089493008247532 0.15057048599312134
P 2.3613059298445567 0.821818355236044 12.82215195086846 -1.4991115229844119 1.781754950387099 0.7209864344949454
P 1.0720679979765801 1.8937458559580955 3.422581520295638 -1.2114523875346876 -0.028002141639880806 -0.9069725809831992
P 5.343027400558423 7.0029747330924295 6.130915668825813 -0.6193180735191656 0.018016748292394778 0.13179886181257303
P 7.413531743250087 1.525753967978343 5.739633587935818 -0.01997772867350753 -0.4544699945611076 0.15661334975309157
P 5.52626539883308 5.161665780090958 2.2665784289507838 -1.9597153983573994 -0.16885899988966402 0.5051531227382721
P 8.852362278229295 7.487634801773488 5.979654660817056 1.1958910427613212 -0.34128052031960576 0.28143783713036047
