# total energy = -340860.0509423553 ev
CRYSTAL
PRIMVEC
9.40771743135757 0.00000000000000 0.00000000000000
0.00000000000000 9.40771743135757 0.00000000000000
0.00000000000000 0.00000000000000 13.76914540743630
PRIMCOORD
 96 1
Ni 1.670434261185346 3.32106527772215 5.9809307917102865 -0.06324245289941366 0.8224491072178222 -0.4272055024181997
Ni 6.460523983142418 2.410153654757899 5.960676917409172 -0.07386008051425991 -0.5581646419382968 0.11918143015887864
Ni 2.6928461480804855 0.1872794257570212 8.001497707542466 0.017598944028685816 0.0609351449224757 1.9010716205722615
Ni 2.1024178183215745 1.9831750031575495 1.573001356742801 -0.29439799683545426 -0.39066318451779175 -2.953870230885061
Ni 9.069942495335363 3.298571425962214 13.67762128517229 0.18946279218294468 -0.15712371373060682 0.14490737417007304
Ni 0.7467949376581441 2.202271328392656 11.630645025692896 -0.988400446542388 -0.1839781149192896 -0.42467245158370087
Ni 4.703087153543905 2.0857285280571976 1.9748124833627327 0.33267323826656897 -0.3018873632339639 -1.5804954226795425
Ni 0.5160095238359527 7.071818629590388 9.13491877553208 -1.6143254838551102 0.5560069721653457 -1.5158784580301055
Ni 7.550436240751711 3.5774632015470282 4.212036303367136 0.30685447743125216 1.5992423642697426 -2.589164903883612
Ni 8.719298060874335 4.4939536007946925 5.661583009967693 1.7410767559414466 1.6226669138412702 2.8229817967018995
Ni 2.2212749170815185 8.916831898349605 0.5828024342187175 0.14296850527614732 -0.6767912280349699 1.6080406792876627
Ni 0.8624722280137141 5.498330893869758 1.834187808608586 -1.135019146976613 -0.8455540686664018 -0.5197310205524468
Ni 2.9782292485144657 6.379043744709628 0.5982310903819523 -0.46656394961116426 0.3327403440590786 0.7259941721221819
Ni 3.6661309358997647 4.027725953149821 9.517466660469182 1.222791466696591 0.3758160922026302 -0.1409105943058541
Ni 2.195817634412181 2.1499173823265574 9.644996733690641 -0.2546412857628066 -0.08934120686899452 0.09201155461230605
Ni 5.577402756706336 5.900247386922024 11.728461764996087 -1.2181845640521989 0.9037854415044694 -1.9306395640373655
Ni 0.959192027494568 9.394574591813866 4.763174243125967 -0.6950362902880869 -0.4389934961920633 -0.5415918251812802
Ni 3.0303103707825554 -0.044091148073312464 2.85976915541921 -0.09373985015732243 0.5922559271950509 0.27191909900664785
Ni 2.7949669179901893 7.256821387791614 9.335824338842047 1.5406440950105595 0.03395090302414798 -0.19417793827042687
Ni 1.8168183403926224 2.088983598198953 3.636720530474457 -0.7983655839060573 0.0993890780232998 2.744139946702332
Ni 9.086876386246232 3.167409033140373 2.233355366702988 0.7172351949826292 0.387396597951378 0.6001263310820633
Ni 5.928771585389662 1.1679304561225274 11.87569442029234 -0.3472611633830729 -0.22995869541446204 -0.32785062006694504
Ni 4.256145326103077 1.6692112579528944 4.171197403120428 -1.593324713233727 -0.5776183797875343 2.0660256289805643
Ni 3.7495115332014413 7.862320880461199 12.695317318899539 0.5018708524425743 0.011457092797006074 -1.2045741723576158
P 6.318871985673012 5.950428150321228 3.1925963143268534 0.7308718119294574 -0.09595614108235087 0.6286367798169302
P 5.672533592756721 6.282134850113604 -0.0015447471597580188 0.13938695857247607 1.1829077431277757 1.3540712227809004
P 2.286564474260085 0.23727579789964004 12.480077216933525 -0.8446716660614485 0.7271434552352767 -3.3788874674026905
P 6.121996688399833 2.2903275611291667 3.825206025573019 -0.4322368941945201 -2.14387734715272 -1.0535270038383922
P 8.454922392887005 6.513414169087361 7.29708265420392 -0.7372309213782657 -2.1019616807555415 0.34290340063500946
P 4.321077390029081 8.007143278617805 7.973519156670844 0.025140760931685734 0.510739615687114 -0.08716631070486279
P 3.159807597664828 3.8265607368458885 1.5985837620505354 1.4349581282349546 0.13162017014286365 -1.087077843210644
P 7.477921556784508 0.7164371751135452 7.188567458931929 0.3221314581949807 0.46443687596583233 -0.040271188815220973
Ni 8.146612685703145 1.411317507097556 3.509176345677238 0.4757726126936258 -0.19156029814192171 -1.1663392972461333
Ni 0.0656545766048676 5.545218956258515 11.616931396370246 0.3345619706488496 -0.38500058691537564 1.602746263657943
Ni 1.7267112253124621 4.350006120335146 0.013437983209490585 -0.6553726531498778 0.7221346891667758 0.36730291252529645
Ni 2.177190354410227 7.455691121105407 6.535951296346291 0.29029065953530003 0.20745820031910078 0.8609434066382786
Ni 5.2629498102087 0.30939347620215535 7.046842081268576 -0.04060080424049782 0.31855376814605135 -0.06051888332066352
Ni 8.158447593906406 7.030979729343679 4.89136473809295 -0.5952641178937554 -0.16082970182728432 -0.18452550278232738
Ni 3.230233768419691 0.13418603312114816 5.734339472266235 0.2405333856065148 0.25478269643667734 -0.954407377426395
Ni 6.363276410728177 8.455383371028466 10.748580285895308 -0.4918612907253722 -0.29360481151019757 1.7546105287618234
Ni 4.249174207678103 3.4281909531677317 6.421212896164557 -0.3470583033436475 -0.23293449021333432 0.6856507353081289
Ni 0.28314594529031084 0.27466018440053175 2.0041542124526797 1.6448383077319866 1.2432026833630911 -0.0411294230504582
Ni 7.621041158132855 2.902515940708543 11.97247819224997 0.1272714062558647 -1.6409633981576126 -1.9895134555554381
Ni 7.071752775570179 9.519198621200676 4.966984909498864 -0.5868584103285636 -1.2280671132732335 1.6346027460469075
Ni 6.098298648841792 4.174759164842014 10.002402494483693 0.5224962420024097 -1.0402012332637636 0.8158290307981434
Ni 4.795743759977868 8.091135377535707 4.4639702653935665 0.6679864852591463 0.2565804117670484 0.14925896627054938
Ni 6.74719594082906 8.889455441377034 2.4516924891622573 -1.9696861364168656 -1.1759691070264136 0.6530895135426559
Ni 9.085145366286454 8.32500181873196 6.820917634909521 0.7708167277535113 2.6825160032429483 -0.4680173942282391
Ni 0.10248296702085248 1.804268445684235 8.440650885936012 0.4615040185897536 -0.12779565419045089 -1.6000702594876768
Ni 8.870414221819482 7.680300368603718 0.9110602648955792 0.9345281220039647 0.05476526866633794 0.4287813315457519
Ni 7.901174752384466 5.323403800760498 1.3948144896331984 -0.6771236716737241 0.3791065900284439 0.965032718350725
Ni 5.890510399648275 8.522309870995084 13.906699198327637 1.5564928891173582 -1.2030307391298958 -2.617947118222627
Ni 7.9241013591343465 5.7663191252514086 9.898625025579877 -2.1311398449813943 0.13642093396561666 -1.7439648761225193
Ni 4.05788709440551 0.3124368727075252 10.33112694793232 -0.3515140251221559 0.0780880025526784 -0.15432712482207614
Ni 0.20953620304420462 0.7247978133649272 13.448199990340141 1.4358076207194435 0.5828330912192543 0.18995772954149223
Ni 4.284039207520145 6.36596701783957 2.8023237528192437 -0.6491099600696175 0.49917376522638557 -0.29587560982224526
P 7.7136413182637815 0.2488312969028725 12.922604002705205 -1.350877398433951 -1.58245408906781 -3.01604310486938
P 5.965696875292527 5.019289935435664 7.97262448276772 1.1249530209898626 -1.5533402024209892 -1.0137841767228155
P 1.5556695193955283 1.2850094963368301 6.56638149831312 -1.11772153623843 -0.005291073195610242 -0.44643529718208913
P 7.115987861716234 3.2636970184029996 1.1825359370331505 0.5375253684213904 0.06215230515902844 -0.42873582301979707
P 4.699738006230422 9.237945508605515 1.54204808570117 -1.646401024233416 1.461208063070419 1.1853664890809132
P 3.2899633647491897 5.973495872828699 11.277218729263899 0.4761407946663219 0.06704202915116196 -0.931757758347679
P 9.20133067336935 5.282687200837034 3.7600641695540635 -1.5557061315500047 -1.6412266791213281 -2.5364485473265024
P 4.77129310304601 3.2284180790053596 11.476086581034256 0.09163411666822928 -0.47557875151526485 0.14621400879663854
Ni 1.2335492834021387 9.261436578385757 10.036880837149937 -0.13165436581490872 1.1292891864713712 0.1845643264400628
Ni 7.422293725142309 0.9808862232948238 0.9917897674979879 -0.046533881895481154 2.7414333464044462 0.9799188914339382
Ni 8.991745550195848 2.0302606276069337 5.637501135549004 0.1851212273847973 -0.44212330007029665 1.1200946644562966
Ni 6.21484144917725 7.208954922816896 6.805358211477586 1.0562765415590711 0.49857444107948967 0.35930678169369734
Ni 2.625496300841097 3.166788123806975 12.219868226881985 1.649561938459901 -0.008124428879347298 -2.1424974360860585
Ni 1.5451046530105814 7.443809174316282 2.4829345771210902 0.3883453350178925 1.7631162522399895 0.27069268279871445
Ni 7.47428077023867 8.565171430433924 8.849236509692007 1.4788941674962723 -0.7580666271766945 -1.3753483869921215
Ni 5.515866878679678 2.9796498138075442 13.526642476897866 1.9131442354660795 -2.7448855666191054 0.7466180190201207
Ni 1.530428614221163 7.371002851116725 11.32748980674796 0.6421034468447974 0.4478959408880157 0.6360364147151111
Ni 1.568332306709988 5.039902243761058 9.617706827716063 -0.679912547272771 -0.2029824239359343 1.8604924135983185
Ni 4.2379413933738945 4.638315020809837 13.41772933518947 -1.9978559139828624 1.6951856498362867 -0.11558857060129771
Ni 2.4965447215548413 4.745628850598873 3.3043609351102963 -0.504773113691034 0.017255444646338026 1.8255032991176432
Ni 7.071602252095416 2.8879716099595423 8.169481905378271 1.3130546711592226 1.686494292709876 -1.0169918850268358
Ni 7.841717979852976 7.006312694916849 12.724493472167246 -0.9179918149118383 0.5439163595493988 -0.23116711390026637
Ni 3.720742734087312 1.5441262504246203 13.395243950374988 0.3389120200874292 -1.55887630174787 0.5787720337760032
Ni 4.1821536305397595 6.00397687646826 7.2478436032937035 -1.6593755821162133 -1.3824970822217608 -0.9225010156361015
Ni 4.800268871937939 4.077248176346935 3.395429518885507 0.7968514612543761 0.3579350981571513 0.5926084254384633
Ni 6.993819246511498 4.675870627763272 13.032605617290482 1.076866707005597 1.379083942775154 1.2216835783443927
Ni 6.249339548049557 4.963012971308547 5.664970728921584 -0.8135674884574764 0.43572510985343665 0.28479904029310954
Ni 8.450914705371432 1.2191460684107287 10.312855279639495 -1.00104127523485 -0.6603755056811078 0.9136597631953878
Ni 5.40061293559688 6.419769752350264 9.388835884338517 -0.6961518919497688 1.8634985474144938 0.2807145858110907
Ni 9.052453549111307 4.486587358248465 8.029353017319126 0.6315783789437575 -0.2645955687620411 0.5785149234598747
Ni 6.302455519206644 1.1408080075136213 9.189472245873157 -2.037610311062665 -0.7417290663589354 1.3318574056880224
Ni 1.2477455286157493 6.314996006197858 4.647541169041108 0.5620115264882127 0.11169232087068505 1.8784765088805648
P 8.505112564003381 7.570662832673025 10.71333145119262 0.5558102827735073 1.8005420011866151 0.35629447722993474
P 8.796591865165272 3.93173901483672 10.464371268564483 0.5380529587900863 -2.5322113693167037 -0.9620908621135819
P 8.58366700239546 8.534492864733735 3.251336218809784 0.7161715296048053 -1.224613093286362 2.019573251055296
P 1.0291289969564505 6.6736370002556855 13.268471198385932 -0.48956143894760207 -0.5987389638162334 2.8141410584818183
P 2.153040744427895 4.503464802856296 7.716325339973155 0.6330076551911162 0.07226651077489489 -0.3928843605388266
P 2.6182241354665967 7.888229733554826 4.373287398022437 0.9884408128620203 0.09661614326385295 0.1716350199729044
P 3.891285830994093 5.179381058563569 5.168950722534193 -0.38636738535591525 -0.03822896157421158 -0.8715522925023764
P 4.130853348797003 2.056451712215742 8.582748809199405 0.6561707235711409 -1.173713221112701 -0.18919976832954513
