# total energy = -340872.06037736696 ev
CRYSTAL
PRIMVEC
9.21908181194829 0.00000000000000 0.00000000000000
0.00000000000000 9.21908181194829 0.00000000000000
0.00000000000000 0.00000000000000 13.49305811085451
PRIMCOORD
 96 1
Ni 9.04344917309656 6.710459087788365 -0.0573353141675277 -0.3146847721089484 0.5675615097721645 -2.1821747000710223
Ni 3.3644394067147 6.0362768473463255 7.414071403387499 1.8607412963843308 -1.396602925495524 0.7801943123136692
Ni 2.6121346662315568 3.8828099439239465 1.040190854866379 0.4148855474002662 -0.697441814405786 0.49523380674203094
Ni 4.879097686954623 8.211012172717586 4.356922434644248 -0.7415496033582777 0.749090134709697 0.42833498803695264
Ni 6.705360935496326 6.934593406999989 3.7505308691552695 1.0134458195467901 0.2402492787071927 0.4416065083348782
Ni 7.939058475678112 1.0317812083549918 6.683503414213881 0.4531633599345421 -0.9379854844249458 0.20651614812080563
Ni 2.110837868705591 7.603769685969016 1.2297213501572712 -0.5665340969489145 -1.0060346146843835 0.17632805457319956
Ni 6.842227425419647 1.035256802232204 3.415997122253981 -0.5029077783475211 -0.679616613298907 -0.03622710065283438
Ni 1.635787797355814 0.5483804926180029 1.960878438664454 -0.2486706700016685 1.481349313904984 -1.0368842530753883
Ni 3.7270258979368607 5.591843346994483 -0.05031498329883521 -0.009941170373111912 0.2435274352378322 -0.24094707610516566
Ni 0.2705966481834383 8.667919090883402 5.509944711006149 -0.4708054984963375 2.2792644405371845 0.02462165520342211
Ni 2.4244710350259044 0.4182264162278338 4.4344392410043625 0.0027899040403113243 -0.617819120376136 0.09749983142038691
Ni 3.793707517337061 5.014212551316484 10.720788294494769 -0.3908521606001462 0.0026356378506341704 -0.6356839164716988
Ni 2.4297535689559906 4.992971786613309 5.53852294299546 0.2524237092861975 0.14964488885505842 -1.4147837101696086
Ni 3.960453051706124 1.8608624629214847 7.46174235399672 -1.331448600285378 0.34542076774022445 0.523074225993067
Ni 5.638528777748337 0.46619329936612275 10.77733722097602 1.382425091333245 -1.061242627315095 -3.9646284762973596
Ni 0.7859470141614524 5.558516365917237 7.054399985862883 -1.5295549270759337 0.09917799045375822 -0.0034614761860392
Ni 1.6342943060876216 4.945742430027213 2.784373851506271 -1.3306168484127021 0.901069585235203 2.0478587282635505
Ni 6.273317881221337 5.0671761768458845 2.3203203010496996 -0.18496181898879757 0.373536295029518 -0.8347299814677044
Ni 2.896912106197297 8.831281222194276 11.185394067957294 0.6923140062609173 1.0612014896645143 -0.9096413860646141
Ni 9.359304138155355 1.17865962122434 3.580382571656024 -0.6069886054195354 0.929128291144632 0.8456036909574146
Ni 1.0389997494845862 9.209051541309723 12.973859080699079 0.03451988815374055 -1.2235877373456412 -0.543071237940284
Ni 8.782475402602866 3.4642083110626842 11.76426022061022 1.0009446017559858 2.152056026308771 0.8865564792206926
Ni 8.120858770793825 4.575845206856434 3.8203976813527567 -0.3791785809169599 1.1222731601648541 -1.6791332243591144
P 8.066595254716184 5.871329033948235 11.56921763624987 1.5572773326918665 -1.0838518800741785 0.27138688065226163
P 4.823386775018301 3.8960301073720163 1.016769777293282 -0.17678211139148264 0.8556613323037328 -0.9624094217952652
P 6.068174870728697 3.624325325543907 4.007708221721546 -0.1885564783185914 -1.0011225220947468 -0.032697490233021105
P 6.7803120713629985 7.167144747988523 1.577473416690249 0.5354042083133296 -0.580295155288749 0.6161155074214679
P 3.975203582749995 0.9062302195587008 9.406590653049246 -0.21351469092582584 -1.9860344958679024 0.6608493599937327
P 7.946203264152487 4.867933378770793 7.265593479808081 -0.9744334428393348 -0.30416381797296643 0.8691994759994838
P 7.287647367535048 8.68741744910702 5.177799628225777 -1.0369565010742205 0.054262617998306555 -0.18853796637583015
P 2.326481413485087 2.8984885692026103 3.0464493022873027 0.18750669689783836 -1.0948250912562307 0.25205938396824334
Ni 3.9705110700616637 8.047696136816224 13.422192252695645 0.7998015450216355 0.6701217864345943 -0.5363583446964827
Ni 7.819468545239926 1.9828585737362028 10.410204800467776 -0.7822653359100851 -2.656784659915115 -1.5627802647879667
Ni 5.199838765421702 0.9463479763652698 12.659227487808735 -0.8897099372480097 1.5285488544089223 5.233956653102909
Ni 4.803722473320441 3.647243963153322 6.300434888729114 -1.4496046745035358 0.7890864725969765 -0.5652020084010524
Ni 1.935380301938742 4.246428972319179 12.323709142960269 -0.8561848089073707 -0.027740403338061905 -1.2704694894988444
Ni 5.594332499108138 7.505853817083417 6.63065041766731 -1.0383868057628438 0.5143887824039269 0.45208838170280846
Ni 6.5690936858966635 2.8647098531121453 1.6516040542676047 0.7864091828751295 -1.7939391511581169 0.24161761980962904
Ni 8.401911701670988 6.438864934943085 9.062666349322154 0.3868186139607209 -0.42109836107919735 0.7751302675272005
Ni 9.549862561078369 6.634152746882038 4.66034085821668 -0.08937257432756222 -1.1394388733108634 -1.1323505990055143
Ni 4.2425938342477725 1.9591286569193749 3.6605046905617624 1.5263351345870553 0.1913571809921801 -0.9583987579739752
Ni 7.936006959568411 1.5841701577841665 12.915245079871685 -0.8326435312523208 -0.9388565741759896 0.6168860670389053
Ni 7.9000064447394625 7.104482648297777 6.8013380314578455 0.7247104203137519 0.06542891902777119 -0.9222253933772118
Ni 1.15404467254488 9.279743461337477 7.889566756393163 0.8505201544224256 -1.4517276343838095 -0.21420194680083757
Ni 6.105751848562959 5.167359939879478 10.9473499979713 0.2368955317436114 -1.3681374710659793 0.7099337762252096
Ni 3.280407475174145 1.8436688751734722 1.1235166047332077 2.351978580372459 -1.5173658412089093 -0.47684681959441094
Ni 8.91466781800166 6.469011332763998 2.167362825573896 -0.5827351321888092 0.18009883446954145 1.4449134396754535
Ni 5.591668184438337 1.2373667347789479 5.724510545111253 1.2935425692682239 -0.15627884923180826 -0.307885746909244
Ni 7.949171808525066 3.908070228336576 9.314379552044867 0.304296744006405 1.2231159399155451 -0.8075585632592349
Ni 3.8373967464726277 9.060052739602819 2.336107056899403 0.605606380360028 -0.48150900095677074 0.04937006579269562
Ni 6.758416751844752 8.353741998730847 13.296734376626567 0.3281018168458027 1.8469758671691225 0.1732090493282436
Ni 4.927811315727007 7.305145184985841 9.54373463733783 -1.19095401047102 -0.48565104814960236 0.5265166760157126
Ni 6.66864133227899 7.417516574294433 11.088500595254676 1.6377294646013472 1.3929571012128203 -0.721581387766467
Ni 2.7841627345307054 6.970464854682303 3.7112926127621915 -0.35228047097453524 0.7803434362970239 -0.10397438340113706
Ni 0.7359519330046311 7.594596699476108 10.470734526514493 -0.18148465907347452 0.7549828460450482 -0.20287392338252802
P 0.7241210851992561 8.247648804197802 3.0219726398363793 0.38951544406659366 -1.5025855975759412 2.0056044475800294
P 8.036181503520101 -0.07215314450928664 11.37668540789155 1.3160332941715724 0.28405059216285916 0.40581700944009463
P 4.687829394725125 6.894831506754853 11.706685210313228 -2.133415528389448 -0.25633589985641014 -0.19979631289846883
P 1.544122466000056 5.597715902166325 0.6889558191906671 -1.1394347595458054 0.9018468297208596 -0.9993723721728596
P 4.357813919864212 6.028191712517903 5.342130685044597 0.1936619178659568 2.2874649740701054 1.4703689036340806
P 1.6026083215890057 7.063181161374938 8.300295293309759 -0.7553440860392088 2.010051684718106 1.1870505616515556
P 0.3960849472227928 4.486549179549598 5.197485133812013 0.15642000279536286 -0.8653723889439097 -0.28429664673539423
P 1.030333812496312 1.5208166269507395 6.284674868216928 -0.3172481619607504 0.283702207684505 -0.8197047117034656
Ni 6.176406892263103 5.405608673483706 8.767276824178538 -0.6714836997791274 0.15498815544484273 -3.0251237270144093
Ni 8.464619896771245 8.991988257917255 1.630770772984517 -0.7680304232576256 0.09299474446118178 -0.7649769811432826
Ni 8.3813808062743 -0.04387084504904394 9.086036721944787 -1.1115781423448534 -0.4342932625029166 0.356456970949728
Ni 2.915719033278233 2.4360870782229527 10.284031523643073 -0.8651340476808584 1.453130685378923 0.35457929431104096
Ni 5.813765086549528 0.9056881375428385 8.37006807087184 2.663978863670709 -2.4374852439867123 -0.7098553575787905
Ni 0.924775324713608 2.238697315610248 0.023146348932404776 1.1003974431376855 0.5233246514409762 -0.023682688328920506
Ni 6.657845787371256 2.8750997584161717 7.33455682197913 1.4383733245640906 1.2738456050599287 -0.12547369092549357
Ni 5.4090012956237965 3.0335757763187643 9.324917884567522 -0.13672818079339033 0.09863163103198497 1.9735934418910719
Ni 0.8000798667178617 1.1165230092020322 10.638372468011708 0.44705030505826876 -0.4066233073914739 0.3590866952630912
Ni 7.797849798178752 2.605865690537912 4.944760597804606 0.001837567429371029 0.09847736484230782 1.2025041772024645
Ni 2.282312792090595 6.645980828962843 11.815992176797456 0.18093598565885613 -0.28809673720777484 0.839482151440709
Ni 3.4730494106071044 8.246026245782977 8.16663335625572 -0.5793032236891249 2.534276479375848 -0.8577500965119615
Ni 4.242096003825042 3.2545940458473708 12.383416526901287 0.5200842901268075 0.5229649541087122 0.2947664359184665
Ni 4.052828252368368 4.910212088375289 3.6890423585907017 0.2663655161782703 -2.2479113801471993 -1.4712011697273888
Ni 2.039288574060913 3.441686093975073 7.486609905520306 0.11923208089115593 -0.14879719614278245 -0.46517632523501823
Ni 9.508745455793578 2.139693595060164 8.276723022793462 -1.600243294730431 -0.2528093747603904 0.3961020961451759
Ni 8.729096918387858 4.348336703668524 0.7777678446976257 0.5584168671584189 -0.6830832316912688 0.46131452828676683
Ni 5.9672167048153 6.132892825683682 13.249346451831752 0.9648907934562221 0.013453040181112316 1.206064126639581
Ni 4.5062134812474595 6.708016031084224 2.0549794514588307 0.5464311555514525 0.5971050277572363 -0.2478630864987086
Ni 1.904459501238027 5.134272654931694 9.215691124095844 -0.32714253825632694 -0.3881558447149057 1.4206368265162759
Ni 6.766695487393124 3.999560397136188 12.889135718015844 0.11950744603972967 0.5250981984016312 2.7570983066352133
Ni 2.8693286131452576 2.7196568184594763 5.321945505219248 -1.6721603925857071 -1.0185916254137877 -0.17210424629983906
Ni 2.1864343403054316 7.5198852597389 6.0178091824793984 0.8439661553539918 0.7314209995647081 0.5004585454760802
Ni 6.313190410449302 5.159182614232032 5.674761613441226 1.8354069313846004 0.7253362268232089 -0.2558607599922045
P 8.696157138750513 2.1295249477217957 1.628949082400599 -0.25081317026596806 -0.33838880059410753 0.15751297874922549
P 0.7539272988979688 3.3261709977377563 9.971666902992533 0.9409378821850506 0.08219456852188425 0.7257555737488146
P 3.8531429383619606 4.079572808967288 8.397107638091638 0.17555029586691057 1.2241379534221564 0.3810387740541502
P 3.07071023822171 1.4383335011697915 12.442543108682454 -1.820256448896407 -0.6715055541559984 -0.016742766675977613
P 5.755518927090041 0.5348551775589632 1.5342147186795259 -0.21316579222683937 0.5623743091442702 -0.7387923523281147
P 3.798814888711002 0.20200760073762705 6.170496538855462 -0.5878667969884198 -1.8014364879764266 -0.7493565009972063
P 6.75159463123696 7.812148594209404 8.628999814724148 -0.03070334262112777 0.3332458229405874 -0.816592134216413
P 6.246047836953981 2.7281660310554097 11.481648342983359 -1.5749690935446747 -1.0080107645741478 -1.1105106203122874
