# total energy = -340896.71109327464 ev
CRYSTAL
PRIMVEC
9.02483835893628 0.00000000000000 0.00000000000000
0.00000000000000 9.02483835893628 0.00000000000000
0.00000000000000 0.00000000000000 13.20876318295154
PRIMCOORD
 96 1
Ni 6.377041070360446 2.1688130678376205 11.469485738661463 -0.20931247991902016 -0.498354868869516 -0.003281498964749187
Ni 4.88462159183146 0.2337451198405763 6.201342808702532 -2.202590287612897 0.02757868094921702 -0.15926390000206123
Ni 2.6842215895515578 1.6805963842592828 4.660896750079817 -0.10102275697198086 -0.6354113795366025 0.9282204346183821
Ni 3.3619147555915325 4.305281114806343 4.9959240214838125 -0.07974122188538524 -0.5067950292170692 -0.09341563404868428
Ni 4.864866220547416 4.510208120629462 2.6574051846939004 1.035249545685443 -0.3018480253555963 -0.2921626797470323
Ni 7.266565243608782 6.214395432497924 2.6627280343893456 -0.08478829739098946 -1.295208644116737 -0.6483054618904511
Ni 5.1067679893448314 4.808054862743367 11.423493357145817 1.3179433667100917 -1.0549948466331702 -0.4054524270118243
Ni 5.878869990013584 7.906417262186902 12.309774905952692 -0.5706033819222819 0.019239050735270092 -0.48815684529059156
Ni 1.9213158992247152 6.264095217633254 0.4312464886182359 -0.17607377247054837 1.5266454667386224 -0.647983302664342
Ni 2.8632021849399445 1.462032847595509 0.4788164118883141 -0.9685528156888418 0.15774386381310898 -0.756452231501723
Ni 0.676241069539471 -0.02708354007465462 4.573098609587889 0.02649958895242533 -0.06605086888248624 0.5256473860368818
Ni 8.625823231367516 2.4322300514094364 1.3665789366786123 -0.4177217312974806 0.5910966167796271 0.2857781163769272
Ni 6.641658357441068 0.50296507451136 4.7930375316256635 1.0392401549020747 0.7274751275430826 -1.0872948443174564
Ni 0.7114099623475088 7.279064644809514 2.317543307352554 0.2315324676594851 0.8105886083348105 0.738568923463399
Ni 7.463983583873051 3.8230117997415665 3.783214067311973 0.6315971479968348 -0.40832383502234837 -0.39083184888517203
Ni 7.642169993481175 3.9788707591182026 12.66380938953637 0.3999227554428467 -0.13273602891486172 -0.42862089470848763
Ni 7.8688017356853495 -0.28464701345239474 6.759227634886769 -0.25077100417412296 1.0185198916355878 0.4121084988757612
Ni 6.821947554399207 0.8441048689718571 0.39513359771229445 -0.07491988923734193 -0.4559607201740212 -0.639945262851214
Ni 1.844794294328682 6.5851177447893825 9.243123081237686 -0.03609134640591849 -0.24165438658483543 -0.772104079106367
Ni 0.08421979206153844 5.0503627492693255 1.48868048797486 -0.3394817765479702 -1.5794512976857444 0.05242890722367745
Ni 6.376707151339199 1.8826354417905369 6.993881555955442 0.6168475004914861 0.6318812548961569 0.5027769091966114
Ni 3.3145253290896957 4.393282314162543 0.7270039806397434 1.0391005440004168 -0.8693964225016382 -1.6303905077377727
Ni 5.791274908385927 5.306262042443878 4.7799605407665595 -0.013240152839357842 1.4665901533179388 0.4873166087774833
Ni 5.3348888298869985 2.950679943668244 9.273000711284721 0.40471014952916107 -0.3508033722083765 -0.17437555883251904
P 0.33885560785839947 5.450641407360347 12.333854077319964 -0.1416446442584012 -0.11466400190449931 0.2386755064621696
P 4.002371438343261 6.107090103778284 12.653519268778917 0.14427976788840313 0.5476408595888375 1.101743929863251
P 2.3213057624865505 8.47348395897159 1.2737259841920774 0.5461449917696013 -0.5905890810155894 0.36369051258368973
P 6.221064788084453 7.50830456531478 5.739511142705755 -0.0946991287467982 0.248393762191198 -0.1547385013278819
P 4.649686998288171 1.0511770788855284 12.53905273077929 1.1723235398540262 0.09134692444511365 -0.12015716380858661
P 4.016829229479415 6.195587669247148 8.352825479337433 -0.6400547918458848 -0.07154840166194774 -1.2972992080971786
P 4.621258757290117 1.0305282485986875 3.84482032176436 0.7458734275446122 -0.8547429342545216 -0.8455975203098277
P 0.23843081594412865 5.699636699149657 3.795670149288327 -0.2988220940450789 -1.037259119916304 -0.8283312770302121
Ni 1.3447640972689305 1.1056149041872 2.5330311790854907 0.04654853718350048 0.3459558143080881 0.17752798841857168
Ni 1.9673696496415638 6.648210390128239 4.78291978528188 -0.30561494859719623 -1.5145751658376496 -0.5538091931830785
Ni 6.0374725002674925 5.654449333220368 9.014584390677038 0.12201812827672534 0.007489880619141939 1.5908659672805894
Ni 8.701171607269977 2.4605680440233697 10.179015971763452 -0.4161610716785801 -0.14845703919454434 -0.14472585428688622
Ni 2.3147898291530282 5.250650988148635 7.069937479189412 0.12236137054875701 0.019770497758707886 0.15694219384742003
Ni 0.5285721510217981 0.1628938209188532 9.19068425764429 0.28642654859420347 -0.14162330410216253 -0.021522961673440352
Ni 1.3772354658755972 1.0835762487848988 11.377288891927487 0.8708925474311905 0.2551606486013863 0.04046684976579482
Ni 3.953899031231975 6.766300400750317 1.6926770329576941 0.7562432008147105 0.5283357315023224 -0.6033548653216899
Ni 5.743136420295887 7.850138369849166 7.9908789199178845 -0.7205835426295719 0.25908415202550866 -0.2261789166570556
Ni 5.229478717233894 2.7230915685923893 4.963298328140299 0.026116494581393732 0.5061491681029541 -0.2816026448429989
Ni 0.7046801403436201 7.463261596800084 6.773150253105086 0.5526056597932805 -0.5979668615368993 0.3450181329851671
Ni 4.954861909192686 4.456916449806125 7.211258326368027 0.5332305977007784 0.4178366596087901 -0.8626120525899531
Ni 8.134601276597953 7.382353920435779 8.898347179380961 -0.04733452341990558 -0.6451072666681277 0.021180233622040943
Ni 4.562877077602367 0.2273600466640291 10.48645070220635 0.2330944128299663 0.24665852466764615 -0.9054360897340148
Ni 8.029813877795284 7.355171107138593 4.5377916367521465 -0.029959522476567756 -0.18162941218145495 1.1467387494063863
Ni 7.182562047669133 5.956709221317781 6.886137620088974 0.4326719248494097 0.18864158183322996 0.009940656152479655
Ni 2.3868441390350816 5.129167638283616 2.6443417310924135 -1.536735503984773 0.2282640813208585 1.4695206967011725
Ni 2.404180853624689 5.158859356659362 11.425157537349005 -0.735743538199462 -0.26149816078363997 -0.035495107582816286
Ni 0.9766319136017407 3.427101163441992 3.8992536346468256 -0.13963481291722402 -0.049564184081372704 -0.37874149337954127
Ni 3.580045100011526 2.511025915585314 2.510972669038683 0.3440038327880398 0.13817082677718787 0.6847536774151561
Ni 0.9381229280973917 3.3253280606689564 8.020797161737773 0.6302925702527984 -0.1161462428769806 0.8020620589210381
Ni 3.7425282907826296 2.516070800257667 7.042001091884816 -0.8400022856102373 0.13491066796867732 -0.7244599948658426
Ni 4.080797284144245 6.888984054124144 6.16455666485105 0.3087990027521327 -0.6187501168308377 -0.6384028580647586
Ni 0.7923979597736811 7.359133011201496 11.362878029951077 0.2702165144932443 0.3950047493159391 0.1597107577314927
P 0.2385896531001813 5.64534327126258 7.931465701199633 -0.24211127161659596 -0.12140774838623607 0.31852728578349015
P 8.46676045435459 1.6034340158359917 7.99511878900388 -0.3819594860962067 -0.1845589271234241 -0.3505210650812673
P 1.8728705666286651 3.220703108957703 10.390343392988418 -0.04390929978844051 -0.5723167650689628 -0.43091200473550945
P 3.9066359524679077 6.068743565365351 3.895303462873858 0.25740007945486637 1.042641724384456 -0.4234977145493094
P 6.938728963451533 3.9933556247695927 10.342078557160612 0.7278304539999724 0.8282808834082509 -0.03927874299496461
P 6.279933809046455 7.704315030786764 10.074918070615466 0.8084134550603627 0.15313670405840077 1.253477325816222
P 2.4718400672000587 8.432014826468079 5.724030837377512 0.4114335842959237 1.6761193772334555 0.8091163946646581
P 6.783384419864387 4.018877867798958 1.586398730849348 0.6249300203893043 -0.6974369293097795 0.7409091415608015
Ni 5.160989218524612 2.8187368060836224 0.4984499478537959 0.520225186580046 0.4795140820139291 0.4068724472878025
Ni 1.5537522803774866 0.9783285832232119 6.980368665401033 -0.6822219121322379 0.6200079004973387 -0.45364441333601874
Ni 6.780532570926168 0.8320359525633814 9.27796707986289 0.08610907308494203 -0.5431691969707291 -0.12163837633980341
Ni 2.7561495516958416 1.5937413393814168 9.119792346949712 -0.3739309593647754 -0.10342468154525415 1.099246617362694
Ni 6.432218932411908 1.7638505186107287 2.5622229214132073 -0.4899098234259562 1.2914617754797952 0.5643409459523377
Ni 3.9479967869104744 6.708288739437461 10.50873393072962 0.7389993261325982 1.237302258718256 -0.5592524756858369
Ni 8.34107152978954 7.0776483011286935 0.2467517169600672 -0.6061018319392077 0.48689314808681955 -0.14667449337282482
Ni 7.607162645280714 3.8058014328897283 8.091701707206127 -0.20220260834711629 0.04174108849252811 0.5778127551865274
Ni 3.262433961775165 8.304123841330481 12.330909272546103 -0.6142997943689679 -0.40612657026071347 0.9781160338972444
Ni 0.328110635244976 4.825526949909155 10.01933589580314 -0.4794845143275742 -0.11356742640621087 0.0849477057869892
Ni 8.585175359159502 2.247383311053196 5.779851267923914 0.2222153040236173 0.0578855594628745 -0.08852282473275722
Ni 3.649400983208367 2.9694155082117244 11.71398034353467 -0.04969839566639183 -0.9048557917505126 -0.40936153225824334
Ni 1.2863733927427674 3.2455214145909257 12.675908990395447 -0.9075793613292626 0.4510455422605909 -0.10945803222352762
Ni 3.0808903122777465 8.323770914553581 7.924003062316682 0.511281604233513 0.050953865340047734 0.7525454402481492
Ni 5.48847352998379 7.671672190250267 3.511642239751001 -0.26174447246649113 0.16512627232010918 0.4500047597009025
Ni 3.0867474324071873 8.446445543088997 3.423367587790914 -0.42648996440841386 -0.12086010341288218 0.6628946725585357
Ni 3.503577644145965 4.268369525700932 9.26423037331586 -1.125947523692648 0.36030616949248917 0.14162870341880124
Ni 7.592858276397565 6.152719686789764 11.07458407929636 -0.9382567358084615 -0.24634922095734346 0.7216940020849313
Ni 0.4963372331815278 9.23529764385057 0.4103052535668435 -0.6728255585190026 -0.22112592761418043 -0.5514808021602179
Ni 4.6027668633837635 0.2385688959718335 1.6810792131143293 0.464130143358691 -0.21194477533554468 -0.7174082302253838
Ni 6.1761210927922905 5.7081471217722495 0.4374772370579365 -1.166187087938985 0.23048705711410628 -0.7299405583644396
Ni 8.065687610483305 9.011418477362081 11.324903314880721 -0.692137628584053 -0.49583544488177184 -0.10946651686395986
Ni 0.08116127432368425 4.801376482318427 5.8576507899390995 0.1180383176933709 -0.21797529780034072 -0.26994192067561895
Ni 7.678043726169196 8.709167614103082 2.490895111023326 1.5034358613913785 0.33896318504033884 0.3944535047981594
P 8.413324386116658 1.5198820618169473 3.6447730460706524 -0.2975085174399779 0.5642507002313767 -0.31077438131094864
P 1.6942148654231128 3.1888815287167063 1.6423509240365668 -0.17561328789436206 -0.20183956858074267 0.5444730033838171
P 4.705397325805947 1.0762571048327012 8.304520934220612 0.7999103026853579 -0.9680938737745522 0.013425786487602686
P 8.483032238011571 1.8429893266462656 12.359888931171136 -0.2586825457117158 -0.47987120824303164 0.7483787104649692
P 6.32839719131933 7.715081663012375 1.249028611393577 -0.6695060072274662 0.1000994738267631 0.24360096878824497
P 1.7987676184270693 3.157809010063912 6.078078858218808 0.16358386753365375 -0.014282220950627015 -0.884422206486509
P 6.885554615527552 3.8767456876470963 5.97700518042271 -0.11375717381951377 -0.27979644487219557 0.17692429339630175
P 2.3584790719059114 8.452591458047623 10.217863388708254 0.4992447276736369 0.7335599002845818 0.021624006027678888
