# total energy = -381161.16453218437 ev
CRYSTAL
PRIMVEC
9.31902963626826 0.00000000000000 0.00000000000000

0.00000000000000 9.31902963626826 0.00000000000000

0.00000000000000 0.00000000000000 13.63934185463501

PRIMCOORD
 96 1
Ni 5.630893240969511 8.181986945430424 4.213096991504439 0.271639620093016 1.5235470303189567 2.2475982197821547
Ni 3.045775759006463 2.474165114134943 4.756815780428578 1.5664227466365603 -0.3611628610658296 1.0895466164661105
Ni 2.6628102327259335 5.926977453184744 10.753039215839387 -0.30288675103275575 -0.7122279715760249 -0.7338298661165168
Ni 2.0626367617673025 1.612359883830263 6.984215783327348 0.3926046245148787 0.9603383981988491 1.5338206443308229
Ni 0.19057415774271394 0.15334742972634136 10.888423283880405 -0.49818954693624523 0.34649163220690005 -1.8867060958792086
Ni 6.317472755477797 4.79998059418156 9.277425842194981 -0.8714875007027119 0.7601903583879166 -0.10092891170659393
Ni 9.134587482282159 1.058213100651156 12.938347957208741 0.07279255848169398 1.9852274265855745 -0.6882236382416276
Ni 7.140380355737582 1.0565263562721128 0.37090111040699814 -0.4384687340368449 -0.13376318462779543 1.2831278016928032
Ni 7.306622526885371 5.3813669012277545 12.195794622599438 0.5527329293997643 0.13768437405907255 0.7361088919586806
Ni 2.9136132795391196 3.2842497295021134 11.568276322737898 3.6612570723187012 0.19422781767175581 -0.36962513290056986
Ni 5.77617691428046 3.0784669152588564 1.1604950432291967 2.0737991022783966 -0.5360732093558961 0.8772346875991344
Ni 9.252538441428834 8.633950567746508 0.9326932255671382 -0.46183363401503047 -1.8185366379918229 -0.5460277494654467
Ni 3.8412201786859166 6.907814650083442 5.877056342885871 0.04096153001402623 1.8157719307624922 0.3761986723530295
Ni 7.296231808749277 7.770915225518989 1.3431694594795636 -0.8482876655474809 -0.8315531264016195 -0.19253911711542324
Ni 0.8934824761237032 7.3525746624271475 6.513767865564679 -0.5331889458295656 -1.8831386902429248 -3.2530188550316232
Ni 4.513802510557061 1.7958329409275027 8.278575892753452 -3.924099662945377 -0.8105711248333136 0.1549138505634816
Ni 0.7748568192254097 0.05386771938464468 3.513617144156875 0.47792539737057044 0.14658116232807014 1.2707402266617276
Ni 9.1103393669547 5.492198121669521 5.195497921589897 0.3472807037670987 0.8271645104156206 1.2138735953816706
Ni 5.21827456212481 1.1827526138087907 3.77648833445548 -1.609098431128216 -2.4233657738661942 -2.357484854902669
Ni 8.332433361205407 2.828539857239206 1.261309238626578 0.535543047884039 -1.1423254508300391 -0.3405876080176392
Ni 4.819252347639356 6.975927438295741 0.8828783522070561 0.40631374657085506 -0.8607346330615822 0.20580935186176813
Ni 2.5078068114186203 6.783797002590042 8.382439274674717 -0.04694165885686109 -0.553994055500375 -0.0322190079347058
Ni 7.292671939396821 0.9972573272626428 4.999446038178666 -1.619824302186152 -2.360643712246625 1.7839619853407471
Ni 4.76482921408349 1.6204488016258953 11.046339833877713 -0.7703948097247442 -0.09994263653392466 -0.3738270867970594
P 3.214002883484286 3.624832308623041 6.715712171466899 1.0447266319379427 -1.5701583024195926 1.287230253896951
Ni 1.907577426281678 8.067567898547049 1.9720716352542942 0.9090580027573183 -0.6042249266314691 -1.3614374333379842
P 7.0072207400903626 8.301242568737687 9.681259471724081 -0.3202087872509711 1.0589538312809181 1.7034232072547308
Ni 0.43299660113008004 6.958193324741492 11.609262347342703 -0.6206841006287568 -0.6111147117727669 -0.5706995411805139
P 6.279078353037701 8.655878244674067 6.32087979274287 -0.1343753642904976 -0.45843643540802337 -0.7868447277506514
P 4.64117500874911 5.042731999317988 10.646843280779587 0.8799862822023427 0.03616050908095708 -0.043461670728060633
P 0.6997771243955834 5.6014917022077375 9.653230626039838 0.3777120236737624 0.16794163028171724 0.1919858157151145
Ni 7.2318839085432405 1.4493607350245024 11.219300093549544 0.18974407086878936 -0.3835630831379007 0.21435749854209535
Ni 9.509603876212834 4.253848176560337 2.7974832587994327 -0.3395442543547894 -1.0749512351504389 -0.12358752964637425
Ni 4.399923967397356 4.806783485876043 5.234029313766855 0.12600308106640234 -1.5175442757683026 -0.38504918076512396
Ni 1.525357422378626 8.885974407452812 12.715849599359464 0.7369640408701242 -0.3943419189209596 0.7139171863529898
Ni 2.6121985823249223 9.173047117930285 5.609657036047061 -0.031019074089333673 0.28552666248775344 0.5086379959630789
Ni 6.053315539078042 2.5837103084755593 9.44199804321722 2.611472052021244 0.1297617767778862 1.9304598439263916
Ni 2.494051923554158 1.6064795760779087 9.820721547169901 -0.7527727257676068 -0.3734740743330149 -0.15764384790013494
Ni 8.006425744564167 8.067717003022544 7.550699098047765 2.349502608028141 1.8838398300750074 -0.6569819066185266
Ni 5.742367474461851 2.89625192717361 4.813514621041693 0.2433153192270261 2.9232692181697524 3.1593584519619844
Ni 2.179739689209598 5.02925668234508 3.7310422222274164 -1.5512912903117606 -1.411859080323646 0.5297012443912814
Ni 8.696332152681945 2.481760123355496 4.4725723273736335 1.220806317945762 1.601804468569964 -1.1086409140934004
Ni 6.325058445668632 0.33231473595470074 8.305309393306828 -0.20995911236408357 0.7888944111908285 -0.44362996652281017
Ni 8.063271825846835 7.907588115370072 4.709787296954319 0.5144618017337076 0.8089487587385423 0.738808807388347
Ni 2.315601823475174 1.6819637167975166 13.0267995277816 0.35777466131988706 0.41635673262915385 0.6528195477107208
Ni 1.2800619221290557 3.8514524733167974 8.478801769575586 -0.14644103720578006 -1.1695377495787729 0.16975220112789477
Ni 6.375045721078505 6.594592742215943 3.0602864201810926 -1.1031726918899776 -0.5486482178074292 -1.809350857727497
Ni 2.206326880996393 8.222990676191694 10.453846175310073 -1.2345552921007383 -0.6058174679295696 0.34363873613913715
Ni 3.2609614742356565 1.1156090046872134 2.400210226192136 -1.0094706369491258 1.221761996990812 -1.0533506261615277
Ni 0.8046963523839512 3.1493847314164136 10.967067507577545 -1.3650986842396553 -0.7139732364019059 -1.3783347233139551
Ni 6.199521796331121 7.322269177782682 11.566638969216363 -1.011310261261026 -0.9118196246628554 -1.483452476290916
Ni 7.456873243036265 8.656092582357592 12.638623731985476 1.3083942895690757 0.0014241340410362572 0.04029767117778221
Ni 1.8323076232455948 3.460863980726559 1.1728893527547617 -0.7564301200145359 -1.1277364972722708 0.5572112768860921
Ni 2.514917231093813 6.852729865417565 12.889327997083646 0.8556867862250295 1.3736447740374536 0.8103623512566172
Ni 0.9470557141692443 8.601371239850735 8.101264578106065 0.6659938803091497 3.6229021266895867 3.3302864185655356
Ni 7.9972744573806285 6.566318806050105 9.57333112903962 1.443930506936894 -1.5732125158648842 1.1419426135693236
P 7.951937377800271 3.9631410444926614 6.085615296082261 -1.650879885940376 -1.1161166536451552 -0.41081291999278924
Ni 4.832494688869302 5.366847852926379 7.512494803813926 -3.3294214994620788 -0.2781367977815855 -0.49287044871617697
P 6.757330958189586 2.5131932105958956 3.03115233757224 1.334756067392056 -0.8059662790714507 -1.4266331533090268
Ni 8.590188404188572 6.1629911998347175 3.2491235107842837 0.1244100255476696 2.540138337473264 -2.3627869838418727
P 1.4738697831840786 2.709815418625897 3.511230540645975 -0.897900443478602 -0.6987949859995707 -1.6832570167195011
P 8.594568348156251 6.739867096497174 13.45012297606391 -0.5400532770495666 -0.4500785503616313 0.3919392230167379
P 0.4093402441897437 1.5339495677790556 8.819020906537492 0.15249315693713092 -0.06253128576500198 -0.20365605296419118
Ni 7.800111745626956 2.283162281025179 7.618172600821377 1.7940206551283298 -0.40622992860779716 0.14024339303550043
Ni 7.842271036073314 3.863595169039964 10.508690529009211 1.0158577714223924 -0.9430536429764727 0.5691028861173554
Ni 4.07011418663098 8.699854745915527 7.704100578146474 -0.20545916761120098 -0.2845797251934518 -0.3683334106723399
Ni 6.218607169194547 3.2514653829525355 12.662478584258814 0.3898869684733995 0.3127739282394807 -2.0931122007847116
Ni 0.9671848183611399 5.874865438999058 1.1040273145530988 -2.8859702246089785 0.8065982562284947 0.16950948898946935
Ni 8.655272507742367 4.991831458995704 7.813365269692564 -0.4281084738484433 0.7630738505832987 0.11626862738745783
Ni 4.331401141877445 3.6471793418879326 2.797292218690204 -1.3643713191553275 0.5181590480796366 1.1985037977938198
Ni 3.4289742610299543 3.875178722980022 9.29150130468176 1.2264362625380296 -0.08239485745814842 -0.6678651291899337
Ni 0.8204483083170812 1.1768816250861545 1.3630926131146808 1.5372129578418234 1.8629295622849014 1.461796074363405
Ni 6.867975798036983 4.553203368206753 3.752592478451379 1.1822433700708994 -0.5510722538678896 -0.21259629287661452
Ni 6.516312892580794 6.192709585606919 5.422484324151589 -0.32068932643181547 -0.1123932035924516 0.19242753123822343
Ni 7.899247583772041 0.37664629222843493 2.8467762664952803 -0.9556607902175218 0.30592168120433766 -0.9489754077775462
Ni 6.59613970114921 6.528241250620436 7.654016384827528 0.5706131521142948 -0.18139415624219726 -0.36924615229459634
Ni 0.17234799941933007 0.5152351745896352 5.971808509451388 -0.15826939729927583 -0.26333829931617225 0.43648229973443536
Ni 5.316944448783971 8.91193722424847 1.9135723580995698 0.19506085509601248 1.6311065599681909 0.17642627071396066
Ni 3.0456452925904043 5.403946910235609 0.9881759328019937 2.736518682711648 -0.0792334290110313 1.1971262007200028
Ni 5.8083182477794635 3.3919870320773464 7.334297249440311 0.2366417638615924 0.2923966501347093 -2.3940752524321933
Ni 2.07233787170423 5.307439038471132 6.370827928227926 1.1712269643557378 2.6878330445804868 0.20681696719067608
Ni 5.027215814836735 1.2263749919209492 6.155230311885176 -0.5223586879832811 -1.5370463503569722 0.02408043798797143
Ni 4.310880638437374 8.794107412488135 11.98262554540132 -0.5197199648088534 -0.7175347285009192 -0.03492123735721728
Ni 0.8206393484263098 3.6453994072117046 6.1031555738183645 -0.9600992856048498 -3.244525729958947 -0.5847187382777413
Ni 5.010572027759547 1.3166484328037693 13.388486913505949 -1.6979056198706115 -0.6289478832994458 0.4068685906330606
Ni 7.6179806288091765 4.894838997685867 1.380888232265071 -0.5774962523873731 2.3937294390570005 -0.8809998110685214
Ni 3.8152759999496966 6.3193086043323365 3.559268275038744 2.43932563962956 0.6754524546188883 -1.7026086817732355
Ni 3.495018224644752 8.526586026360013 3.551411401083102 0.39797874434259845 0.998483541810003 0.38799335099511245
P 1.9172598981591684 7.401890967697291 4.550371315075309 -0.5425819570086914 -0.9498853211863253 -0.4595047287715377
Ni 4.561637090101968 5.561652850161278 12.714840348440953 0.339089426205558 -1.215705763494403 -0.6499959622189967
P 3.878719954273041 3.46457295455451 0.4598764104500353 -0.6390741731001705 -0.2771278969010969 -1.0362430199469639
Ni 1.6742848363094969 4.729426220183023 12.616500355433827 -0.974204357547664 1.2130603554517558 1.0646971615225986
P 3.843717678650467 -0.17413818502824818 9.805459772199962 1.993584540301018 1.3623668871307892 -0.6350514250940225
P 3.6704955542435447 8.701094176868084 0.45451051313814017 -1.1721890711586909 0.895938948876857 0.15066484547914052
P 0.19451610731362678 3.275163675526605 12.990641692473938 -0.6378919798666111 -1.0421532147838115 1.2347782067448219
Ni 5.131700776040222 6.879801646749722 9.291338221661686 -1.5808224670016582 1.228308282749762 1.5328968469649729
