# total energy = -381163.30191141966 ev
CRYSTAL
PRIMVEC
9.32244731861691 0.00000000000000 0.00000000000000

0.00000000000000 9.32244731861691 0.00000000000000

0.00000000000000 0.00000000000000 13.64434397821179

PRIMCOORD
 96 1
Ni 2.2808205960196037 4.014506769106103 3.260111040024416 -0.28239325906509427 -0.5435700319535735 -0.07970728332365627
Ni 1.102948044158095 9.379593745879792 11.822455253682302 -1.0349893500455207 -1.8759164614628725 0.6257142068534965
Ni 4.362364561870217 6.60468345118146 9.142569594976461 -0.432666525532771 0.25353853961693107 -1.4880056428792374
Ni 5.557054808381093 7.4843402413253495 5.106940957374201 0.1718419937773879 -0.32748603763867473 0.2829023374910289
Ni 4.882007088173067 8.489355978226463 13.472015663733387 1.0658613570340287 0.6963681217256329 -0.2634619693782302
Ni 7.123953079598514 2.650175951899816 10.394261012310002 -1.71022788888139 0.078237126536033 1.3331645545352202
Ni 4.715153929173975 4.158967410063189 8.345112550287851 -1.6161903049779907 0.8808545437399088 -0.5484741541234103
Ni 3.5616968663849105 0.2188006312245162 7.4775646867404495 0.015733608685172904 -0.4714744995389042 -0.6544326578341116
Ni 4.781902650731327 6.937308365310838 11.377308402514203 -0.3687445300678294 0.03684622229407202 1.078429937727659
Ni 9.04382716706259 6.065855328654445 8.383370941125733 0.03957596252040926 0.7107868682541242 0.6153925132125144
Ni 3.2982165427291203 8.428788039126166 4.521476360760199 0.3472884170765825 0.08772526853212632 -0.5158681951629309
Ni 1.4646030586966343 2.1330411638789397 7.991982913663307 1.7131064959807658 2.595528898428427 -0.7195227054652253
Ni 8.443722599452267 2.073125796078785 2.0301008380157275 -0.39347391449370944 -1.4766796763434566 -0.2780033575275148
Ni 4.547014272468888 2.464146519123702 10.10486428559144 -0.46865914157729616 0.23600952959423224 -1.0782309343429752
Ni 2.2879802354268732 6.010507959955282 1.9488212180936477 1.170683690257758 -0.1628935263348485 -1.240487084204141
Ni 2.2897142105958213 5.742385057621341 8.523635548622908 -0.013490064066634833 0.7894626249894726 -1.742645128869831
Ni 7.286890810796756 4.131932313343032 12.301344702291301 -1.674219589107581 1.1593744358925258 -0.9940787278740879
Ni 8.899301268975488 2.259117939066319 9.17777208764025 0.6360477275690207 -0.8927024442174303 0.3139934024688786
Ni 0.8073062100971772 0.21283799403064987 7.534229317221183 1.6433905195418663 -0.7519900819653114 -0.7820681322976145
Ni 2.5566624845895074 8.656423553509887 0.2943572008443532 0.2627027226147024 -0.2153473732591904 -1.8315783016671296
Ni 2.0051744788397428 1.534521412283247 10.493059374906743 0.8161571035615234 1.7260471153018337 -1.9570941586844683
Ni 6.915559096121829 4.167506771647901 2.070270330518308 -0.5083957980452858 -0.5230796253097055 -0.9349240718908028
Ni 0.21268697038690282 4.712646190892001 11.462749562841756 -2.2597644228310436 0.288962941862812 -1.7387391089472055
Ni 6.381606613451587 8.692464134171999 11.16223302116878 -0.44715032097124285 -0.5103920025397081 -0.6874571923892483
P 8.442342877274823 0.27374247347287634 10.510852197527464 0.5454119702583187 1.0545621299711256 1.9598246702417539
Ni 7.661848957411041 6.775265589038505 6.506727837806616 -1.7455206506454133 -0.006860474565259153 0.33468769759343653
P 8.498426719298433 7.457827201645306 4.570841515126491 -1.3062229929493698 0.18908663979044857 -1.546411593621956
Ni 2.430567064507838 8.542223575985087 9.339402811748778 -0.2717072401061578 -0.4949707828886314 -0.34685055820821553
P 3.824617843212008 7.918197609000997 2.1110942588104593 -1.3138727961851437 -0.6840944465646024 -0.7427968455018176
P 5.110006177995437 0.296419326152801 5.059472921001891 -0.26133463862258216 -0.03600598578096379 -0.25506371801220584
P 2.1633297946526606 3.4925988881470476 11.573964492790767 0.7553055194917896 -0.42373451315046373 -1.12076520816076
Ni 6.6231791863169045 7.269439189741537 8.950225136504406 0.16303442278808697 -1.6702983996763041 0.10059261141309772
Ni 4.257514998831733 0.8790209992486083 1.545358757089172 -0.23547345458510416 0.12467279229075302 -0.5710641236087842
Ni 4.541495383759119 3.2945434985540367 2.2909811311628103 -0.7209879771568422 -0.5570402985258665 -1.036793236023479
Ni 5.238096601766112 2.494947884490391 -0.1861552858125696 1.201451053347602 0.47689515633384316 2.85980153663341
Ni 8.122433781051065 8.6647764661517 1.4353715934291436 -0.6636495484466893 -0.16516381042626394 0.529097035148379
Ni 0.41656982169017936 7.604982029827263 13.436430950736659 -0.10285209687123577 -1.588456072287516 1.1144852886893193
Ni 4.561864930770685 5.5974582943070095 2.624570918571684 0.31545507461606964 1.0313414688802882 0.31095615830445156
Ni 0.4809580996304481 6.914785333008804 2.657453986385825 -2.5264083894816816 0.8778054725009398 0.9660333917010974
Ni -0.07858729718663798 4.237182741608746 2.340114156595195 0.9808192917610206 1.3478946616565433 -0.13411336887836256
Ni 2.7632013010843615 5.352585575152403 10.683057373432433 1.0548945736098803 0.4013474037045152 0.687482646310545
Ni 4.317458333973322 4.006890329788734 12.129084523948174 -1.0220780413004913 0.6610686750933905 -0.408940899781057
Ni 0.3935331225504623 0.7748566360752731 0.42957277096786034 -0.3494437728566885 -1.057040159197973 -0.9872732749164804
Ni 4.579493678321656 3.3014793992298284 5.843476742215723 0.1701581783170618 -1.8676274819812029 0.6309471731176618
Ni 8.5257135220915 8.49074502285105 8.768824298735725 2.1009851757748845 -1.9110696123252378 -1.2791809012299131
Ni 7.7131410616021805 3.111385379498546 4.020619497699002 0.44269768451652786 -0.6847428787818788 0.18446276786519197
Ni 0.883032448255051 8.777661978629073 4.764045503225306 0.2704594837419858 1.1668404052522678 -1.134209506591124
Ni 1.5896543646980772 5.030187385540961 13.052943697229521 1.3802234556962358 0.368343695084985 2.8509841954520962
Ni 2.219516183594862 4.009761643509358 6.255713490472961 -0.12377881972157394 0.12183403729037728 0.09792843431737328
Ni 7.010191257089523 0.6752015405859171 8.888498417224001 0.43022783418429134 1.0090518042441525 1.273044706425188
Ni 2.3050589585962964 7.108421882655141 12.140205271147305 0.16366228618007297 0.8933002257024293 -0.9589371469759483
Ni 8.158586231078916 0.679225108773648 4.031835333859009 0.03431599967305058 -0.5802177650835942 0.08747072931915903
Ni 5.623253505556898 5.099648939217474 0.22206441996993928 1.0469256964717906 -2.903735004791567 1.0553792265557824
Ni 7.026878437478861 4.277520970404649 5.927444023649672 -0.5474387708803604 -0.22763158994318217 2.0636231901866586
Ni 6.733631540089464 6.846917917794065 13.251959298878456 1.1470413682484697 0.6259353217253671 -0.4178510577864933
Ni 5.7923813416593415 2.168056275355115 7.843136993569268 -1.0952768340816683 -0.7121009590798575 -1.1535002364999358
P 5.747335277055273 3.909386855100417 4.007671550859476 -1.5283215688894647 -0.12403104494169606 -0.023124758942921465
Ni 8.804836912056404 3.360686261046972 0.02817709649540484 -0.0716702719517927 1.3462560976118558 3.273673040946865
P 7.684586405997408 5.4949859552904705 10.031853676286872 0.4533158263520064 -0.19653461142806153 0.7283040512022811
Ni 3.293751090546722 2.0208734798317236 4.029079618482982 1.42803954673825 -0.008339373103630799 -1.79394557891602
P 7.419446686749828 2.1536530945162733 6.394285141568626 0.16898292706203802 0.5966041768614176 -0.004498144980669673
P 0.930142502656996 1.8837589272248039 3.799854626861059 0.8468776725738317 -0.7733559492355971 -1.7458530942841672
P 3.5814045196491904 2.2684030964226216 7.976442394272788 0.058090219274512855 0.9165062315052473 0.17935861386940724
Ni 2.2469894353308284 1.1709366511857169 5.635960001015372 -1.1488552815287567 -0.297574594791223 2.1056944083250957
Ni 3.918830494058182 6.324254918616275 0.09173847337392253 -1.9345962346922685 1.1720929119004588 -0.0022360884193703425
Ni 6.794180834295469 6.514069264933211 2.1749353091033234 1.001553181874262 0.8325859385415081 -2.3475457414120857
Ni 5.854170521335616 1.6387743387044587 3.236860856845081 0.7148417550497882 -0.7108130935063695 0.7880572600015137
Ni 5.593580156294739 4.969116034294841 10.304781367879283 0.9141181908890451 -0.4258626152370601 0.997140140408231
Ni 5.727292015693777 8.50770255420759 2.6928886079835204 0.6419977745048686 0.7661182938365773 0.48875077012084855
Ni 8.252370049356426 0.24942207336130903 6.542680787465566 -1.4565263413240335 -0.6317041058883442 -1.2407115415101213
Ni -0.12056534443532563 7.105522601593083 10.654321862353049 -0.047596775942356735 0.16869650616987078 0.8957283755279477
Ni 0.10967113270181693 2.673621906469193 5.565172795354855 0.47017583533213864 -1.5948810019772532 1.5438978260611669
Ni -0.013336692885467714 4.748854575602722 4.773310151197889 0.8707634780524939 1.9302076187062693 -0.13296742819937746
Ni 2.991955509125467 7.051116800055554 6.665479790236806 1.567563802219539 -0.05278500501151555 -0.7808028924319457
Ni 0.6128688622410947 6.927585052938727 6.013580638534235 0.7473723806876419 -1.9444962674147996 0.39100539834855885
Ni 7.47093456233101 1.7431950691742781 12.567464210733805 -0.41639427073530866 -0.5604626939438541 0.557895190326994
Ni 2.035118179069103 9.270138893951737 2.2831353596456783 -1.0952356964310879 0.7106912232165244 2.5224334639943335
Ni 1.2237389918143267 4.113744218963369 9.432021324133178 -0.8916644898712193 -1.8914011873620329 0.4042370665474845
Ni 3.4857655343898495 9.148480958711032 11.177310214936195 0.492926498765093 -0.4974835220081561 1.8410345619840227
Ni 4.2596591616750565 5.323788535921864 5.100432957022359 0.3969713861240066 1.3179613644322203 0.2752815877209775
Ni 7.118946925481712 3.9025814686846534 8.426692353007997 0.11511214518551144 1.5730456512697166 0.4568634344939487
Ni 7.9718016800840665 8.758644186453514 12.605927695408873 1.5297711568517975 0.5403751791653597 0.8623289741318956
Ni 5.1017371673779275 8.984620305245446 9.322866655003189 -3.082145138704776 0.24415606996076658 0.5225633477949193
Ni 5.159331245839007 1.1866170072834081 11.804035962613444 0.45867837621550045 -0.8225347249530931 -0.38896162844565274
Ni 0.5329512518468821 2.332588145015132 12.22672410636481 0.5673712481382294 -1.4310456805544256 -1.9234407322960811
Ni 2.818986824799333 1.911586431952276 13.100316644640952 0.786238204514904 -0.5168313304071486 -0.9130329282446663
Ni 2.2183508777017518 6.053512408634622 4.433333555250058 -0.5961514055947154 0.7685078771146764 -0.07737169321194418
Ni 6.9966643862822995 5.6712547859058935 4.1597644792940764 0.7151659711584264 1.0972023332391554 0.4299768945157498
P 3.2615327132140104 4.180791258829357 0.7950080378236493 -0.30264635288717556 0.182197368869783 0.010540751630323782
Ni 1.5770970283939214 2.4344731698615436 1.3193798415630966 0.6777592483751941 1.4668891726155961 1.7515799694656158
P 6.6037512064669714 0.8955916490486355 1.0093292331950499 -0.39472809861578473 0.21087802463392716 0.368155747443895
Ni 5.9799489782143604 8.924965965965347 7.17963978537375 -0.6319601877632084 -0.15628322010718246 -2.0877239398896044
P 5.572306331910119 5.733193124736487 7.1077618533972835 0.33037775736417296 1.1592880468263067 -0.5257702847679913
P 1.3018983886770146 7.557745190144147 7.837515557940904 -0.015306291339767188 -0.6888155061893557 1.856582794131267
P 8.577723454712796 5.49340113927584 0.47336776316508544 -0.35382673241573254 0.9485576035138373 0.3146986560660193
Ni 9.130721696900032 4.071653370104228 7.4629097998286955 1.4245140500834952 -1.1909810070542133 -1.305663520901474
