# total energy = -340868.73821733537 ev
CRYSTAL
PRIMVEC
9.27494548980117 0.00000000000000 0.00000000000000

0.00000000000000 9.27494548980117 0.00000000000000

0.00000000000000 0.00000000000000 13.57482025018126

PRIMCOORD
 96 1
Ni 5.917628586417407 4.043004416127422 9.603818427173179 -0.7647831199649217 -0.3254746636356008 -0.7288527246168995
Ni 0.05585001214058279 1.9188378357400577 1.5862855904399076 -0.14718922822571426 -0.2610011665425634 0.32436677528340263
Ni 4.271974996988749 0.34328150231559856 1.542275973791996 0.6392119842296152 -0.29506854053991766 -1.645556931065566
Ni 8.037009294899539 4.626519065689081 4.995954986968946 -0.774291316565673 -0.42543478367102217 -0.08935663348796223
Ni 8.959003807464127 1.0557856021633487 4.017766361783769 1.7493595647755291 -1.342563993472249 -1.276329804934363
Ni 6.925267946216306 2.005873924807287 3.433642348299293 -0.16575130749861777 1.6613334771735324 -0.35347217728979125
Ni 3.4417838955055178 7.217781179059687 0.42301357176001864 -0.25867971749823837 0.4477344756094869 0.11515122595356297
Ni 1.7491156070698495 7.415625042645906 4.154872316923092 -1.3538681056311586 -1.5415894896429645 0.2597984044837139
Ni 4.48126414338709 7.027190322895738 11.894542624808143 -1.0348088586035984 0.6827363898748113 -0.6804231683606025
Ni 9.150874606114359 7.2505124619154255 11.073537429400378 -0.6053821801643638 0.21212526677746693 0.180137915237593
Ni 3.953983488711899 5.949126301514626 5.920156009080538 0.8083131820370725 1.4893580431420737 -0.2100673558071737
Ni 3.109425496567421 8.420157295684625 5.627727178241687 -0.27830031994264326 -0.054329209570183855 0.03122013435654623
Ni 0.3103109258645982 5.57968667025654 3.3505917033360904 0.3281676370867316 0.04577489224226955 -0.43403769484868476
Ni 0.8217759433831996 2.780869825305961 5.03661171079953 0.56304973794474 0.35518761731900117 1.4093005755678503
Ni 5.35014104277094 3.320022410288703 0.5705538406462127 0.16435108471698148 -0.3058736015752216 -1.9801466696285575
Ni 0.27609286923674975 4.892292630503814 0.8872561314912274 1.6996555126821824 -0.6848984305231365 1.3613484731686039
Ni 7.088599737400654 2.9232773393232505 11.48788170955222 -0.37945240340363684 0.7178538024032347 -1.1184131629888159
Ni 7.104663943098057 1.9826958358709053 9.140699990842965 0.42214582850710525 -1.0441797582955372 -0.10920297878992805
Ni 1.1262009888000075 8.671461945437033 9.603574496105141 0.4394256986334754 2.786121947561073 -0.16706771231719614
Ni 8.56482789641679 3.5884764343681885 7.19199404793931 -1.4533317456461357 0.06499440259351387 0.4527877217626783
Ni 6.615271441005947 8.437584918378288 9.38616049740257 1.4491809567025558 0.27415133077127624 0.6254059315844583
Ni 5.582719577452297 4.7885709143871455 7.100771248449559 0.8257177506667651 -0.7941530884866065 -0.3504750423346803
Ni 4.416385899245437 4.865358188618559 2.2011838732684876 0.809819848489586 1.2034621702403596 -0.4862532005099755
Ni 4.177398377187115 8.052183105823877 9.671910439948867 -2.4321969990045793 -2.197219510219287 1.2513291691249673
P 6.198455387864293 5.203689652492642 0.9348978168176054 0.8330489942208555 -0.7716698197824259 -0.29792580748305464
P 9.292753448235137 3.4094699851996535 3.2113682781270687 -0.08380073666673955 -0.6452509913348436 -0.27285472344703976
P 0.29340919258377846 5.9984690118553825 5.566056210272183 -0.4106907925926282 0.05739936385507533 -0.03788674774344443
P 5.114678000022672 8.751254302027546 13.228648938130018 -0.23334483827787553 0.018223207876246036 -0.6337653592927472
P 4.922167230129299 0.3961681693520701 8.782814159259969 1.8632779467632556 3.4435915924492955 -0.08983331601406463
P 2.304072699274518 1.4938227307297505 1.9217733560075105 0.4767753429265272 -0.1799186001379353 0.919168608828759
P 6.5505137711564805 3.068402412387502 6.041595653686671 0.41077358211442155 0.5179633871290629 -0.5874199392589884
P 2.5907705412563096 6.217635975267428 2.113789771302921 -1.4219979685298607 0.12334713150079403 0.7053762387615142
Ni 2.5655055895705536 8.58608607162375 2.455373031087807 -0.9395412589478399 -0.6350480826599127 -0.20014084072208113
Ni 0.8507824081049443 7.6702315730151 6.838560190221645 1.485209825301655 -0.49391071705523315 1.7908767101827092
Ni 2.174084337352393 8.123173539084808 11.49496776795454 1.2772340619161875 0.8904434729799247 1.7912114678143085
Ni 4.188259338429413 7.063715058482561 3.3995151861378616 0.8305509103893502 -0.536166797510967 0.35087716286910536
Ni 5.427002516566778 7.0662471186184685 7.820454156155155 -1.1349301868072326 -0.15844320387297875 0.16901995094756053
Ni 2.8661343997726108 0.22302905074022022 8.073801148918283 -0.3495918683987786 -1.1571051802423749 2.47862597989108
Ni 0.8465558154165455 2.1400731120103713 8.08301858980863 0.38728912583923625 -0.7312423078949987 -0.38076777978095067
Ni 6.178254556450351 6.872252357436651 5.446299040789324 -0.7221547437714337 0.3195238453688045 1.254175380324511
Ni 7.2879739670030785 5.841889381033456 10.39890942470649 0.17262438046936723 0.27734027002221917 -0.6160707702264616
Ni 2.1436439660481894 4.849015734554572 5.400226676250474 -1.2104172614019542 -0.540351782126592 0.15210646302167352
Ni 0.22166748873307301 1.8034575130635513 10.421131266756381 0.04653568166769405 0.44138050836700116 -1.9377198679229146
Ni 2.348314189561249 4.026133290166927 2.520273535098786 -1.583115633911209 -0.21846663561446245 0.8643817428958661
Ni 2.373653340811427 0.954735070365878 4.199520049825035 -0.09268878318498876 0.8747376322088934 -0.6309260900717393
Ni 5.914438005147252 5.374209526480389 12.398073853900902 -0.05788144569781644 -1.5746209661766366 -0.22743258655849863
Ni 1.895121799961615 3.035615479858447 0.4903988336845862 0.028451056251841328 -0.45531383061864167 -0.3282218873634347
Ni 4.963143939581453 -0.0201257043549639 6.658150441790976 0.2566228349692096 0.4887813662484679 1.0012901580208626
Ni 4.6963315808648085 1.5694413618215153 5.082182300783973 0.5885805352259927 1.2195963567980608 -1.8375430038909968
Ni 5.365305578749727 0.4628160731051922 11.129180610255135 -0.27415621586728267 0.5385167858003822 0.37000719883033695
Ni 7.05876223755738 6.5894036178592605 3.5143584894668622 0.8435398664498505 -0.19405992463532384 -2.4119346492111173
Ni 7.398262344571112 1.0958904667335427 5.568811796595912 -1.3051310454367715 -0.12302188695089135 1.8790076987936866
Ni 0.11994637837213679 1.3530847069119605 12.578523484597447 -0.5724880005395043 -0.7113365701100072 1.7236709017601735
Ni 5.740950148582619 4.302600867204008 4.142261173454986 -0.43375641616284005 -0.2461101083633439 0.7407240221331889
Ni 1.6489925698276562 4.048439534221347 9.590447665664298 -2.1086257230392778 -0.7126601740174371 -0.2544350832892715
Ni 6.826063128583837 7.7186282389094725 12.115337341164699 0.6954394392637765 1.0120491963095797 -0.1270623755688521
P 0.9265030635977898 0.1637797710545458 5.840729085344804 0.3714418743943345 3.0956493438387973 -1.2731730044729364
P 8.138198950880302 3.9478712995926206 9.468206665762406 0.3052395675356485 -0.6802349636091962 -0.3466340713220353
P 4.583223619848733 2.8502556929862624 11.847601197870999 1.000196924956684 1.2015842364913565 0.16896004424390257
P 9.296277927545193 8.355288326488525 13.028175627479587 0.209264143179588 -0.0362317286385247 -0.27614316439032444
P 0.6223015443688037 4.506028248012996 12.169759011690157 -0.5401152406357537 -0.2983076163025056 0.6259571761022381
P 3.1194146129277582 7.43299701566625 7.579731291783908 -0.01076906559104597 -1.7132957291734365 0.12674381588716885
P 6.1412382487492305 1.5639413191087204 1.3998081726286138 1.393168445892678 -1.196516335050146 1.169487355956812
P 2.680208841221707 3.4329912471214885 7.7929919698679475 -0.46571420001635927 -0.885817801282455 -0.49223101535996516
Ni 7.580329525772062 4.241256377317962 2.2286599719740248 -0.5830863448806409 0.10110374672156135 0.9712943829897207
Ni 0.8730061051439457 5.439607167572997 7.659035786238346 0.26225612199558707 -0.6921995921702402 0.06978513911393787
Ni 4.105424799697589 2.3806930244859825 9.685009445553048 -0.3524925869853413 -0.628124358956886 -0.018284400131484642
Ni 3.5030912856093526 5.29754282654116 8.263672269307337 0.3353746963581321 1.0910602248971597 -0.4211446409361005
Ni 1.8423566347118847 9.32261877291507 0.35915835411283675 -0.8591976275917653 -0.7063064638852674 -0.5582206919872128
Ni 7.787244286108893 8.835925279978818 0.9693996867793687 0.37623235380444237 0.8670996560476616 -1.2004210694211908
Ni 8.577905569646203 8.029292540199632 5.126938550548884 -0.7607714277023672 -0.12730868725170333 -0.14802072298807412
Ni 4.805024667797766 2.522302893185733 7.2712030104545535 0.5981193279543635 -0.2349234956189051 1.4685251655571225
Ni 1.8887777372035175 6.61003109676863 9.722883685717802 0.7912217737724244 -1.8983961306226276 -0.42628761858962066
Ni 0.20347190054764136 7.175849150215596 1.3838710336852826 0.8591539188380235 0.5498350390266789 0.6106346868125547
Ni 8.12963817613509 5.700511385972525 12.801544187886671 0.3062533535121435 0.4985122203829866 -0.4787918591359238
Ni 1.2471648286992836 6.405963744716501 12.860975256505181 1.2771247900318328 0.2845406444254003 0.17173169345176875
Ni 7.48592912993593 6.158563847041813 7.36928092220236 2.4671976834494798 0.2219779912018306 0.20520257151570465
Ni 3.4750624001488704 4.710763396144925 10.591427614556306 0.8818963547408618 -0.28795789763706536 2.0660755083818936
Ni 2.799966938199123 1.6296357584590173 6.5466331339372 -1.7610310875761863 2.017175697357397 -2.814513097109256
Ni 8.127671887677904 3.377870245701353 0.004552143277301387 -0.42391114793764406 -0.8387077351685298 -0.6224494200592958
Ni 6.782888257035675 1.2395408234549037 12.974473692729028 0.017251845101912223 -0.8446323281830809 0.3797781621741717
Ni 8.702458813474403 0.003476249593179625 8.298057274955136 -1.3838214574601395 0.5473382407467541 -1.3767861478799126
Ni 6.436367016238493 9.083798199876698 2.8136530478567954 -1.045465052765864 -0.7688014970956952 1.1393162316900702
Ni 5.951361563392845 7.172333945851095 1.0392891840031853 -0.4821139815306213 1.8234186486744726 0.370956964338116
Ni 3.677311862872656 4.660632315432182 13.032479202216075 -0.9719533567299582 0.1272562367472131 0.20605669198588383
Ni 3.2008764597177706 1.29717533511984 12.504839607147991 1.7215119464356416 -1.9667882460437804 0.6074670877178506
Ni 4.606225484819611 2.3860632179610386 2.657935986971276 -1.6879449091134735 1.1618486084646313 1.2447823691453852
Ni 1.9345032187786926 2.910310965440473 11.817193288876231 -0.35652767628666343 1.149461290543872 -2.3599016918742777
P 5.111283369950358 8.604116565778341 4.555058392688625 -0.14095044640485405 0.4880424311999143 -0.4871088636420514
P 3.3282492869940135 3.414997852749107 4.429124109467617 1.3438032651959888 -1.399504158302719 -0.291486222505298
P 5.009898940112986 5.949061376895757 9.908125680781467 1.4291988571536742 1.4608717627769228 0.01701736049360295
P 8.540861437108424 8.342377602279065 2.979944474167033 -0.2645947974310927 -0.31026221756122047 -0.11197822754222003
P 2.5595881743078834 0.8448093431689581 10.432561709655621 -0.8741835594776365 0.3332915885768583 0.3108384017796647
P 7.774398486518302 0.5276331026061967 10.949138149668356 -0.6420854491226683 0.1313700018052705 -0.42919219383092533
P 9.158294562556577 7.097661359205714 8.830067224367685 -1.363210208967691 -1.0729735425987779 0.13480293874621946
P 6.954966321876288 8.64664219113781 6.96885091536879 1.5120290023770282 -1.3713906878959543 0.367583934100825
