# total energy = -340867.697012644 ev
CRYSTAL
PRIMVEC
9.27713916970433 0.00000000000000 0.00000000000000
0.00000000000000 9.27713916970433 0.00000000000000
0.00000000000000 0.00000000000000 13.57803092246339
PRIMCOORD
 96 1
Ni 8.76100536446569 4.09297167487492 10.914808218052205 1.8950382698939876 1.7598769193670856 -1.81906679946368
Ni 8.407101066187337 9.03676832101188 3.8617278529249908 0.06514172680465555 0.09353621878694858 -0.22040164785364622
Ni 8.67376314938208 0.0841223132405008 11.368979834559363 0.41693625928170774 0.035238511487319955 -1.0872776179262758
Ni 1.8520230884503124 7.511328356507591 8.412662711013223 0.2740819109859215 -0.24741340055579972 -0.29664025590241166
Ni 7.098504948489125 5.196515189426272 0.8474304661047576 -1.9244835717382984 -0.723016834661413 -0.10934978878043747
Ni 5.99579637644708 4.980738213604309 4.783241840166678 -0.33324787982311643 2.8729370455741035 0.30068382984416603
Ni 5.260072868662535 7.02217264886046 0.23311687631247485 1.7100111448848936 1.4343384923730844 -0.16589657482723041
Ni 0.9041156407755239 0.4124337681807895 8.920657504812022 0.43930408545394667 1.324360583090345 -0.5712495001467129
Ni 3.980792510179999 8.433355369535553 12.19015228646031 -0.9247142212373366 0.17928070944362026 -0.6087171580748678
Ni 4.853446589490927 2.8686676420607675 4.793425355638529 0.5480522360946433 0.6053487558232671 0.9114910376788432
Ni 3.196326914129897 2.106392962480253 9.516135719308233 -2.4296665192732414 -1.0518347037376337 -0.6491027609807659
Ni 6.059864298327921 7.796238572100191 4.113939864425322 -0.9798669551500802 1.0264311760628644 -0.09220207335655735
Ni 0.3508604689749789 5.4562101412377935 8.890487321095154 0.6117996536549334 1.0961772344087508 0.5774389167868765
Ni 5.373411675731495 4.650184474169581 12.58937355328826 0.645105724006231 0.11237443453937422 -1.6451496683248181
Ni 3.369985678926806 5.873301033192719 13.255905375326517 -0.2812766289621479 -0.8336040953933772 0.5271201139276664
Ni 5.315429557029605 1.1588074315284973 10.072631395758789 0.36333210080300654 -0.8589873113531723 0.014051335886743543
Ni 4.059722408726508 3.2358753576540824 7.563316515706555 0.5633564705518813 -0.43244926731564237 -0.5773301591231541
Ni 6.2373730758066355 4.167086738284424 7.030215928366787 0.31419497695672344 -0.020316085849532754 0.35186086693861335
Ni 7.5749880842727695 7.714377097632115 12.793098597845324 -0.5691478804226778 -0.6949118488950806 -0.04884221831368363
Ni 7.567455047411021 3.198442101820142 12.417109142481895 -2.236023884680994 -0.374298112896207 0.8688513486314456
Ni 6.506159623830614 3.317681169288205 3.373502642318788 0.7506950173029716 -0.722632968959433 -2.8575669908759367
Ni 3.954603146804729 6.562379086123967 4.501823539690782 -0.6638205268069148 0.45218351251977607 -0.73194884704372
Ni 3.0163411405402374 3.748418732700807 12.248537960708363 1.6629293609057425 -0.3117442014233857 0.6913997219767641
Ni 3.8729086608385135 1.7337488434374484 2.9418429312903513 -2.644328950650265 1.3341058354025668 -1.4422068393775678
P 5.305345306944971 6.787943443582809 11.587124336252161 1.2325930261680451 -0.8195931258262659 -0.19718072965249264
P 5.187952390136377 9.2334343905097 0.11556624814101069 1.4444059039114154 0.6955574528988795 1.6135801210486533
P 8.790599437851135 8.131820520868747 9.249639696901454 0.28595295139189464 -1.3152321384265155 0.3609787700794815
P 2.274921469414419 7.291107631108316 2.698769829411337 -1.9143243718171095 -1.8430225389483292 2.9631123183086197
P 1.1359578381904565 3.7465447506243623 3.1501573765069053 0.24141475977020357 0.7678884983631227 0.4868309273903164
P 6.891624748960781 6.752792363940975 2.3306279059214976 -0.01782674376877575 -1.2060124474660392 0.7676990080601359
P 0.7609554704158088 2.1274242365758025 7.3964282069462275 0.4738088040990356 -1.8281206821358322 -0.13749771196956317
P 7.635298764861727 4.972370234233253 8.565116719215426 -1.2764557889892663 -0.9936454969914111 0.8446500687948936
Ni 8.854713745426938 2.2090166740131023 2.9001857940732156 -0.20361054443823642 0.7055289622892946 1.1915857305177477
Ni 4.624848607581603 0.9667242686928754 5.936219517552413 1.6117024444099664 -1.069276553363165 -0.28680707186207377
Ni 6.546088430053484 2.5412402984664446 0.9099806480464575 -1.6869210958346497 1.288200331119704 1.9849500045544721
Ni 4.030332432398894 7.31815976840987 9.936823358050475 -0.9018735691937371 -0.6884753492411176 0.31146960760576037
Ni 4.573954223069832 5.822406648680948 2.0351974147116265 0.7438144881330544 0.1321683293368498 0.3718717628429015
Ni 2.282807037557876 3.0553051243079077 1.410377465010561 0.8341813080530859 0.6348711907624163 1.3629664683880012
Ni 8.10225427890028 6.812527861912409 4.499990377025902 -0.5581217045155034 -0.8123043054743365 0.0777918114684983
Ni 5.249701027269142 1.8028449746521171 12.527742735820699 1.4100690783027587 1.044287487517995 0.06922386729382916
Ni 7.39749786107204 0.9452384147867029 13.230229037737521 0.20590345423747122 -2.3634318165147232 -0.33762106919014756
Ni 8.326742488236013 4.947674490235743 2.7240110691815937 1.5620706403154516 -0.2587452806288512 1.2073967294080754
Ni 1.9271864685659468 5.429093063963293 1.6982860519254734 -0.5171182655199481 -0.22850345102517422 0.48218725797071793
Ni 8.81749386378982 2.532102316559027 0.615745052338795 1.7153472123858264 -0.8002340045733638 0.9911476702702222
Ni 5.353011247087422 8.938903781782082 8.063368223100143 0.33610051878056313 -1.1245437013665858 -0.6192977618041915
Ni 0.0887664490200474 7.5022553145731194 2.2885495865941112 -0.22846874113249682 0.8978371943408344 0.17790079837695813
Ni 1.7029580191219968 3.7791260627653287 8.080081916708677 1.1333965237715256 0.8626393062834627 0.22247292856037815
Ni 3.2355692120673365 0.9165841155811784 0.6767580123494704 1.3271237476577789 -0.18259486141851777 1.0867073472451028
Ni 7.640670228338271 0.5840849600997645 8.675872770788928 -0.89547717874909 -0.9137556653433037 0.06331624356014257
Ni 9.267769081920212 6.9105964982000385 11.005998783490943 0.6138369957999364 0.17745239798562987 0.845210569284054
Ni 0.5147253581377146 3.706319075953739 5.421979353783996 -0.1725613884419157 0.04701236419379645 -0.4825973489249431
Ni 8.538066437341671 5.4478421618667365 6.555364641331887 0.2391272492876075 -0.20386045566551345 -0.4302180639922784
Ni 1.4624389136075637 0.1271932864400633 12.873832899925835 -2.273446034083194 0.05549597618477539 1.7426363871190826
Ni 2.5624292839248635 7.83757750344989 0.7916442462023454 -0.15584870367292514 0.5684853071380145 -0.9034213732968313
Ni 7.352141928538673 1.5308578136757942 4.722167651038654 -1.8335652501901714 -0.2920585500690002 0.5342119877774413
Ni 2.133853293897468 5.475951893013413 11.293269103243183 -1.8729614925996068 1.002252779044448 -1.7292514811717443
P 5.7836374848321155 6.933538862928003 6.255181471816259 0.23691455790700489 1.1533012331152526 -0.735051911449076
P 4.7903805986212555 3.8447710982748604 0.8610075590199923 -0.7259093257178594 0.13831403722327149 1.475636065570291
P 1.9005239711020694 7.277581562457539 12.524470688898113 -1.4571572900398129 -0.8476559455007531 -1.990382745534269
P 2.7407080639399397 5.534156663051118 9.169855373853753 0.5830896873147506 0.2926409049350315 -0.8985833284782395
P 2.5742483590010568 0.4835170625676091 4.88896040526736 1.8224629696294228 -1.5467643489756846 0.456486253660188
P 4.541929539268404 3.17832926448483 10.619798908952585 -0.6185678256167024 0.9849875642060971 2.157392865140652
P 8.166016055194373 5.388802449319724 12.68042774478381 -0.8195399039908273 -0.2350142555604985 -3.405215563774258
P 5.340579880837736 0.7007412720723707 3.66817333584519 3.2595813387404893 -1.6733269020899826 1.899669340908096
Ni 8.850399875795517 2.37735036102843 9.398685284237885 0.6751683477195664 1.3396514478111445 -1.2549261424476066
Ni 4.145897752826005 5.7322421348147605 7.040168443077729 0.6221324030395091 1.0089978110777653 1.8537628081839685
Ni 2.004529976344772 5.863374494470955 6.282228970548317 -1.6949457659113392 -0.002091078201073818 0.8629054154606559
Ni 6.31301886714987 3.2590960365518153 9.48635888628464 1.2770173179196909 1.1706592647777256 -1.0934739765449748
Ni 6.743274019334872 8.121829042174037 10.29482165776613 -0.6488772752335212 0.5350969614855559 -0.013189244996764382
Ni 0.6066135644286718 1.069162437445879 5.461898882867874 -1.4419137336171812 0.09297674673905278 0.6725900454694287
Ni 0.9054738139239971 2.052279410738153 11.218970352481632 0.24675982613220088 -0.0683527775427855 0.4265958938586588
Ni 3.4421525431479267 8.030746091547613 6.4400739242189475 0.9265669581753592 -1.1264146931370536 -0.6767446910677506
Ni 7.025002176253112 8.758843791080483 1.754933190326371 -1.1604514710067886 0.6272956924080035 -1.0268852328811475
Ni 7.155531521874807 5.85618471175192 10.61470668735971 -0.4304641185648135 -0.8790483437691053 0.6636318078348764
Ni 3.575112499185605 4.2243730715618915 3.2470227678672328 -1.074249323987408 -0.7730800698663912 0.35057300136512526
Ni 1.0677152037630797 6.3727821965382825 4.2123127908718985 0.63215533449315 -0.8083931433453885 0.0671934671273617
Ni 1.817447191426001 8.777546503288965 10.837155781544936 1.1721571894794909 -1.1206574789383024 -1.6267187153131406
Ni 3.842331210719885 8.444766250496086 2.5597713836035694 3.5172287583194715 2.213184775299292 0.9372069543877085
Ni 7.2796225330358455 8.906953315092592 6.270267027531642 0.11851062934409912 -0.6772892507173109 -0.19176315818134715
Ni 2.6044083378650322 2.5500814119261093 5.251235466058468 -0.5028612413803017 1.4245294767024628 0.35532722822065904
Ni 0.694130382826456 4.154878023370554 13.112779530381072 1.0655672228323778 0.7278443379570433 -0.7521029533940919
Ni 7.2370126336442 6.978180455758962 7.9416818463659125 -0.09963307571330583 1.3442429238365687 0.24562237009364793
Ni 2.6739312174733465 0.7151737172026956 7.052687014433941 -1.999224769305931 1.9326838481609037 2.756298179331421
Ni 1.3177897624395842 0.47495426327771395 3.2378717979652256 0.8163625347041102 -0.5659201175139995 -2.154009036270084
Ni 0.12370693760675608 6.278220318789743 0.4008085853095353 1.3897743326094645 1.326580473559799 -0.05798608959648078
Ni 7.925376346873041 2.389716787305169 7.098132935215533 0.2034439369533851 0.3999009010659758 -1.2997965205977358
Ni 5.266566865957147 5.712685925818987 9.01161706948985 1.0963291866055829 -1.5658352495642065 0.6656138712619117
Ni 3.1535778576533673 1.527629369306473 11.977384814527449 0.37607603073223617 -1.861448092643368 -3.134249829819815
P 0.1910515449796779 7.552351865131552 6.068606146400367 -0.14273299222657357 -0.5414421869772934 -0.05289761932997987
P 1.6999800575054675 2.223303468061248 13.23764332722017 -1.5822473723736428 0.12645970898784673 -0.15848871239893347
P 3.69604928308926 4.6723568363611845 5.419263935200949 -0.6914501155987254 -2.6287442088381305 -1.5170038298838004
P 8.93421882659097 0.4675390460811667 1.6065388581471989 0.11421123063779685 -0.5471862885499221 -0.2842879049846459
P 3.5358423698311894 9.14580253558841 9.187425347391276 -2.0219132120423824 2.1771623344580955 -0.5629556355690369
P 5.97971909457342 1.7199444606169025 7.6929320631375075 -1.3844243811514607 0.32653987167532156 -0.4539765998644569
P 7.358979179976 1.7438516478000659 10.777996393904923 -0.021445057247653387 -1.0117807731395412 1.2945239593448867
P 7.601502147512771 3.5790738375353186 5.224744595665948 0.19082856218221975 1.1461473956792905 0.2437045842456448
