# total energy = -381173.2525876869 ev
CRYSTAL
PRIMVEC
9.13987224818989 0.00000000000000 0.00000000000000
0.00000000000000 9.13987224818989 0.00000000000000
0.00000000000000 0.00000000000000 13.37712690767104
PRIMCOORD
 96 1
Ni 8.22240251955187 3.680407102298939 9.98914160744339 0.9839912617310989 -0.6000890500862246 -0.4449270880676789
Ni 7.743445806507707 9.029069343585833 12.962515630511039 -0.09904069354494556 0.15121377600407507 -1.4199595979435933
Ni 2.6686689699320207 1.1997178800374575 12.11273420222213 -0.628890290588633 -2.9328404067979554 0.7338334656609427
Ni 6.685825516640614 7.16166553332869 10.657690341581008 -1.0985506197369337 0.6456150595424817 1.1373130852171123
Ni 5.921055865909602 5.004546060035578 0.8048644412731982 -0.5744266123231139 -0.8209977194832763 0.44142730244453654
Ni 1.2325757199205516 5.837956149576614 7.712341908063714 -0.9161113100596738 -0.5787671486799968 -0.49935065712388194
Ni 4.504494522387748 3.605514991032716 6.891280699598074 0.2731498860899554 0.4519004340617184 0.14934484111613636
Ni 6.759410626209123 3.641050813415322 5.8939488334964505 -0.3009381119468172 0.3879712395079254 0.15964493749056377
Ni 2.435117820409713 2.7124763764854753 8.959811963415 1.1908701925079619 -0.2932392006406627 0.01102231925243263
Ni 7.384157437716493 0.594440823890023 7.8131647502151464 -0.19036473517192376 0.60213950485735 0.07581129070335976
Ni 6.588513299328987 6.951329658716829 13.13029169109908 -0.582444597531584 -1.2146932630694889 -0.35680432698681774
Ni 4.594394303497654 5.458231026966596 11.701896041296106 1.3417060163473278 -1.44872972809775 -0.3860876493319674
Ni 0.2765021500682389 8.288282717014274 8.348250331272123 -0.35125588636476285 -1.7848868111478615 -0.044127586446833685
Ni 6.311118183765177 8.117869803350773 6.078860326132565 0.9914688010550667 0.9697820601102523 0.10904819837961864
Ni 3.8435629575849215 1.4818748689195131 6.153157431730808 0.3812897137226917 -0.3804613042841254 -0.3861622113236446
Ni 1.5735660649437684 5.822692563316596 0.0757037319008872 0.3224176219768318 -0.0694570663505578 0.018221150993717006
Ni 3.272649992228156 1.30919526699704 3.53272505032925 0.4041951575659555 0.43587706205026866 0.3088239424527972
Ni 2.501710927889052 0.5617273939847184 7.978185139391574 1.6661527529390467 -0.7150682692382975 1.1532258997926268
Ni 8.765987267592795 2.9131148468926176 1.4587619605756 -1.0987303398479076 -0.44864696012142735 -1.4251151740026036
Ni 6.046719966202414 0.39731846224589235 9.844695984153146 0.6238833242923448 -2.7731052235864304 -0.005302643159836029
Ni 6.118705598168824 2.361934865209732 10.664673203798165 0.7532998019156704 2.3375811740002064 0.980804379362685
Ni 3.516127042755482 6.009337889673385 6.894143307512228 0.1539471157748381 -0.06397033220437369 0.4832311258542
Ni 9.005378795330762 6.469612704325046 3.3149054485139753 -0.9870999825634097 0.05637477924530291 -0.47694683550738504
Ni 5.735370226114071 7.550192352686252 3.875661274103819 0.8667317311852815 -1.4866558137195622 -1.5330572838022372
P 7.493616544932051 7.471187299014635 1.9983416167008712 -0.6771300994316274 -0.3076042111130831 0.6119498060795525
Ni 6.619643703401816 7.672858574959132 8.37544602044379 0.48961337523146004 -0.839372365335722 -0.5569225420010796
P 8.12264081654103 6.560527011228283 6.972840347497041 -0.3766578713776352 2.5547887403965874 1.3534541580221917
Ni 5.618251906152468 5.991643097458178 5.771440731009378 0.19519686645324447 -0.7749451480995879 0.29473198313610527
P 4.730468718012119 7.52236144240975 11.713078674702773 0.2769270937442005 2.495883995640579 -0.17643938334008324
P 5.450571814220551 4.4027311874062836 9.846742401496629 -0.05880832838746001 -1.0696316227097387 0.7902349843791229
P 3.8827455889003106 4.911520442697572 5.147384893826114 -0.29990170026250285 -1.4637889364237178 -0.135207887494122
Ni 2.029307503077484 3.131018535530403 6.736613957436824 0.005075614750694484 1.759358842080086 0.35909749389636864
Ni 4.347773136998205 8.34672305865892 7.4238637836981685 0.3411797330756834 -0.22284805251160975 0.5180567181738175
Ni 4.1798736881380005 6.427322516525582 1.4205710053735117 0.6016409679543767 0.0872465291234949 -2.9446517976105864
Ni 3.831708543585374 8.303153288777777 2.8541306828632584 0.2781689365711016 1.0944173142948508 -1.4369329925731382
Ni 2.3004418063130827 4.6301129233205005 11.207316545021856 -0.4669524432988345 -2.0139996136222607 -1.0023111430862093
Ni 1.133289290254335 8.368220037631113 12.386670790216604 0.18015899828351553 -0.2592224773755858 0.36587903559457635
Ni 7.70780944553297 8.76307164842097 4.064131832901403 0.8461477363863428 -0.7990096452479595 -0.48315065032525184
Ni 0.43180868327032706 3.27694573207379 4.909004235932672 -1.8192264649699958 0.5832966611192342 0.35836832903982796
Ni 6.161809234577355 5.108018551083284 3.563171791975582 -0.11354917157376573 -0.7133492296646619 -1.2560761968916498
Ni 3.9728190275784443 1.279956816430693 1.0445182833379099 -0.2635146769930365 0.9593269262151993 1.411649535416001
Ni 1.528031222580048 1.0744559341131736 6.039050699597154 0.09662411368365295 0.6247140477237564 -2.3332329243338394
Ni 1.5103364303648412 0.07297365213090662 10.142738070592037 -0.6205756000753505 0.09738027512338712 0.00976273581371867
Ni 3.6521009186778146 0.20237504608941953 10.199978347041508 2.0222597967485236 -1.0786417966281487 0.2483351410391207
Ni 2.519250342280055 3.3264381390187 4.302418350113121 1.510345444027018 0.7347402937459282 -0.11789999234329372
Ni 5.302185992105939 0.5871124745108115 12.209156195999789 -0.193648291019202 -0.011178642324638813 0.39400716128936014
Ni 4.675135932851549 1.5029788333951914 8.569427008077401 -0.5770031148010386 1.3512754052033178 -1.4778986363522224
Ni 5.907419176867717 1.0858990538721816 3.044728089878031 0.0359134260671575 0.41296287645625657 -0.7553291736408734
Ni 2.583311705212073 6.730592609755328 11.242204350478811 1.0963358714738023 2.5362276895649485 0.5320237218768709
Ni 0.26447499248766504 4.119998386587473 12.367782330716631 -1.5546098131620323 -0.5138138837370635 -0.4874703607465282
Ni 1.415738755040774 5.60087700945768 5.038320629081474 0.7190097703845487 0.2690232655160915 0.23661373883713446
Ni 4.779522411100454 6.641232081094129 9.525290360873438 0.11791978983763562 0.4237743652494637 -0.00555589682122269
Ni 8.531604389717396 4.551025610800775 7.085235181602849 0.9170106819454917 -2.296153502983039 1.3437531286843438
Ni 8.90473052473476 8.981807065411846 6.135619845314206 -1.3917800501855837 -1.3007501427602566 -0.6594254830630127
Ni 3.5022709967853096 4.765346469609861 8.808529715859791 -0.21309200156611044 -0.6609565749955585 1.0616020675370426
Ni 6.461542197338462 1.4063978058445232 5.390019248153934 1.0131827956933905 -1.1171407240342952 1.1848270716376756
P 6.096943562908282 1.9121617634998445 0.9787038929539927 0.39282651071769764 -0.6158375711697329 -0.2240888668972463
Ni 1.691141378505971 2.369493539363645 1.9556958878801403 1.9400192054800525 -0.6766585591118476 0.5899905281996419
P 8.336065967892942 2.278670631180529 6.493551857098843 0.4214883974287645 -0.9762067326896735 0.5349241833531174
Ni 0.25800944702638534 7.467595329313923 1.0145276213049763 -0.6888548440677232 0.7970093269884789 -0.27786066130206344
P 1.1323844429251484 4.423332458921303 9.351668438146529 -0.634334858642972 -0.6122218287940165 -0.01806354236993018
P 8.276803037767218 1.5967539202381795 11.541089133117206 -0.9020149798676077 0.7730726136672235 0.5320296354141418
P 0.6860525030277738 7.259105708848485 10.548091394323665 -0.18562567782504158 0.15357122049265812 -1.8059937683298055
Ni 0.5564335801153755 1.4800011951570555 8.368221865605516 -2.6049175387321784 1.252447856110443 -0.81423468972783
Ni 3.574412006575924 8.47813613844727 0.15939388396584878 -0.803399803895855 -2.453947246197477 -1.4975521489170918
Ni 6.802834158138074 2.8076681434903215 8.301537359406058 -0.33796431146217926 0.18065779229680498 -0.678472729502451
Ni 4.029833549189219 3.446874232520655 2.3130255820991867 0.10568750943750185 0.2732074788007682 -0.6241640887575574
Ni 2.680907258556072 7.027565331168814 8.870211970107087 -0.8278057435440452 2.5594300958233407 0.531206368181898
Ni 3.5218577425069975 5.785209948195436 3.2871750768296057 0.8840252281584066 -2.203551623084902 2.3844390148940096
Ni 3.748499148788243 2.624404569777967 10.96306351936071 1.0931631301727753 1.4020801465600112 -1.45566784997848
Ni 0.9491208692127939 0.5536057037148667 3.3594915721628507 0.4935469059579114 -0.48156582233663514 0.4921772793038943
Ni 7.1038649827248825 3.3360350046312868 12.899857237932862 0.7853712285289184 -2.0921691201451518 1.0139320151545892
Ni 1.9866882798855876 7.0641887983208465 2.5550311132325825 -1.6432097709896283 1.1993347783355472 -0.7993796269928685
Ni 6.229937840554706 5.125238069953868 8.07256071582575 0.29735605102251367 0.5793675012681572 -1.0094405550421388
Ni 2.0736267424636092 7.871111538771144 6.662932879212191 -2.37088287347613 0.18553877453819015 0.501230133534782
Ni 3.478361091601951 7.531748090966061 5.0879364242985465 1.3550351293560663 -0.3275212617519843 -1.603902231639257
Ni 4.638018912610869 3.089477817235921 13.148873050899452 1.2776220413832255 -0.11961183282807787 -0.7769449521384362
Ni 8.512739693884654 6.573048635884705 11.989196036159306 1.6815549464267299 -0.2736615356190513 1.276735010792582
Ni 5.7910960257711555 8.473401684745062 1.1416614130173153 -0.35625513935156705 1.5392978653953102 1.2107484194891278
Ni 8.279481020266731 6.03843010228754 9.33427800366932 1.2063070958883226 0.23830861004105408 -0.413659645412965
Ni 8.237894602612188 1.8934067461312467 3.631368033005823 -1.453358228008697 1.0182409269425885 0.6270990030161651
Ni 7.844651609296442 5.55828520588182 5.127559597444913 0.9650049504365832 0.5987811299080785 -0.9236387287849706
Ni 0.5554866893749336 1.178842412362079 0.17648544462826474 0.7332562530012339 0.6299115327642958 -1.0565758179670448
Ni 8.226113307588736 0.4336969808280036 1.771118000572462 -1.1379548325661692 0.10013212683691142 0.7396107344643521
Ni 0.9375406513736062 2.2834690639868223 10.623150765247708 0.0008698041994630181 0.6829629040633205 1.7215438281148416
Ni 1.3929713338589143 4.66000944467171 2.3311252706445247 -0.31630328154897785 0.10839976616234234 0.343714326572079
Ni 8.341403653147943 5.11798101157635 0.9437173768793071 -0.352825801955044 1.4679880621067298 0.09162177537305512
Ni 5.101785158371109 3.035771929293485 4.48339786980968 -1.6480809830390002 0.26167968066682673 -0.8170284504228833
P 2.0236956216621236 0.025416156090933874 1.5168988584694478 -0.24019914219554758 0.1648136261756968 -0.48651442459116206
Ni 7.014147999055217 4.947796594713149 11.39671023089265 -0.9493096511885135 0.4173370942645522 -0.19412291666277537
P 3.433484320023094 4.797272042547733 -0.0988970711185058 0.2216326920472699 1.3238502191128296 2.30153019391392
Ni 8.214661047957717 8.855347796253993 10.45306048906623 0.5181875873247268 0.5974369571753582 -0.24999967322573718
P 1.2294955830525118 7.925137322234 4.515823393746607 -0.41621069396959287 -0.8207112985911091 1.2635257111911595
P 8.097222832475694 4.034988437003981 3.0422932279740373 -0.2146395485588884 1.7239953749791275 1.2207646660745493
P 4.790389718922707 0.14830813320250955 4.691277860811919 -0.567684408503274 0.3534950601079267 0.8863816442057251
Ni 2.239588538457272 3.1028677297334823 13.047460687003246 -0.9626346504321937 0.1024602607494558 1.4343474912341492
