# total energy = -340868.7842504253 ev
CRYSTAL
PRIMVEC
9.24522151236972 0.00000000000000 0.00000000000000

0.00000000000000 9.24522151236972 0.00000000000000

0.00000000000000 0.00000000000000 13.53131620466390

PRIMCOORD
 96 1
Ni 0.32306410147869097 5.7359296730906095 13.161897886059041 1.5571647183734019 -0.07711432578549945 0.9397844853068977
Ni 4.914759839230084 3.073370548975881 8.181737348742589 -0.858091024791148 0.4061319695773522 -0.2152563562072809
Ni 0.41389378176559083 3.3395497260475016 12.783440114428485 -0.3337677568823284 -0.8994443909269542 -0.3023023392841955
Ni 4.615223902376782 5.443244445494022 6.758757206517107 0.21179256602839655 -0.34049967628952327 0.4871469159688384
Ni 1.1593785329551733 3.6885660892731877 8.87031960960393 -1.3407397957793168 1.4644841627185294 0.01903002004825755
Ni 1.6639734864264655 3.5477890989196204 3.7341829375101048 0.3156124261295404 1.1459771886500134 1.7365762969679317
Ni 2.2351617715794245 8.752063054713831 2.1015757146399903 -1.1091602769319802 1.6949568216549327 0.3784080212995225
Ni 8.178720632912 3.774648348233066 3.352762072334641 0.3595710910986775 0.24700253827062624 0.9068049450570834
Ni 1.6426632504794652 7.384223263566483 11.183984407419002 1.6805717565778544 -0.14723422253103677 -1.7203122697005857
Ni 0.5643126137977382 8.28964480249643 8.346224634588424 -0.41023776421560965 -2.393240415235723 -0.02828779120109967
Ni 5.2281451181435195 5.513785486828343 13.155172911817024 1.2870968136428802 0.5544671384820515 0.21042756736006987
Ni 3.6610892904729777 8.12702135333906 3.731152353847013 -0.11668308921705711 0.5871697709213952 0.5922788100131865
Ni 0.8189454335269687 1.5376375323198455 2.983574484471573 0.8797762230740656 -0.36521646230991295 -0.5160147480431242
Ni 4.731510300529219 6.06713049416017 9.23639525585322 -1.0362952133411378 -0.7394649529151072 -2.3152074342906968
Ni 2.426759745447378 2.6694653047014567 6.917384870869142 -0.17599432538286464 1.560535691728164 -1.6953561139758804
Ni 6.421240974525465 1.976138396079595 6.467198046919801 0.694604602067307 0.5150238448847646 0.4474552538061713
Ni 2.6745779122844033 2.0611574545475406 9.116426485910026 0.6362765557503752 -2.746792039613198 0.8055739287290384
Ni 1.7728821976870566 0.5228145118143519 7.191014772083793 0.3203859362587837 -0.13639393738242317 -0.8324923503864372
Ni 6.892654827426785 7.062748415692691 9.536479434351492 1.363100422862704 -0.6138207978500203 0.13481348026918075
Ni 2.934322415074413 7.346179176398628 7.314961760911149 -1.4490012365915819 0.46053754091142624 1.460038211132034
Ni 2.116277466138003 6.093202019266696 9.157954172602754 2.279222531555655 0.2590065047100378 -0.41943228623068407
Ni 1.6458436067335944 0.6925734230558398 11.441160587629367 -2.1260806852909315 0.43652677981912563 -2.5716862874828745
Ni 8.669022473683047 8.711550493360358 10.169528422213768 0.04708049842757053 -1.347238516129783 2.552850385723294
Ni 0.3130469038003505 8.148387060616075 12.664080604593279 -1.7386632614039477 0.9526214891705659 2.0237695485248306
P 6.555657252370774 6.7789016200116485 7.319535372070793 -0.8263085901732286 -0.31980255295148796 1.1203414903597801
P 1.8459194488720034 2.76692843153585 11.159520626360713 -0.7961104693232934 0.6356767173828471 -0.05407647012942945
P 7.724743268078377 2.773769895570896 8.388590862886527 0.44506181387333027 -0.2975887358586101 -0.5367859191522045
P 3.909970657801935 5.807857497675278 11.124650423791817 -3.4926891213068942 0.7077169710795489 1.5690537565015041
P 8.190952061180061 4.617109927597253 1.3436284046406215 0.6266793989802433 0.6001034482639278 -1.768768051209128
P 2.9878707389811487 1.7825342091094725 1.621877218601096 -1.0447304885926845 -1.4238031400593993 0.30182077166208665
P 5.9926047622865175 6.812138191911634 1.4597178795715102 -0.5744109285938301 1.3604701843287086 0.010552578704865697
P 0.24671428736974854 5.238712406511164 4.761331687544684 1.1192104620791306 -2.133828447557151 -0.12374488115984496
Ni 6.248235141433831 2.354961353966075 10.125335338113873 0.27146864173279056 0.34497879510679946 0.49952574924916554
Ni 8.645188292220416 3.301579600652998 10.563925880523811 -0.3301332454535346 0.41978941245978674 -0.055924321971445624
Ni 6.568517355712326 9.181845674439732 10.83355075171146 -0.722621398995207 0.7837020683566116 0.9009307456644936
Ni 1.7424931540611175 5.2053556467294815 6.817239705228578 -1.540270770831541 0.4836579289789735 -1.2887927132880643
Ni 8.614632834604436 5.962049304670536 7.549297620988298 0.6575285231506159 0.5185341720308683 0.6798855506895775
Ni 4.510198184217162 7.799916165468859 5.880534185215135 0.1967025044644935 2.2222988217854183 -0.23286301354545055
Ni 4.42496648565083 3.2397013320225105 5.50290201187962 -0.0628318477245563 -0.011545795856070438 0.22626324884074583
Ni 7.648386982314266 4.521199998003249 12.431138923943811 -1.1507805235759276 0.743885450580306 0.6660933820014915
Ni 8.22686974736405 1.5860085320919521 4.477606928789672 -0.6147168273017285 -0.27731147366681275 0.7205043526522042
Ni 0.9257240457150269 6.65799261102472 2.99117867929431 0.03721697536992945 -0.5350051731026979 1.3541655822669194
Ni 0.9381866045248127 1.0264322453552326 0.6055629438403959 -0.9410636091296373 0.6881128236953762 -0.438936931922515
Ni 9.131607139890493 3.382142462276495 6.360638546485298 0.7166227582096111 1.5626933615011152 0.04614898775223665
Ni 9.056240092844961 8.548252143021154 2.3871809514824727 -1.1364787622412749 0.3997345506914406 -0.5190399080226932
Ni 6.098850849706443 2.5041792317034215 3.319353539311613 0.7394379563319137 -1.7096769014739264 0.253614387160189
Ni 2.6482290305278084 5.250435347587431 2.250298973018046 -0.04141481550136093 1.0967621603779436 -0.42939273987750565
Ni 3.3294262083199677 1.5126569433702601 3.6345924851696787 -0.07935555641119238 -0.5784794422362489 2.0574890522644633
Ni 1.340742046435566 8.992032028353892 4.72600199745884 -1.1827629900197951 0.4177263592831709 -0.4608388742019289
Ni 4.570292125065536 0.3433943439287793 1.9196334502831194 0.9370228634013605 -0.6798127884701132 0.1690736870036314
Ni 2.6362009971364646 9.03540136320308 13.077245862891354 0.7857682068570209 -1.4484389363302088 2.0594459188805176
Ni 6.225353217803105 6.620919272132108 5.2522612788670555 -0.7899444497218977 -1.2939153792266105 -0.9492379174103136
Ni 7.000491092973776 9.125616236248993 8.175770482677429 1.5779320328277406 0.7819560321997823 -0.05216176960521984
Ni 6.085990746364891 4.614789376958339 1.910053551589722 0.6620210117043309 -0.7157182441174705 0.18258072035113074
Ni 0.03321808145664727 1.405440107675092 9.31035795372723 0.8852393030711657 0.7473554114067774 -0.5904985781843121
Ni 7.902168317127783 6.872001002218283 0.4955235419696881 -1.3150341634830964 0.402104593585514 -0.07963529243514027
P 4.732055768607689 8.865427962818872 12.860528621748779 1.301188515849256 0.5761397383594787 0.49618922867676485
P 7.2077134914623056 6.886922789992018 11.72120482363796 0.34442600792712297 -0.48778866331789544 0.8987537926178328
P 0.22069453550456955 6.090465433652677 9.74155971497932 -2.803557112318385 0.24141244577735843 0.3650007467546811
P 1.8026795471261812 7.098832515866722 0.9100256593210979 -1.854325365555658 -0.8797985916715687 -0.8519435171325133
P 5.887505082353547 3.1128568907240974 12.389408766896533 0.49716701920900186 0.1909046668357938 -1.2261241306142496
P 4.77630339951543 1.0768371938945147 5.367372609345365 0.7850943207184479 -1.2724194141363634 -2.2715184780431787
P 8.03107444285838 1.2176326746914201 2.284722631380329 -1.124872031240282 -0.23147461783835616 -0.14337988178195307
P 4.123054526828599 4.276617658750367 1.0900070121619776 -0.545586291052654 0.02027134865452638 -2.1610733993160327
Ni 7.65868615925351 2.2221629899128374 0.2829315187358131 0.11767244971351992 0.337977681198618 -0.04438778208675581
Ni 6.543009789127608 8.31094579322176 3.303440663774964 -0.3517410535312975 0.7514871741869639 -0.8753577822913956
Ni 4.727756740531613 7.779669130013791 10.925252256401746 -0.31122432436417363 0.37263743736433247 0.22499723764412866
Ni 1.3979699685665559 4.973522468158125 11.329080765336318 0.4544676805682625 -0.9229275616505588 -1.7743226624787698
Ni 3.9025929709100886 7.520266700425533 1.0499040141284406 1.9647300779631713 -1.0859882096908908 -0.45869560260668096
Ni 6.804658807581428 8.999566884014111 5.524430435058008 0.03854572148368201 0.23634043057108975 0.6518738959679998
Ni 4.130154857070377 0.9002608561943205 7.274530557508363 -0.3352895928434936 -0.019318240712637696 0.8946009467917239
Ni 6.827947520965591 9.105369200793925 0.7023095659954433 -0.41528586816247837 0.22663117370312583 -0.026669538871386327
Ni 4.926085235774585 6.340410001473567 3.343858923867413 -0.15518972993268756 -1.3338428115491674 -0.6369018480391999
Ni 3.962788609196821 1.5558136381210612 11.841511968694237 0.8156171718976534 -0.31107134372607714 -0.04053704088209793
Ni 0.8693707215539226 3.786121668324271 1.6229598340585336 -0.5047425175634146 -0.4934574315678986 -0.7258679309569628
Ni 6.6723966663849925 4.625384400990991 8.598976051708016 0.35694445210910786 0.38009929295901634 0.5984330025400403
Ni 5.567786826596859 4.728283718166746 10.8952404178199 4.303809433775458 -1.169382454947831 0.5321623043372641
Ni 8.700761319672658 1.208304246027419 6.953676064008558 -0.41349020971463624 -0.07670526327253886 0.16782515930851097
Ni 7.642812113647871 6.252765300051632 2.9178659205036275 0.5294950419177462 -0.36344574356273535 -0.0999179539435763
Ni 4.974826044413452 8.205550266195383 8.36257018649918 -0.8979675492711116 -1.9260367751580312 -0.5366396233823274
Ni 4.153850360207974 3.631929861329013 3.0945716913071872 -0.7235518812292764 0.8878348317124839 0.8452617342369637
Ni 7.12007803526204 4.512814581949484 6.280871698447499 -0.9467927983039307 -0.21893560483108104 -0.9565889584587461
Ni 2.8826693616098185 5.676769499630802 13.066285652602778 -0.7135343490922743 -0.13893907240178008 0.6781713962119482
Ni 8.317778012035138 6.886784111666982 5.118518053159248 1.9712750781705404 1.2272140212443188 -0.5797464818741306
Ni 3.7415227189931084 3.505510700227372 10.504536425566615 -0.35980351882445777 1.26068387086699 -0.5223789996982552
Ni 2.513729545687479 3.0099298378833366 0.0847546451282127 1.2048027434286541 0.5396647833618964 -1.395545430765287
Ni 5.071956343267761 2.1712680446250996 0.5610046734845769 -0.3131397962193317 0.5667431276359273 0.304244807722547
Ni 2.9926967446923562 5.268925790925392 4.799043871254622 0.39908149048847397 0.10307244041215798 -0.8170374492839477
P 3.1212607972212005 4.460310968091343 8.140453735901922 1.9919297783064147 -1.0366546535630856 0.7735567523924936
P 8.949846081878333 8.434609878266045 6.375374505303485 0.2804983560352266 0.35402933534484193 0.038863252724100815
P 5.059595481896334 0.7803752932461485 9.289465601799668 0.24736609225763204 1.4039940757532723 0.9391815616155761
P 2.325108533196937 9.107440130447777 9.325363873018153 -0.29277794473352803 -0.6228348284231725 0.25172256945411486
P 1.1060613395901624 1.9681597697792648 5.222113535526677 0.4328555016151255 -0.6621074007705501 0.08113347424722156
P 2.322658549454657 7.238370646516646 5.270447554412107 0.9461898746126092 -0.37246337368031335 0.14732138292820435
P 5.8608695987252135 4.527338825191452 4.43380676661071 0.011331108742103066 -0.16288298481188723 -0.4299725236403756
P 8.314551429672663 0.70476047425989 12.113167090560395 0.11458815436124135 0.1410232086243184 0.3699115537927371
