# total energy = -340868.178488149 ev
CRYSTAL
PRIMVEC
9.25693106819160 0.00000000000000 0.00000000000000
0.00000000000000 9.25693106819160 0.00000000000000
0.00000000000000 0.00000000000000 13.54845432322677
PRIMCOORD
 96 1
Ni 7.206363239011723 2.9763716945343703 1.6491453595493233 -0.9411906216258048 1.3638010484741545 1.1197318818002393
Ni 8.50287970615711 8.069405408846569 0.4488926412061661 -0.9522016280243277 -2.1617948508630898 1.0593073579655952
Ni 0.10905867851676762 3.2089243094154303 0.12649503332092196 -0.583532431279124 -1.8882436155696576 -1.0242912469017262
Ni 5.860396247676596 1.6852427610989091 0.28835709635343454 -0.3647359231290686 -2.428162681034205 -2.415013545246757
Ni 8.136351532197411 1.7207986321982705 3.9759017544596675 -0.2711374836456169 -0.15992878727956975 -0.3267049364982761
Ni 5.367992329064692 8.109932251771069 7.841533098164374 1.1941501488108144 0.4437068425073326 0.5180034963383788
Ni 8.737968720069992 5.173930032338056 11.84203977461886 -0.0342730622502571 -0.18533462894718405 1.0457794986824893
Ni 2.2388349921208044 3.51692091009701 9.624252265996784 -1.118651504251867 0.15948167243982211 0.36533936104102244
Ni 5.769011827084851 7.642068456638574 0.49001192770014235 -0.14301915600842466 -0.6065512607718005 -0.6312225382662355
Ni 5.046295470838969 3.8025620229616255 0.7450311135674432 -1.1599081969088088 2.1372786108892803 0.697228155733083
Ni 6.577789868727962 8.209379459066158 10.126466679841986 -1.2253641125197734 2.1022704702452115 0.3730251597210543
Ni 5.218122619848691 1.8655770294890826 7.358084334382338 -0.5688578599860848 2.130707642539982 0.5135734855914832
Ni 7.681253044600978 2.459659075712385 8.080026811215589 0.460447038080149 1.268227230431887 0.8434488493979408
Ni 0.9151975691964767 6.425226392656998 4.410996940348573 4.452517155528229 -1.6682160632259786 -1.7837832936710376
Ni 1.7161979376040548 5.826886158278083 10.83662230672189 -0.2327213457612637 0.0283150448946093 0.2245768622772584
Ni 8.498630774932272 0.922311520495581 1.6790869021348176 0.9355074551980985 -0.7433072094793327 -0.9813116580164067
Ni 0.5003065604128734 0.21879774144535588 12.781828380413996 0.9112128443167921 2.370289977087137 0.5494043792471635
Ni 7.174667508044732 5.694132514061489 7.1200238456913 0.9877191042046471 0.0838578151569201 0.31505141141974774
Ni 5.85742477289844 3.731265142147442 9.465220972394677 -0.9270521253418937 0.37919734997003723 -0.7544398290573845
Ni 7.598866360720656 6.25947179023441 10.045582395826134 0.44333120433546874 -0.828602785524044 -0.7330058275533248
Ni 2.7063377669531503 7.591673725509982 2.6535862212497343 -1.1247601882527662 -1.4480010774618417 -0.862813627077798
Ni 4.269277958678261 2.9511095304546626 12.2408653800458 0.9986570912733898 0.3635825262509158 -2.1072013318879255
Ni 3.040873988161121 7.7064874378883665 4.903415670049713 0.5882568333379868 -1.2657546005216782 1.5799256662190015
Ni 1.3205104317091847 6.283132505290376 13.430663320773853 -1.1777287700299974 -0.9118311946270812 -0.7631052180418664
P 9.154326952381126 6.309690639678313 8.201813769545328 0.794847800560786 -1.4545450492279466 0.7540294809928433
P 5.692068218499093 4.159481502778879 7.311829302695462 0.35065399111470574 -2.379113488916038 -1.165663097114715
P 7.502251774242127 3.4468459441448713 10.68211580088166 1.334671735208366 0.1749946804737567 0.7473548971861451
P 9.152216372164867 2.867787896566261 2.2074771391270303 1.6312716247911454 1.1768581944995862 2.617761227464066
P 7.84861835297808 1.6160564605009853 13.067415803080129 0.7951833295233337 -0.06728679817211639 -0.08438874795972562
P 0.820899066797369 2.819559287238567 8.240657702455284 -1.5249086865531738 -0.26957039626881313 -0.3649601233247327
P 3.9418140325809152 2.3283309988348435 9.456413928457177 1.5200415882688596 -0.6993925103742535 0.4221255167921311
P 5.474909879493649 4.295021483158168 2.8539006490205017 0.4805684914203723 -0.7588765246724994 0.26530750722740115
Ni 6.346088891478024 5.408380318027596 4.789987720208058 -0.24874728887587483 -2.0402022401595574 -0.48610407652662085
Ni 6.985085565812262 3.6545992414848776 12.899754272918287 0.29495721177303397 0.008619366237894832 -1.5452049749083645
Ni 4.08768474770295 5.524462229921891 3.8906824497627865 -1.4327258964703262 1.1088273190725937 0.7383843182564187
Ni 3.9814799809435195 9.123455088252939 9.586777433148166 0.35864446551935003 0.662435216423614 0.46335392731429875
Ni 2.62670039151243 1.6411334859652313 7.741803554480706 1.053161135858541 0.9788860792940496 1.6022068462147052
Ni 0.9523530379334244 7.162439102493506 6.47522585284158 0.7478716889215635 1.7762394198855087 1.648728386815012
Ni 0.2475155177826504 2.2980793490684515 11.175265828113872 -1.6586032227265626 1.473511048807488 -0.042588009873855685
Ni 4.550429460117938 0.07879592043344773 6.130024721689956 -1.6544894576685054 0.8707578216255392 -1.377434580097189
Ni 7.0132729200162585 3.161028949595567 5.746942378428775 -1.6194646048538885 0.0322082093014284 -0.24774224465012812
Ni 6.403102328109361 0.20363766591829943 2.331377454752261 0.2580361703769685 -0.2864286054767325 -0.8995793738429217
Ni 5.664056745979784 5.601461380092287 11.87260523433846 1.6291268105340009 -0.5015939446321038 0.12681992054074287
Ni 8.323869178867486 0.46601333467095885 10.232402069915922 0.5350560809452914 -0.02358627196037228 -0.44276093365429553
Ni 1.5167110794443996 4.114418763775576 4.931135549249671 -1.1564284658903246 0.1824526794136987 -0.5483589687017846
Ni 4.02056274266742 9.17737671000607 1.5501869181990524 0.28454810062456803 1.786221213688569 -2.154691664159405
Ni 8.187125797487699 8.074644831664127 7.830125782372718 -1.9897304566622507 0.9036720558550565 -0.5324171006605476
Ni 4.159805495355937 0.45900583807574497 12.42451455534581 -0.06106472852180452 -0.5509403562757157 -0.3332404236239487
Ni 2.0747003525835033 2.02363912243925 12.54956735885229 -0.41732115342495224 -0.2972300669676107 -0.910904569047754
Ni 8.568881622569098 4.549114975948162 3.781035030448852 -0.28784476909796874 -0.5310911827602725 -2.3571367275346304
Ni -0.00047580624173578943 2.299393833238227 6.174450583856071 1.1357814790639342 0.2504264763505107 0.0005491876352506671
Ni 6.770991270892702 6.037453562573103 2.495936987412046 1.4018477188342309 -0.6889350624863554 -0.8940941823586342
Ni 1.290869739373815 8.931762565804208 3.7471093048586286 -0.9800708436307701 2.089755368497337 0.6353715274376025
Ni 5.504467259452062 7.423327182470933 5.285333491419642 0.5796958311418532 0.5013147228287883 -0.1282042024827792
Ni 0.9907600437108911 7.953601204875466 9.288440439728284 0.2155476621954546 -0.03879229027684932 0.621336389500775
Ni 3.3544154903757692 2.987072706508039 5.599914546960106 1.9344499389223913 -1.0317947543676231 0.15889828913252632
P 6.682846776071532 0.6680893563678413 8.362932501036763 0.524922077835083 -2.5148574514192883 1.2617264531988917
P 9.210211043458148 9.34264995202846 5.545463428766755 -2.3078846753770383 -0.7424242926537471 0.24558328932559637
P 5.324540296015902 6.5876762707936 9.771361558456256 -0.46509559259575384 -0.7288390977701448 0.8695149503573736
P 3.013593813172884 8.615110734849809 7.548236503550428 -0.04364704726598935 -0.6447041176924381 0.5713029790924677
P 3.110856384805529 5.269683724254691 5.942541325663741 0.4531188798498519 0.7774206062232739 0.024292553998777517
P 7.0420990024435985 8.076172225241685 3.6559285367438905 0.4909254091746642 -1.906868943980329 1.4360994409282493
P 1.4331024807020332 4.1286559233045566 12.299083143370716 0.5063317164274054 1.3756834017340371 -1.275517850556029
P 3.493426819794959 2.0617313925704326 0.44517413211462403 3.058180657469378 -0.6373340504806121 1.810793246600978
Ni 3.914200608084848 4.766227030299741 10.471762231687498 0.7159822964121346 0.6492223172777657 -1.2564523492841457
Ni 3.42241690383474 5.132162760689965 12.634149786711982 -0.09530822308570683 0.5362585858938248 -0.016420607449868493
Ni 2.86057674749404 7.751142871937655 0.17885315946648225 -0.3500518387543326 2.1202756485733807 -1.0656800942611582
Ni 5.087229618717484 1.9576649768195813 2.3076001023685535 -1.452778444245827 1.9377633195663402 3.0518310611022668
Ni 2.220506269190126 5.415017537391886 7.878507131058169 -1.385736415094665 -0.8682291416664144 0.09754662549792233
Ni 9.069218730853523 7.319834696428013 2.7631262601667017 -1.5071202522215013 0.5166490391930135 -1.370580276179517
Ni 4.7841484482764045 5.920649610078508 7.797338659267583 -0.9015272415979118 -0.8589266333185659 -0.8015154423889487
Ni 5.048878154524656 7.472916560622269 2.7515828674926834 -0.18866677864421055 0.7613452979279662 1.6018278656087317
Ni 2.2860360821326875 4.262418572975416 0.8741652978517674 -0.8177779269943981 -1.512145987570867 -0.9472977629648072
Ni 3.817354598336992 6.052292422602333 1.273992503188354 0.7680016269022193 -1.4931501631946544 0.6267614171710884
Ni 3.8540583288522137 0.3438560991102974 3.721786970728896 -0.27886544841749394 1.0372598912472524 1.4278716537018183
Ni 0.2721121085397743 0.6891970099165953 8.039422210072596 0.56659683186605 0.6201179437126417 -0.15217254037291855
Ni 6.9570740932929525 0.662687937261755 5.963460137824723 1.0302307523146128 -0.6277872873324414 0.21034914871365065
Ni 1.8944679104318336 0.5308840541424776 5.982780278041197 1.4433090713028112 -0.2835687674304342 -1.5680651673359898
Ni 6.843908114592173 9.097498654365252 12.425490235849292 -1.0817764856023886 0.4110679734263888 -0.4944485918365743
Ni 9.152151573649455 4.537969631297385 9.508075007715528 0.5606532126881054 -0.9439247327275163 -0.7426353802232887
Ni 8.233873297891702 6.691798228129089 5.1411095842821375 -2.6517720371918716 1.6920797572174535 0.6685367013356616
Ni 3.234667833895338 3.5178280893127707 2.8776372709088074 0.6145533051406707 -0.7617235072029914 0.6797022310341778
Ni 8.8784519014821 5.195035834500655 1.03944409403262 -0.9798661838191318 0.9281597565837757 1.347055196474383
Ni 1.9769379066891126 1.0174755459219706 10.146938382246631 -0.3095605635085056 0.8374818331812287 -0.5750449626334032
Ni 4.132377209475331 7.290573538254338 11.73339488090765 -0.6211294156962915 1.0363558913757442 -0.813053010714903
Ni 1.8268182603422392 1.7217798668602158 1.6718516850425864 -0.9216646357777353 0.06035638960087024 1.1798257617683423
Ni 5.8913514241817415 1.4579203121046334 10.446155709783032 -0.18051792428483104 -0.02706368898601146 -0.07886730392086418
Ni 3.2051289677984722 6.878056932214029 9.265367539776408 0.15550546140089347 1.2767378390060593 0.14865270014511817
P 2.0161410085130633 2.064202993086842 4.041191812895207 0.27137042559202945 -1.0589219496017181 0.4911591224520251
P 6.822404264406332 5.584419370539066 0.2887403332874396 0.07184150742233435 1.4273900860797095 -0.09306570690843327
P 1.8597081353789562 5.195757875100955 2.6679483493441523 -0.5212631409262571 2.063655071865859 1.3082744761617597
P 1.1231156399042437 8.910517909680014 1.4611056219836467 0.23641962054845733 -1.9199242345023901 0.17113648306993107
P 8.716622237707293 4.454249949385742 5.819102005191009 0.10812311546218799 0.6777235100412522 1.0075286827314067
P 8.593893849517933 8.063536514736443 11.807166139317475 -1.0475360763622799 -2.5065972682930253 -2.280987593875878
P 2.1300660555372337 8.799814274564872 11.582573559208177 2.094080478235252 -1.5344870742702283 -0.05645371211235439
P 5.476853834955993 1.6746806030868364 4.614698479089206 -0.0118278458728635 -0.06431383158672149 0.24263063445517571
