# total energy = -340859.31063815346 ev
CRYSTAL
PRIMVEC
9.44864082225693 0.00000000000000 0.00000000000000
0.00000000000000 9.44864082225693 0.00000000000000
0.00000000000000 0.00000000000000 13.82904092662612
PRIMCOORD
 96 1
Ni 2.8357449030291617 5.580546640640075 10.460009820694715 -0.7046105642400833 0.3524241956412511 -1.061360898060514
Ni 2.8984082872425465 -0.0021448414077862325 8.389705903717307 0.10498174161972887 0.2376216112763585 -0.6762304704354934
Ni 8.385451180871817 6.595349534380414 3.2284861518040593 -0.885797746677797 -0.111922177493304 1.7206172025355142
Ni 3.085566959513162 1.861703444677324 2.2893564754682103 1.2829532237881518 0.7928032593269314 -0.7208684208598424
Ni 2.9614023738756337 8.82075005160623 12.845338972952824 0.2116529551267387 1.539153369397646 1.1975231790481053
Ni 1.4309021268508682 1.5872865768080044 6.854737394570329 0.8640510990293249 -0.053933002573029694 1.2661081272063548
Ni 1.8126744487962545 4.132306258356221 1.476097809255555 0.7353743277855013 -0.685493126684342 -0.09026037624915423
Ni 4.091733795778978 1.2162479105421122 11.582637765947098 1.4548546100485653 -0.8794756611145111 -1.0345283512487022
Ni 1.993332456359571 1.1725857425007897 10.194547429486887 -0.9008854942488549 -0.31634287653766163 0.4152514153801171
Ni 7.8865913050705405 3.513231328672723 12.779955325121371 0.989361782014393 1.9938678758693917 2.1991061857190384
Ni 7.577318402164554 6.351687991543447 10.926269996825752 0.2804919282773234 1.63148116969879 -0.29844131366689247
Ni 5.886125125085954 7.944341396191199 2.0507641282932583 0.07744882630678275 1.7513475417398352 0.6006726905038365
Ni 4.604237508553132 7.323716889455381 13.807370264285115 0.4890155937464611 -0.389813949143619 1.7341059810505681
Ni 4.1731243855881 3.9551820423634427 11.472710391909802 0.1179483290827259 -0.6375181414669601 -1.2257942580786567
Ni 0.19392767836990202 1.750766955827905 4.180311966464324 -0.1642932348958525 -0.8543048182758385 -0.23295531614894074
Ni 5.484822463096981 5.807191181823195 12.15348588933332 0.27748399468893503 0.40986752536038445 -0.13795588255290434
Ni 1.263510010637913 6.138942400628404 0.2303559671962414 -0.8773233906581988 0.5408171517987848 -0.4979365503851747
Ni 0.43211845832092904 3.6246969413936667 8.275464280398973 -1.0011806290261918 -0.6686968810626097 -0.34994128131839736
Ni 7.885901554309446 4.844223530211117 6.790114362304192 0.8570355869434403 -0.4976940953570655 -1.6776265579066012
Ni 0.4256962173303022 4.050263712348257 3.417184007622377 -0.10421812398082697 1.011738092827064 0.8161874425788265
Ni 5.32214521852493 4.805965984571794 7.265225080050532 0.9298114332545858 0.194124202214356 0.6559251832192381
Ni 2.329241077012471 2.649994078202424 4.506428016037799 0.8726025881437617 -1.182660660113976 -0.17921951718838167
Ni 2.1032390433876302 0.1385784868162854 3.609849347613071 -2.7109914849748216 -0.5210345698552189 0.32203941270180664
Ni 0.5240395580374417 9.195766595549118 8.245482799028723 -0.25530385904747 -1.176274296971658 -0.4157514949449872
P 6.881369332861018 5.25882042947214 13.767653848542874 -0.8254205311413204 0.14664595412773454 -1.7132931580702753
P 2.1380383865809196 4.70992055324956 4.756208498503321 0.2027566810783734 1.6749068449825928 0.03581135327165445
P 0.4518982424753771 7.959043480907126 5.779667291863366 1.077096563628216 -0.33291183663993634 2.3792818961731026
P 5.103617059585371 7.261440899505076 4.311161465300129 1.2878779147832788 -0.3002971359287086 -0.44331809170934616
P 6.7303328134625025 4.1936657301719205 2.8963125787656874 0.36670821636409107 0.20944180640803287 0.673000650644286
P 7.240909003561819 9.163971920054841 6.197429485712972 -0.5947617243360402 1.8085849260957498 -0.9177784133494516
P 0.06445012214383557 1.6262527704895482 9.122921356265115 1.6583252864748277 -0.14431833443582243 -0.5555534295676948
P 9.172655220732178 7.3980587934045525 1.510670385075334 0.862583770455179 0.19005723123383397 -1.1961476388568173
Ni 3.027533409175615 4.789497004070598 13.14878962354393 -0.8484349897586226 -1.5547802773016255 1.5799475205958724
Ni 0.4293537860922143 1.5509565538435195 13.740009015983839 -2.5100829128487803 2.3227816470935285 -0.9138939906933808
Ni 0.6934423449621898 3.5144691005864677 5.956457970844273 -1.0873349535267725 1.0722960569157791 -0.593373585739262
Ni 1.0278136717955004 9.338922948718146 1.117094821338729 1.4538896750321348 -1.983321210701797 1.8252063367025146
Ni 3.1025745125264446 3.8175153493614804 7.18219515110374 -0.6327819123335554 -0.4172314219246234 -0.815356719147415
Ni 8.34409448112785 2.808589510051287 2.121720584328731 -0.44731512868388124 -1.8555733790301463 -0.8475538727052498
Ni 6.715545690981509 6.824649143561719 7.88103172496331 -0.10870084234252894 3.026916043028142 -1.137486377570183
Ni 2.3091060239728565 2.0802693981791354 12.511132997329364 -0.6808846813780532 1.509313660328394 -0.30039972294484396
Ni 7.589790607707628 2.82930093016524 4.417825278886989 0.46558101687260467 1.2498538701310218 0.7564499175088779
Ni 8.15325083903769 -0.020580084010128608 0.9871656200937543 -1.524159209981659 -0.17436938818493194 -0.05300329166990871
Ni 3.6559152498136043 5.833203289292955 3.229869432782473 0.17726059368979794 0.761668742705656 0.6716652196623143
Ni 5.443125612292749 2.875202426019978 13.42237028672343 -0.7894345999650146 0.3123674368296814 0.19758619262102747
Ni 9.2770910448743 8.063054116223913 13.194868753841252 0.3726613486237324 -0.028056906137216196 -1.1025430287257787
Ni 5.784448303988212 5.734219330755648 1.6988003775958191 -0.15763947702476078 0.4866357806603748 -0.3872379608863266
Ni 5.718629073826806 1.2609494290453571 1.8388613561164289 -0.013365108452996339 -0.15283897031232388 -0.09719978368146487
Ni 9.41807421071385 6.693114618285102 7.8758179651006825 -0.33711276209516133 -0.5901825896057901 -0.28809210922208445
Ni 2.489348291351404 9.060216398033253 5.9704948712645685 -1.0302248387773418 0.48054175194749504 -0.12094674958941752
Ni 2.12995979889961 7.1303693576160425 4.727900371376768 0.6990502965434864 0.023448975051559618 -0.28070455850876175
Ni 0.7123141147585397 6.402323256320216 11.520185086418268 0.12202121360051889 1.468406380591071 0.21507097966935215
Ni 2.3968744461619598 7.128044992037561 7.363328425287372 -0.05888520437198246 -0.32253486428098643 0.40064909208591
Ni 4.0025669747865615 5.798479535224169 5.573988339225341 -0.8936568377108997 0.6368877069718129 0.7228695104502711
Ni 4.836220531654312 9.140955031643532 5.853127637648016 1.3408020164758199 -0.5875245831576527 -0.12735959509429678
Ni 9.468671680928367 4.555208512672063 10.467366532237016 0.5084425921228212 0.20088568930790562 -0.47913073053258126
Ni 5.091390518696933 0.12858938401315056 13.551049432821927 -0.07380685867882127 1.4078368465381301 0.43225206370317165
P 6.56153284980567 3.125922103357457 6.366793533211412 -0.734516093550264 -0.6383455224642619 -0.10652646039902945
P 7.376714314372882 5.164277331999413 8.701204906339921 0.2940439559301452 -1.963691352286012 3.8672404878644877
P 4.093425102439744 0.3410146660131103 3.504693537060055 1.995559661749518 -0.12264059235207267 0.19564346707235986
P 7.600760479401195 0.6896978487070986 2.970934162475522 -0.3884764612791181 0.7459734434575862 1.1989827943127676
P 4.597217168614872 7.168740286942121 7.242931957506343 -0.19555964910930193 0.26887234176052405 0.9390884876811375
P 1.011335242653742 2.030909699878363 2.1265743509859107 -0.6441212486057746 -0.355147250999369 0.3691224822325385
P 8.942779244476535 7.735176840049508 9.701182883037015 -0.056118697370438834 0.055328083148343414 0.7272031048286185
P 3.2659037132973383 6.140756539616487 1.198763201180401 -0.5286674038101282 0.25396637118296905 -0.5322258105853479
Ni 7.282653097568864 7.214263837174341 5.541434937893862 0.6806905630893761 -0.17063383240189967 -0.7676000205884264
Ni 6.310047832582593 5.239337332631368 4.937437203956639 -0.1802901245447411 -1.0128143566103782 -1.3288155335379048
Ni 4.626318981548712 3.9675314155791983 2.538749563670653 -0.18818675368399848 -3.2066770345422904 -0.26693424419754674
Ni 0.2632684168691127 5.873983621962583 5.558043758275389 -0.42583613287449884 -0.8840941337231291 -1.0568146734507284
Ni 8.290530137776573 5.075667980800209 1.4718667080114727 1.2804512833019046 0.22797508932552993 -0.4439269289379386
Ni 7.512472381981132 1.890776911689475 9.297651286739246 -2.0179100044202603 0.4959650284811007 0.7264610844562714
Ni 8.614174422978783 1.6141490619284287 6.494988908913088 -1.8794653551563956 -0.34221434498778486 0.3362511854258145
Ni 7.136293655249003 4.1446650802125395 10.707632233655664 -1.1645968606337298 -1.0638790364966775 -1.4480334733616738
Ni 2.849095832144589 3.5954061556485684 9.432692202528768 0.09324028481308458 -1.890981326215795 0.6582250349970084
Ni 7.349341602662059 9.241394080827531 8.254748135964737 1.9100483701495752 -0.19070720611300704 0.5152045934370031
Ni 9.000614373362259 2.388455707420384 11.140328948779045 1.8454401472508861 -1.3356829500816998 -0.11029672607473909
Ni 5.186396599557243 9.157329525739097 8.868660328444648 -0.47474957074575014 -0.7746381583821305 0.5154994989696026
Ni 8.892720346774105 8.898342287909053 4.296392295236205 -1.1046693310401619 0.7130262991076042 -0.4343122886663101
Ni 3.0845748522540535 6.772256431640245 12.290352282479601 -0.6854465897171228 -0.006639359693388566 -0.88264428865048
Ni 7.144504523898193 1.3812967638954596 12.291831939591757 -1.1958041394744696 -2.102617054951353 -4.027309143156032
Ni 1.3793975871423099 6.277204357985831 2.698986224385298 -0.6526272291942566 0.4151686258583237 -0.5367856620418884
Ni 4.96914400709368 6.3237861559611 9.403194491555341 -0.30532981325660963 0.05433152356302902 0.5005721882358088
Ni 3.0570604109347874 8.03329089845067 10.312356859481786 0.38177488088922634 0.6449905385846053 -0.05905155474651765
Ni 5.7386034999768505 1.5144753526300279 4.2758282739150335 -0.4967507576071896 -0.6940459013503595 0.4682089414137549
Ni 4.441399637091512 3.538969425566158 5.2168949215662845 0.8651605300434198 -1.0233875041405345 -0.20486524278094392
Ni 6.705766347998871 8.068543776390978 13.147780508731808 1.0464281880100816 -0.7920440125634037 -1.0256235925599047
Ni 7.463575667067943 8.992488542478135 10.689972724443537 -0.6878472287388153 -0.57730187698838 0.2616195168528526
Ni 5.312450913307359 2.618747423860798 8.458422087075308 -0.6084394789334489 -0.4139967170374096 -0.1454208234713818
Ni 3.3338205416637146 8.738291765413496 1.6915957891665812 0.9538800441680152 -0.8041508231292667 -0.6210648810069432
P 3.583963851926854 1.3656403664826764 6.74360720858937 0.7509500707365713 1.0773415897594867 0.27608068658350515
P 1.7896386631038192 5.201155376116548 8.424250133615397 0.8146733199271453 1.4249573082685008 0.34970602537913964
P 7.275850076363552 1.8793912998111384 0.3088609421774427 0.17518571343864023 1.0720134926783538 3.463713302899835
P 0.8146003731725919 3.9361146857074396 12.464473720501479 -0.44393078559268057 0.17822707136812532 0.2440334283399733
P 5.1446336082690705 7.849892785124101 11.032670193340905 0.7487093543315105 0.13799187799716237 0.10519925694717365
P 3.3687427171843223 2.8805503565785995 0.38646735144110883 1.241292867934888 -0.043040009809609744 0.19627672978098454
P 5.527983853188468 2.571079032220791 10.779239701025922 1.3901422574718447 -1.0010970681734501 -1.064226649644083
P 1.2049756823505307 0.14367697326404508 12.173372443126128 -1.329849374119058 0.6187220918063796 -0.6999383555753946
