# total energy = -340859.9380400107 ev
CRYSTAL
PRIMVEC
9.37621533209552 0.00000000000000 0.00000000000000
0.00000000000000 9.37621533209552 0.00000000000000
0.00000000000000 0.00000000000000 13.72303890088748
PRIMCOORD
 96 1
Ni 1.522059774529676 4.740445660290409 1.316238723014197 0.31915643472705674 0.1335317853432797 -0.4856014258585895
Ni 7.457410306724959 4.628943708495896 8.484927233438412 0.11659927125399919 1.1546945139183533 0.27367104870074804
Ni 1.5096456655340542 1.941767297921687 10.55183700110539 0.5975236033518935 0.9137744343963812 0.23618436460919973
Ni 3.2838224920148456 0.9419720892267044 11.308607273780567 1.8516786719614304 -1.5263202221887198 0.8965722115854816
Ni 2.4815935149261685 6.983789545625375 5.4630865094428795 -1.0415909145224385 1.7805920404272497 0.44093622174073094
Ni 4.937224289815421 9.302508825383155 13.141167917401795 -0.646495405264906 2.066626752899673 -0.6864724598784758
Ni 8.539106755659184 0.6028559488030235 2.035566017696084 1.5542056357450782 -3.037713904974594 -0.43914647683015984
Ni 5.459132559470482 3.0900723800167107 10.434792768474539 0.9335323337495988 -0.6177399303987684 -1.031068931945192
Ni 4.827710095654648 1.8262898308596935 8.302699552365292 -0.13260798797742968 -2.5196245337906285 1.2492401478064228
Ni 5.891310449149636 4.956951846708765 6.723163578331717 -1.9268446157713075 2.4935517479629765 1.092413910711577
Ni 1.4926840921404894 4.46787908287143 6.678604990582553 1.6725483720527454 -2.140799736668661 -1.9023875111702078
Ni 5.260319291235462 4.622783535074352 4.442010104987049 -0.020390647841210044 0.29369377167957805 -0.6302025816421534
Ni 8.6261742905031 0.541668643301793 10.655116012122592 -0.7806712519500878 0.8098779554210309 1.283765435276802
Ni 6.172006205193392 7.537661333079587 12.25323283192401 -1.3561538163415419 -0.49481214582358 0.10264897972149419
Ni 2.043836777171188 1.4871239964951692 3.3993065224275165 -1.0491766972894963 -0.11863944161247955 -1.0931394760236917
Ni 4.691651836111243 2.859492494502864 2.6515383540172155 0.5133863092813417 -0.2235245097533441 -1.0081336633052573
Ni 1.4647992279766076 7.3727993402774565 0.601063216446556 -0.07662555907453901 0.27116113779470075 0.7255629981220343
Ni 0.477246543538108 5.898164462499937 5.18353465166005 -2.6495773435333985 0.035057248714449304 -1.295916211706723
Ni 0.811189826006438 8.151719046245955 11.171472624726063 -0.23707139519984335 -0.2517883896950438 -0.2533279662680218
Ni 2.4015487653071177 3.0424787113899914 12.608453559667087 1.1054221500457864 -0.33462727666914627 0.6117929687867141
Ni 2.6679270406587925 6.934958216585195 10.61663696234379 1.2033510985837923 0.09536401602430673 -0.9234299552082742
Ni 0.5087909445154273 9.17923972344551 5.085620711010896 0.74173806522 -0.6111237106338314 -1.3683202765007467
Ni 6.152569310972905 8.490575465507115 5.831001695017657 0.2666282829213537 1.060489294088838 -0.3916672003022738
Ni 3.6330115004853516 3.620503629337195 7.318166946859942 0.0611500891467592 0.17004170734385554 -0.07709427118084143
P 2.8867210235990015 2.9938067780091204 1.1290969675267226 0.6164304675587254 0.4529838969338843 -0.06070323141732771
P 1.8092344953135937 9.398155597184015 1.6850652767116143 -1.127701016048645 -1.171649139494821 1.076026470492489
P 1.1938547357964824 7.613739943646412 8.88218153416289 1.078898135613329 0.872009177534137 1.484811818532288
P 7.676879377163418 6.297985033339295 6.588760220780552 1.090193248911174 -0.6937016306370634 2.0719093414548513
P 5.2214079979334755 6.489381715308803 3.1538147041745175 0.500234602390732 1.0174860510544346 -1.0339030589598774
P 4.653096838988888 1.1264116194781228 6.057185073199143 -1.6862055578248636 -3.690058055710794 -0.6866673494981013
P 5.1834061975110775 4.9356022045765675 9.149657764320747 1.6649990989505774 -0.17534126517989804 -0.493334275726473
P 2.156782666114739 5.694241156951766 3.8969313321975614 -0.01032400763382738 -0.6003399897547661 -1.5003726490850224
Ni 8.737601232575585 7.99720839508368 13.202702142867405 1.10668044793292 1.8726269920783232 0.676951407761918
Ni 6.249209961590635 0.6193852786734025 10.62721708363583 -1.2471020184174975 -0.4309040343157095 -0.7135513183731388
Ni 1.188782203344344 4.502064763685658 11.199784106683977 0.6431352305434215 0.3732573303365184 0.6499252568820614
Ni 7.261597427371056 1.2788595032846304 5.939522947983086 1.9289264380010007 -0.3775315322318401 0.8191197857342732
Ni 4.686504293937077 3.8799997626928073 13.471810772100898 -1.8030542260855078 -3.9694315541129574 0.3208739316387958
Ni 9.157702557008243 6.1332168026897 9.9172425636693 0.22010957053452415 -0.05162775147862076 -0.3776680578097044
Ni 6.583987727216526 8.152122223501856 2.442879122144505 -0.06286501495533689 -0.24058300789752757 1.1992992971119216
Ni 3.6398842662661606 7.462904768863504 12.962164716754351 -0.2640636075179711 -1.5206874493829745 -1.2092304401827048
Ni 6.8464654970227485 8.869693353066763 0.30311991244400416 0.7386874513191344 2.9946520407881136 1.1101707204743656
Ni 6.514800634861017 4.803631974883684 1.8051417773554448 -1.0590111668814148 -0.15300094981148488 1.591927318665568
Ni 0.5093797708333465 6.179047742848763 7.549661013361004 -1.9732669117895887 1.364252019968644 0.03368530806758715
Ni 8.204291485172279 3.947846056267067 10.673243986693691 -0.0947693198631013 -0.24697219925332303 0.20308578228301796
Ni 3.6635779622117317 2.992634751102434 5.104764129693947 -0.21541010817632578 -1.5407433395925851 -0.012578350885642851
Ni 4.258058137928812 4.996078792961584 11.042023659314841 -0.6767642314517763 0.9108639456178056 1.3396627606650542
Ni 8.510771833163135 8.418219212395927 6.809467889253999 0.2819263467310048 -0.0345445707440889 -2.811024367229707
Ni 2.8604769971044806 0.06660019456707084 9.161734329567244 0.3578597648345256 -0.79158867019354 -0.325781139132426
Ni 1.0764176397465097 0.733622272457359 12.411473341514125 -0.17991191526971595 -1.1576695373862773 1.1169530335035216
Ni 0.09812115500625634 2.751947305545324 12.990845621593254 -0.39475920896403627 3.167931795453293 -3.8700098230795095
Ni 0.0806645174473071 7.745907073859619 2.9252028862423787 0.30786929184901174 -0.47570370712890325 -0.37063069134694876
Ni 1.532542383183079 8.701577813571673 6.997089706962452 0.9102242551512775 -0.7506446236810105 0.7957525717632424
Ni 4.673771393622836 6.921334575821873 5.134488607290565 1.0996153135560223 -0.24782477706160544 0.004477576155379386
Ni 7.1184882539570244 6.643348545986377 0.5300674521686487 1.2335476767718303 -1.4460228706895484 0.19698224048844137
Ni 2.9829960018218453 0.9170932396730918 0.22359366752847087 0.19773943036944008 0.6696052518094919 -0.1330389048672612
Ni 8.902782016696333 6.012207368628147 12.186401982461703 -0.4418474207010907 -1.471449538292769 0.7057799019578361
P 0.5280881331286368 3.360698080878217 4.992784928543032 0.5716382509446993 0.37197614963124975 0.31558028734002425
P 3.1219515118785797 2.55309653244929 9.229319964357456 -0.7555739426618278 -0.2480860011427921 0.19410003384463992
P 8.521695123933451 1.0878941272167824 13.634991609508075 -1.257084840661822 -1.6495218292505849 -0.03598644539693802
P 6.7599699113092955 0.053817600311986756 7.719593663372221 -0.051501510313401624 0.42215585580943427 1.166950448467571
P 9.21928553879317 6.071286900940392 1.3591911650904387 -1.754524139695604 0.7525264140847555 0.2993519984066199
P 4.642501715752444 8.410708863977879 10.546470993115818 -1.177375757565953 -0.39265990323284633 0.7865400520260389
P 5.181409063662083 5.7534800849233205 -0.015304796158273107 0.7618816300474104 3.9615745199623835 -0.7731443474454234
P 7.9020116816149875 8.970637686485846 4.093033936602797 -0.5594573926077914 -0.4301062210047624 0.5122807349219887
Ni 8.142896027692421 7.974161657990599 8.830363880564471 -1.3197698783958691 -0.2602028390109841 2.9426419662694094
Ni 6.500989469792625 6.251825925646359 10.38097141767645 0.26644984836196045 -0.8523713486985515 -0.9265515315563914
Ni 3.6647031080421506 7.997161514007413 1.508326432047888 0.41220285836178044 0.5598101479615198 0.4971976153366211
Ni 7.089797035281343 2.1080263467965863 2.281908258672574 -1.4138789389671522 1.058571508240835 -0.9152307072269334
Ni 8.914549166839464 1.581654998680864 4.127327443892439 -0.440064617769055 2.303589133325478 -0.14543033655307858
Ni 7.244785873421546 6.590710473553279 4.63636967097666 -0.4084647314755869 0.24014592036010898 -2.160177112754009
Ni 2.6576694611714733 3.684533803303284 3.267990752559326 -1.7652122155370698 1.6285421416751242 -0.6833004899083974
Ni 2.3312177746906824 1.535298990467605 7.094220733637941 0.7750284518420136 0.1787837152025437 -0.056264736029999866
Ni -0.00447620516201653 2.3321553962160317 6.991847465014226 0.013902211903388962 -0.060409097215676597 0.4740558871128352
Ni 3.9300781283617026 8.193658857074821 7.194948476484667 0.45382233367477975 0.07019394451658233 -0.3967235317792587
Ni 7.563830349852079 3.3596573209850797 0.4163639650326159 0.5710319848192682 0.32419682536444167 -0.24610342349512454
Ni 3.082440140800369 5.230315402424291 8.729952116171786 -0.1406308582819062 2.02038520543363 1.207107737412747
Ni 7.0241916571526675 2.1131457603249926 12.276836516203147 0.3729639674658157 -0.005315755785958587 0.01380219599041494
Ni 5.602832434445483 2.756785432616125 6.454219970486688 2.7051537952471216 3.0434078700355784 -1.1521208396539062
Ni 0.5059096335680295 0.3968361215241705 8.82829173699345 0.11665737818544424 0.5254373269086048 -1.3080132520805732
Ni 1.0250922374489007 4.253351277871559 8.85779587353161 -0.9385292727435578 -0.8541644360432322 0.6746333011517027
Ni 8.74197054888371 4.301601281566024 2.652224692973771 0.6163067974966676 -0.30347090567099994 0.40221257991828796
Ni 4.075643870172147 5.275011820537682 1.7404796464812706 -1.020997663752119 -0.07346413062742187 0.731384747010134
Ni 7.8099841289019745 3.987826238107952 6.077796807190892 1.2930478890199923 -0.5141054468355533 -1.6296132632521163
Ni 7.111531102238934 2.233498859318801 8.33453649125852 1.3757132265307084 -0.7722298060509539 0.6245415267016341
Ni 5.892923158173236 1.3613045640085757 4.106962304361858 -0.18404804892527657 0.06789614962134113 0.38261666006423134
Ni 4.537694381648923 8.927703996840112 3.599443712256329 -0.7559061291902659 -0.6838972429521318 0.6297217853509929
Ni 0.7083383704047955 2.204010662346572 1.2106503501800605 1.5651685625144849 -0.1765640818434056 2.658212907721209
Ni 6.55313997903254 4.594758027681668 12.325045264550496 0.7479418800378668 0.7956571838359587 -0.5289371125317471
P 6.986377381035339 3.54840053403785 3.802009341835796 -0.042005397897508304 0.008449930539566091 0.660769655795733
P 7.93057163327712 7.838234665460742 11.19959189427128 1.0156217441521862 0.24637493198895632 -1.7310797926297348
P 2.7644833053392412 0.33369106227801104 4.910103587194699 -0.10722322935573791 -1.4799475484614513 1.732465874343984
P 5.1076182496171105 0.7658877043876716 1.7485206886826645 0.5926770738928696 -0.6622755509172982 0.046881237932570874
P 1.7949638956977807 6.212736484254556 12.539152077485484 -0.019670996066366124 -0.4502767824153665 -0.9708156435810894
P 9.345114347495016 2.5361630877014854 9.475662205333947 -3.7457131831812527 -0.2261809735395847 -2.270085345141078
P 4.856926382384526 2.0148830244684084 12.199479927497272 0.17055798485864174 0.1031950820329513 0.8620206988628573
P 3.7669507353814686 5.872876809961273 6.7503077214905725 -0.29987033280393516 -0.447010710069585 0.9887267195335552
