# total energy = -340856.2189965031 ev
CRYSTAL
PRIMVEC
9.41174571999458 0.00000000000000 0.00000000000000

0.00000000000000 9.41174571999458 0.00000000000000

0.00000000000000 0.00000000000000 13.77504121504523

PRIMCOORD
 96 1
Ni 5.713560286834856 7.4694532300405605 5.970240241783232 0.008030583613960363 1.4223450674566342 2.704449827201562
Ni 4.879557256366559 1.7274788826391545 11.342864742929772 -0.589880484984339 -1.0214092973682407 1.3845058851216738
Ni 9.739274552589265 2.07060289922569 11.430253743846126 -0.824977787176947 -1.2205556353875366 1.1285772480060112
Ni 2.461049173688548 5.146521425949276 12.912778765627621 3.1468464355379027 -2.954233784872067 -0.6889638588417619
Ni 8.849779868891297 6.080608961241919 6.5203878424837205 -2.5449794676156494 0.4196647139564644 1.2171183275712134
Ni 4.915114831994393 1.7852858253353305 3.6603455879724325 0.9350636827924607 -1.5886964704330961 -1.6677059563587793
Ni 6.834621564166287 2.782450880971473 10.519971337202367 1.8552424780532886 -4.306374366289158 -1.2835420064120864
Ni 0.8275211611366683 7.372954600365553 7.6759629328339 0.49833070049979983 -1.7084664261055933 2.578963794980894
Ni 4.636376568417389 8.65634025748874 9.810281468768247 -0.8624667852613404 0.5491102450455124 -1.6569191501559206
Ni 0.08069724965341672 4.171784560551653 2.984762003963972 0.27725259540441927 -2.8298463850322166 0.7164805762047919
Ni 4.473120425791555 8.424368958785928 3.983494115275613 2.02021191308056 -1.1340508695260727 -2.026393873521555
Ni 2.92980117319735 7.097453977343334 5.3114632122476735 0.9912849671790347 1.0974800123805744 -1.1754209478324273
Ni 5.401062091077587 4.016443696142602 4.179925720667607 0.6578951624614153 0.47116853826271116 0.25027658103620765
Ni 7.185594976749014 8.430016006265204 2.843733581391143 -0.23057910260728032 0.728181666691804 0.7866776060451678
Ni 6.160919388143005 6.535450400460107 4.088982844537626 -0.2695662825037551 -1.8083206166907695 -1.424455686041734
Ni 0.19171820309595922 9.357901201076443 8.63896241004585 -2.534192404302474 -0.3330902711993296 1.320589803194003
Ni 3.300548663703338 5.221570686948837 8.66575482681127 2.2561270831887725 -0.18766481974225743 1.0525664396973358
Ni 4.927707747873176 8.714222494151306 12.11726977547638 0.5295729463435331 -0.8815942501194108 0.9170379356390014
Ni 0.8983473717963127 5.486737213083984 1.5732608395038994 0.6340800623196886 1.892085357913251 -1.897199796321681
Ni 9.505580904405278 4.544433223708997 13.227690133007698 -0.8168351034651544 -1.8384660299258981 -0.017177025999918806
Ni 4.965373554559939 3.4651977447073934 7.4679737036009906 -1.7712316822582723 0.41485546549327906 0.7680275950441482
Ni 3.3107133491660328 5.803508341433903 1.5443065447284976 0.8380976123883566 -1.5906247978040604 -2.849430477811731
Ni 7.052851714002861 4.9692888408122355 12.726595610235929 0.6710329853949539 0.6573423752817389 -0.6834969221899196
Ni 1.1149342308164183 1.828071621736636 2.8154804616777516 -0.11928684538849132 0.06677823396681402 0.5114973197887449
P 5.4500690514518935 5.816807138247595 7.664722484826403 -0.6150688113245084 1.2395781992366264 2.1189271049652865
P 6.542132739977249 8.523851111879154 10.69327545964299 1.7404206104146864 0.694402770469146 1.1637684511951634
P 4.910663076231565 -0.09465110397470475 7.682960565835302 1.1927841217012234 0.7791026219113872 1.8197373431681432
P 7.328324101787684 3.283852226656282 3.0721510048803293 -0.2801689977202659 1.3578090925567776 0.5908796156728147
P 2.01850888622938 3.616472734931367 1.7420463827865236 1.3547034570482603 2.468842675252071 2.424888638268624
P 2.9549493579717208 7.483062614465613 13.160509091495925 1.140846038071035 -0.389136206350304 0.3992573539447059
P 1.2948962222351075 4.260951440249402 10.97066313769787 -0.29245475706615437 0.2341681055101193 -1.0054185783669394
P 8.484048838896065 1.3921760268114145 0.3384256730837788 0.9459343069583775 0.5046306745758987 -0.439460665636469
Ni 4.271106713966297 3.4409813227671036 2.0711186628954636 -0.4581088768652755 1.3116014836524637 1.8991546060552067
Ni 6.720325323185765 8.253423419842482 0.5421052639154219 -0.8441816137989073 -0.6604410688117206 0.07145584194814145
Ni 2.2174543689242308 7.112013948094064 2.8800026850013656 -0.7502139639014951 1.6214770072982267 1.4253355175435258
Ni 9.314127171366264 9.4820515399083 4.061378194109771 -0.6161522741966744 -0.03115637099814634 0.08713982834230155
Ni 7.496135529380134 3.565404602227125 0.8163174189377872 1.1265144519397114 0.1878936479236119 2.1313429621311357
Ni 4.007831948736707 6.597605569715324 11.05064132997226 0.363737049550909 -0.9598606872314824 -1.1426668933298578
Ni 0.7650629336667294 7.372982835602949 4.948339235838707 -1.1012965579131873 0.3547687846140277 -0.3243230665296608
Ni 3.1088031665445626 1.0706896138163002 1.6464484571844602 0.9196283220739968 -0.01260817568231377 2.6025942899156402
Ni 3.5725575290342064 7.416126278344609 7.602776256327918 0.9401812065246841 -0.0767605419905065 -0.022256497405355218
Ni 8.932659702395453 8.026186229276464 11.367039753188545 0.47312797598192713 -0.8133864827949218 -1.5307258074555832
Ni 6.490170491422122 4.697439975159947 6.317027309834657 2.569394920345536 -0.7446799214571432 -2.150179121001032
Ni 2.1916191267065486 8.046581482422445 11.206023606062823 -1.4085711536009935 2.958835031089504 1.8826517233041768
Ni 4.954135930076181 1.6628672477304518 5.897536387836729 -0.6096880066285693 5.072108537313439 2.7852223185649385
Ni 9.26587315065586 8.180755330530014 1.1041784877175596 0.2360172429037161 1.4088632309201157 -0.15137858371671348
Ni 1.0639225685869693 1.8271586823941532 7.84236542208027 0.4846583452190298 1.3876446878609714 -0.4606200733229035
Ni 7.788360824686806 -0.053866244730222404 12.662665385723061 -0.9132031352739434 1.3980555987816503 -0.305258593699042
Ni 1.022030888036549 6.537248043907676 13.148235233799722 -3.128850770291431 4.870750536354805 0.03462787448651456
Ni 0.8530467569175704 9.502004441001736 12.78056632534452 0.08058634349449992 0.3226425935034444 0.6654421215707379
Ni 1.2579080612458573 2.0121088990862015 5.342635855507851 -0.1283713241882628 0.06435831167141175 -0.17137302456076936
Ni 4.183972771361088 8.11045900115884 1.174373170234105 0.012812835493952127 -0.8698957307355599 -0.07541379815462496
Ni 1.0759507797178247 4.653618886720775 8.602154954575937 0.037328818357445386 0.7895680402190854 0.22508851180635428
Ni 2.3232329799568467 2.905029458254931 12.063271766304974 1.0440630302120149 -1.3328346819996273 1.2151488625496687
Ni 8.227475236675215 4.936884200026998 4.5888792520692085 -3.3326065820582795 -1.4106668597877576 1.4097132376252368
Ni 3.836180528858351 1.7696905625467334 9.243838371391732 0.00336660247938775 0.5451931693792934 -1.2161983868601054
P 8.71667895980479 1.4800911443179243 6.256141785087696 -0.8985519610196718 -0.4298128581340597 0.15319892475490393
P 5.403283263086102 4.284810215849338 0.27532838807410187 0.157262039080684 -1.125805598798145 -0.16695098423367374
P 5.301466997034776 0.13982654263432323 2.2988339701480602 0.2705204188869083 -0.03741880696809039 -0.18471139354088834
P 3.2624122697266356 2.4911855837362777 4.693707276776147 -0.36897130136665485 -0.048531886162116414 0.07251050846490092
P 2.534780790276279 7.108371602469931 9.500935266678995 -0.1555669107664482 -0.9112663232625468 -2.6191462807370502
P 0.775983382317067 5.13130263299263 5.194788623103796 0.05879187332722778 -1.5529085142002095 -2.4272139439676907
P 1.4704817518573583 9.036461846810322 2.139111938069672 0.7655919890194621 1.0984323489915147 1.1409661085886673
P 6.23040630737548 4.5567908459428095 10.612126446191233 -1.6450887331798958 4.46192970709138 1.008838659792082
Ni 6.2889473662439626 5.5004407149670245 1.8415577122917242 -0.04970250943144989 0.4091399031657405 0.06195510154655782
Ni 7.983532197316341 8.791144692564828 6.910084000806415 -0.07320676320097715 -0.752059501750666 -0.5700986743717215
Ni 4.134231694814475 3.975427307951469 11.150344659091754 1.0091492490539653 1.1775287382040494 -0.5089825237866912
Ni 7.116277468940916 1.3916301455550846 2.0595064509289145 0.3552002157244915 -0.4310912106258511 0.12094469270688847
Ni 8.436208935000808 6.38903187106831 2.9752711995004706 1.0054298912208492 0.34476719331662564 -2.958438309871718
Ni 3.9337709210460186 2.7520697655329744 0.07429538016107887 -0.15053654743139236 -0.5237337139539366 -2.641881517551037
Ni 5.440450247245528 0.7690384550921389 0.16699637040627405 0.6149163449070443 0.8346186527008206 0.2626441014626251
Ni 9.17399568816806 3.2573299269952884 9.608311992148243 -1.9725349187195702 -0.5416602165253703 -0.6169526586107826
Ni 2.5208796417314647 0.03806204118489201 4.157266001482437 -2.726684470230046 0.8213340197767726 -0.6724558338844097
Ni 2.403477524637341 9.3278777319783 8.599840606284014 1.4840127196697603 -0.4740659144151642 0.3282720238750798
Ni 9.14651339043559 5.593033470135533 11.08193820827698 -1.3176309776759951 0.5457228166305182 -0.40385371506613676
Ni 9.06054650430943 3.639983275936747 6.697328663500998 -0.3319422736378154 -0.4191818607827749 0.11135833457003401
Ni 6.67667364617097 2.135365122067173 7.96173929991924 1.370867982623265 -0.9378497301780301 -0.16746160532150517
Ni 7.219646673049041 4.633788338322721 8.518389475792114 0.741206361086246 -0.03453248655923086 1.0219767398359365
Ni 2.6740275693693967 4.5982401744406864 4.013358525869758 -1.3628219723903368 -0.9256668149585929 0.26797322698502235
Ni 6.242029813436988 6.6133702439282995 9.692560293491546 -0.25917568329805046 -0.2690446056723302 0.3677929647878376
Ni 1.4428018074631128 2.3260470919506853 0.4563633185138531 -2.4552626225747907 -2.539305042938691 -3.1893655398470364
Ni 6.897774378476177 2.353331743021381 12.853132767802359 -0.5246662530705352 -0.4952556611189019 -1.1016948217928704
Ni 6.5900008791099 0.6460664668342911 5.275097167655723 3.456084839820299 -1.8442283863309723 -1.1404122929677263
Ni 4.3179207375694855 5.437862017150861 6.013191684910597 -0.3841711490355448 -0.8750700758476477 -1.6066042039514525
Ni 2.122762794442591 5.359264527985155 6.638770663490078 0.03391027959419966 -0.4951317339465279 0.8720778259885432
Ni 3.280247528015345 0.32958051438207475 13.422620564944785 -2.02185690488315 -0.015810998890327606 -3.4583219566809347
Ni 4.801628001152567 5.997992656620127 13.014590325806045 0.10848666944919383 0.7698199110578807 1.4012249976485676
Ni 3.8855733708104085 9.332498899165506 5.945073233517264 -2.53197714181871 -2.8575891023631237 0.7633559006000917
P 8.383409041069589 1.0396496761718865 10.041467827871438 -0.5431337157471033 0.11208081455835536 -0.2198565739834536
P 1.6393849419624675 8.771445908607957 6.527799592300269 1.9246571212016854 2.069334124528507 -1.8967930478015655
P 2.7722956072545775 3.3178474524815167 7.528803699047739 -0.7219585686002276 -0.5282580841868515 0.7930338872804987
P 8.033969743052065 6.617539647317165 0.7023148244261875 -0.4273340575762641 -3.116554212312265 -0.5249578161690249
P 7.9696781075005205 6.946395457272732 8.413891803362715 1.2617189969997238 0.33736807263907703 -0.2995905967799873
P 2.628615895890229 1.072826080112626 10.978349710491743 -0.21419757592546335 -0.9692213025107761 0.013753859250982766
P 7.9718804560174386 7.441679168188328 4.72358580498899 0.10303207409252578 1.994072021460398 1.8498971545809753
P 4.2584008571379295 5.762294306580997 3.3630520675531113 1.4738920862959906 1.5884200768432581 0.8408024129140292
