# total energy = -381178.2563685195 ev
CRYSTAL
PRIMVEC
9.13505351885455 0.00000000000000 0.00000000000000

0.00000000000000 9.13505351885455 0.00000000000000

0.00000000000000 0.00000000000000 13.37007421020557

PRIMCOORD
 96 1
Ni 4.858432435277165 7.366388245044791 3.505459784528275 -1.2240878169105114 -0.7647131859589346 -1.1794295547711882
Ni 5.259744462868213 1.8948018955854145 0.9162421944087573 0.8054636284034193 -0.42310536420689715 0.5017700651986519
Ni 7.579664335007874 3.972505828830522 2.8670118211963316 0.17726445034453986 0.2542859593059169 -0.5985402175418659
Ni 6.8969378547075815 6.298189919617834 2.308423407530995 -0.6344551862709202 -0.11127425949665998 0.7749466907614848
Ni 3.27053179117587 5.9316915802458 12.330617386892326 1.3566505534723023 0.46734016565555647 1.475258627626214
Ni 5.950171793120915 8.138245440630552 7.083852921292652 -0.0402930431920919 0.14407253697360348 0.16420170362331074
Ni 3.983321731966526 1.4321571199748286 5.06505181188281 -1.3455289896378437 -0.4626520161512678 -0.6824669382635085
Ni 2.534045522061907 3.9328505623496146 8.93435163526574 -1.0253435994256406 -1.194989099772342 0.29436097294993174
Ni 6.069795316402988 5.307073174141555 13.200982430000979 0.8914845126499291 0.29907946147152364 0.0725228497600751
Ni 5.232759515348149 5.892429121057838 6.334513632151359 -0.2609638855467248 0.6331416096658193 0.7857936607783177
Ni 3.4676845120215143 7.452833254652906 5.559263677760944 0.20496320181138894 0.7132533275167457 0.41915512130989746
Ni 5.4676400064232675 0.8334713032476871 11.165536339928877 -1.046150508868663 -0.9731270653230852 -0.01729092586996377
Ni 1.373491807525995 1.3632148725361262 8.241139940759783 1.3562780006242319 1.2045533464220095 0.19823179662482635
Ni 6.036708153262273 0.17237662921940233 4.279051726740325 0.03869073170197853 1.853661506719414 -0.16020492375909182
Ni 3.6046646366198107 1.6229427086534167 12.59073254927057 -0.0356030939155903 1.687827666809319 -1.6767328424477381
Ni 4.837266516724697 0.7265756497623995 8.774753118636408 -0.4574362762782831 -1.6426035048641967 0.18374620141414164
Ni 1.4265481972336913 5.597065441922345 5.597408006422007 0.08486825869930545 -0.23779490362942918 -0.11207412969013601
Ni 3.332193401115083 8.306394367171455 11.798728907083335 0.6430822658182989 0.18390098182445103 -0.7537610578228051
Ni 1.4971438893240974 8.315081802882892 6.996639653699961 1.6082494528643592 -0.4376760629322204 0.19434608841717496
Ni 2.446102363708602 3.3947685163867294 4.1621979516261876 0.3610052524420428 -0.7883156558692229 1.240243600734767
Ni 0.7562015411985273 2.6580173307263606 11.195725864155117 0.7402419402904478 0.49026335011063304 -0.8976477040378477
Ni 6.970977461901258 8.791721480186348 9.61922028557059 -0.8231960126861758 -1.2025023774302517 -0.5582273768554321
Ni 2.1589967727783015 8.6836355292529 9.540938359613094 -0.3301072773116057 -1.360267324289283 -0.08559048157731065
Ni 8.065064528449362 8.403408633475816 3.063792745371676 -1.4984278666538258 -1.1694552171672956 -0.7889309208557188
P -0.03917293566538284 1.0295387797584015 9.793579221361371 -0.24894372115739702 -0.9728979800314148 0.4703936077698995
Ni 1.461307075132759 6.080666029858939 8.041511620463247 -0.5022973984570317 -0.1253235385008745 -0.025277800730182272
P 2.609537602734153 6.871980889025517 2.5067819554154505 0.24730335734049666 0.33129615541338425 -0.04792073494067876
Ni 4.589770517008681 4.748245422079122 8.649474997346575 0.1504128773693345 1.4632310070377186 0.289400800731179
P 4.7317109755620885 2.758411566760724 9.474863605412896 0.2137455759897093 0.28184664253300495 1.1583166840519727
P 4.671428758674849 7.6351689190064915 9.879227654319603 1.3608702479806047 0.4670236628564021 1.299121091797266
P 7.0728333064675155 2.886759065967531 4.876627634488561 -0.6007354254209718 0.24473328262047528 -0.42545843782010595
Ni 1.238338693592564 7.388659505049503 11.491565479568807 -0.8367264430724428 -2.0607695227879477 -0.9274401048089318
Ni 1.7804949733380997 2.9124833761288387 13.380903699760943 -0.2646379919642023 1.3864429542433865 -0.4227448955436849
Ni 4.454261135995602 3.856947404277774 5.749479239112093 -0.729355632395247 -0.5754648237796411 -1.5202490762939753
Ni 4.036834874340439 0.26610136282167407 2.7699582741626747 -0.8269971315998208 0.8120685353144466 -0.19439545359787164
Ni 8.694972130428392 0.04066651688391045 7.686268580292117 -0.6834323875005714 1.2996381406430004 1.84741501158907
Ni 7.058673973814806 1.7473347297707895 8.582504094415263 -0.3703656106110202 -0.008498010168682138 1.1220751852214352
Ni 1.1296863693530081 8.95946846438098 2.651620052883334 0.9319709027997497 -0.24693646091938115 -1.3432430218171447
Ni 8.506543385507479 5.189843034830456 0.6987183046498616 0.9652443201408989 -1.1827411356429243 0.3467109473065577
Ni 1.46645924520768 3.4405716737549095 6.861053538238957 -0.2109415308820109 1.3092718070780225 0.06815043172399232
Ni 2.9775614960113503 1.4996834341482606 10.394871268801943 0.23191710469241347 1.0689338253117655 -0.7517260296706473
Ni 8.947812136339138 3.187987449337243 8.889361497643426 0.3028206736815107 -0.16443001758403297 0.045363258626147686
Ni 6.82593108521758 4.026795450737002 10.009251435811425 0.5473014739715477 -0.6473161013939883 -0.8995762885191281
Ni 3.1128150955313485 3.8189090422352727 11.311309866857174 -0.3583297624924087 -0.5204709840422649 -0.3745187135474453
Ni 7.590434562877257 1.7169606774673993 11.194027657742124 1.0413006369755293 0.34210455888279795 -0.8681473805858855
Ni 5.639991057493361 1.4041764516424122 6.529823812741487 2.292282450063407 -0.30221286489418275 -0.445535153965323
Ni 3.7558497691374373 7.213732368941948 8.003406572531478 -0.028592209815395918 0.252904505577358 -0.4612919025789475
Ni 1.4776405504766574 1.4356375752913975 5.8769095789651375 0.558127103832142 -1.0460957443713275 -1.5771781853808515
Ni 8.814632193923762 1.8357894511102564 13.61808896478979 0.5377853069509965 1.1274739876395035 0.1338709138502533
Ni 2.494371985474351 4.931521996925112 1.1841915785179429 -0.2027692794838637 1.1908473096898264 0.4177099042229387
Ni 5.164392776268879 5.205847648254679 10.989157643848086 -0.4235869318290059 0.8848124999463922 0.08988576651855487
Ni 6.631665041222424 7.238935981063769 4.819323444985052 2.3535256131446047 -1.4314076918795349 1.2474306054015096
Ni 5.780698283847984 5.155577449810902 4.091161949965549 0.559074812457392 -0.7412593258113686 0.6690527217401318
Ni 3.723237628769587 2.4106309516502376 7.387139432176334 -1.2906652477204288 -0.050441701590319576 0.9857334412331862
Ni 2.429175109898623 0.9309441492289305 0.9429594848664191 -1.0051992632672815 -1.8556636247511071 0.8935686488724676
Ni 8.816093802455654 0.9200003553463857 4.2100226962950416 0.1770703320558628 1.7491538765226262 1.970292145431981
P 3.4796057566097622 0.22921493100337048 7.080216256564237 -0.32625139390062524 -0.31577080608427555 -1.037731174456716
Ni 1.1086300714404322 0.5319652142569156 11.988156113332597 1.3853330090086593 0.41651074170851493 -0.0051571187209072476
P 6.893850206683958 3.4890057264804955 0.6577055692449593 0.5551896184703728 -0.9042194437180943 0.4369877786159442
Ni 5.236303916037988 2.8613362125659267 3.189217027514698 1.5321183169277355 -1.048614397028123 2.376627746379707
P -0.1408040579198603 8.753774468677088 0.11669756570229145 1.8088512923832591 -0.11091944726040251 0.955621195228838
P 4.5146347034160845 9.08486534136403 -0.03655391587729804 2.087426463253844 -1.1024221868771982 1.4834236799355096
P 8.399772882252735 5.17809535625537 8.314474321836824 0.9594184574877412 0.45645102954687844 0.04660998654905522
Ni 0.8290526779547098 4.910255592786077 10.103764524515586 -0.7526580545666134 1.1994216816223988 1.8212560938055151
Ni 8.285027477445853 8.39543373192368 11.430610922756898 -0.5145404774904428 0.8575948018810198 0.2654766858154138
Ni 2.959410145055911 6.296308098633023 10.184078999837743 -0.11130639828617604 -0.2686584259775051 -1.7594853403556214
Ni 0.09425365318975026 3.53977835285711 4.654202788621164 -0.5576861596399816 -0.276932235950523 0.8572839555088203
Ni 4.208318095344722 3.875902639925755 0.09554900375113995 -0.924745331585588 -0.3874511053383972 -1.5141010544147087
Ni 5.769626599218899 2.969623134672509 12.065796758546723 0.5062121601304057 0.8098650999052245 -0.19370305551653735
Ni 5.880023718643401 7.47200773158067 11.895034293249731 -0.4932021210239829 0.584334101244813 -0.5245132724324386
Ni 7.5985830304425575 7.237465237478552 0.4099108532852382 -0.5190342515957383 1.004889959556979 -1.0918495535676744
Ni 8.200628719782387 3.939400395583158 12.098686604535635 -0.38289948141197283 -0.21917446031476448 0.09748234791889017
Ni 7.904844828193974 6.1799001141211125 11.277056157406939 -0.45937565939284114 -1.0963610682847826 -0.102716599734636
Ni 1.1954222130748715 7.812854841217993 4.722430674889903 -0.8740853433368753 -0.1660608683192366 -0.5513674165108052
Ni 1.013561571494152 4.7159073333110015 2.8757157000037514 0.052111633093574763 -0.2697308331060774 0.9198476371736546
Ni 7.32454970081937 1.6144105688484944 2.358949387467852 0.0758313453080178 0.05557362350024622 -0.4034953032854535
Ni 4.8158813568924455 4.738260808795631 2.0002432485814694 0.7075269665559298 1.644270865264291 0.6989801054271833
Ni 9.113960486202012 7.321736104395476 9.405606198634505 -0.5770774196823997 0.06875875473195255 -0.32880527067073045
Ni 7.453134711412609 4.849955105792188 6.145046231667472 0.8779957341348751 0.21785471306207643 -0.4987037675685024
Ni 8.427342473185556 7.121139468446561 6.928947081556026 -0.2673618186532686 -1.9673564598424245 -1.0480551820905433
Ni 8.334347630343899 2.3212809950849866 6.706883983800272 -0.07835231195765861 -0.0015359770285521936 -1.2368422883627022
Ni 3.4320303988966625 5.536874575568349 4.117059826140019 -0.5839985722822653 0.006895184457936512 -0.6814778348773619
Ni 6.030569397428325 8.71373552995656 1.8543491389492934 0.37872041033361875 -0.17406496957063572 -0.8523857468762546
Ni 3.3233323993904853 2.7485913844370717 2.06761518035372 -1.2654568667756014 0.1932340862999188 -0.37705510681605386
Ni 4.602851913369118 6.975819040163152 0.7467650311144967 -0.5471706048206383 0.4253609930102932 0.6719051035872622
Ni 0.31389687531988997 6.6583393969294615 2.3003480203922892 -0.5624306163035023 1.7039502834027946 0.3196930239568172
Ni 7.085421409948439 0.5477624619706758 13.168760356410075 -2.629160470439943 -0.9383007016725194 0.06477148794943038
Ni 0.6983117947769291 2.5242801500582006 2.2872182082492323 0.4050755032883798 -0.9983308182822226 0.4555262037397639
P 8.714036986716263 5.934331610656531 4.546132367278367 -0.6026658096744653 0.6255041477252196 -0.6653107381991961
Ni 6.561498696638262 6.143734438010098 8.501414966571202 -0.38505252319923366 0.7313729199355921 0.4990588369150759
P 1.4200257691601212 5.0444952013870745 12.590518789022779 -1.8552712744086954 -0.6902766641159145 -0.7000782235873685
Ni 6.046820657292304 3.543541994826733 7.455514392803597 0.851128991651018 0.19720669779442165 0.10395278613458227
P 7.497604150995437 9.339130415593372 6.027523770649993 -0.3798884624997909 -0.40501713924661864 -1.4632785724462025
P 2.317983240834904 1.285977996678934 3.638491739079797 -0.982208201688747 0.48292439324705866 0.033370862150961876
P 3.0680076589755205 5.128007858878081 6.990556621691291 1.2188162840989267 -0.33474940406930737 -0.2443044226131728
Ni 1.7586165206263342 7.299821111470414 0.33426530371714386 -0.2037020757107782 0.5512167498655539 1.609072462986287
