# total energy = -381167.4505536976 ev
CRYSTAL
PRIMVEC
9.27061068239997 0.00000000000000 0.00000000000000

0.00000000000000 9.27061068239997 0.00000000000000

0.00000000000000 0.00000000000000 13.56847582137848

PRIMCOORD
 96 1
Ni 5.747148128995199 2.560181075426729 11.796514453124688 0.8878543720965096 -0.1462723728383997 0.21356302766525798
Ni 6.802755467955224 6.366239500394479 11.889607142914747 0.12651678747802728 -0.023700428940733376 -0.37142130556904424
Ni 8.343929574806538 4.512747795294133 4.520351550053367 0.21792361862679888 -0.11591561492341328 0.804855305395459
Ni 5.553976417317348 1.9709132581123754 8.896239176169702 -1.2118149130804292 1.460892331602213 -1.0140042631534214
Ni 3.4898100878526908 6.8144178960058435 8.719332750672146 -1.5869409211945702 -0.12445193452919856 -1.6636544119972252
Ni 5.745961490846963 8.492908286073183 4.2736355731195905 0.9963227867132582 0.5222519872020877 0.6432897538434146
Ni 6.261286918549446 4.534042387688625 13.232397600846513 0.5417358069583121 -0.8375278559278156 0.9269037726894874
Ni 0.16316645362647367 0.7102242541226471 11.216081527648361 0.023931056894300723 -1.1696668189574695 -0.37871603945824456
Ni 7.2842431672119545 0.7735925853604824 12.265467359879638 -0.6861616135062762 -2.0406832935610337 1.6594239188556452
Ni 4.828226671734947 7.612765792672817 2.0337383315729722 -0.7314145718068048 0.20950197022200695 0.5367200989112756
Ni 1.4847160887048385 8.870657853464714 13.355287887012006 -2.004414541036987 -0.9717612953238104 -0.4531456193227293
Ni 1.820377084276174 8.247978755789129 5.162234717448234 0.046679920555042186 -1.1717442703117884 0.8460412927154655
Ni 8.888559402404097 3.3545982332276756 9.898039891595717 1.0412019066141358 0.5169344316439162 -0.9199949613847962
Ni 2.9177577942982724 4.653642534175929 4.50778709159788 -0.10025528267833701 2.634880660753172 0.3690908576636546
Ni 0.7554843018062115 4.8657170207307345 8.163704270738139 -0.894095467910215 0.7575464930071663 -0.1801785386675413
Ni 6.521290461560292 6.252489109153551 4.3083438118943995 -0.7408438355405047 -0.8899678188950866 -0.3012821255497972
Ni 4.909974915415672 4.906099800212844 9.048124223838467 -1.0292771301520918 0.03211307848446082 -0.9742694064576445
Ni 3.927976224088325 1.1840609185064244 1.9323818195537226 2.0550917556768797 -0.12631058500449213 -1.5978010038375257
Ni 2.70975310576749 5.478448753304321 10.714631422730745 0.06540217955489382 1.1021177682629018 0.3810578002175437
Ni 9.180324057101284 0.1953883146563102 6.509475995496931 -0.952198028479902 -0.8949845553833876 0.03671046804715613
Ni 1.8715972074714575 8.533930737682073 7.933623477344926 -0.7561799516769429 -0.4588377846115001 -0.8398593322744697
Ni 8.840565451674326 7.317404141088793 7.652307727779576 0.29307182182486297 -1.517025170040039 -0.4319952104973593
Ni 1.1275287354756842 7.167785757695367 9.872558691484484 0.2495070498600348 0.5223108654644811 -0.2990604353081301
Ni 4.949671669718334 9.104750040035592 11.836582031848673 0.48922076777873164 1.3701614434745435 1.0667959530331563
P 5.654488376717033 1.1761716289427708 0.32969999299856306 -0.33044794848047604 -0.4943352061871616 -1.2322474699031682
Ni 3.0819866598918373 4.63037330173789 7.191590831422218 -0.05913228738578203 2.4616610699019668 0.7719007048463092
P 9.12531225419797 1.040579679285899 13.644594902856873 -0.16075154029118122 0.7781798529868017 -0.41515037102587854
Ni 4.814691580356645 7.21028223637902 10.45801072550342 1.2005776496037128 -0.4898290907866919 0.16325090967426722
P 7.280423675672325 3.2000386144201163 3.1714823527950604 -0.3625605127443046 0.9044629271874682 0.35998041072195425
P 6.5227923004666515 6.469773678827949 8.403798250568135 0.02362483850779157 0.20077101810691228 0.08794304096988725
P 7.86729040485861 6.278168700330191 0.200295248811471 -0.1767314606592053 -0.041167218266929095 0.8637106849707705
Ni 1.1815671242730252 2.562823199428658 11.588278926391633 2.158930641941417 2.899147899641517 0.013781112944492396
Ni 2.604429699501134 1.7049487125287577 7.4786042982212 -0.0531452165644117 0.7059776197909389 1.533800332615849
Ni 1.3308517656872603 2.9879270454231777 0.5249918933053292 0.8350220587868266 -1.8601609984008287 -0.22680395183556426
Ni 7.543671932369749 5.91729164410887 6.442596884050217 -1.246161251770783 -2.135780686187515 0.9462310122631896
Ni 2.8380398143242918 1.2519681406612573 12.60706803561952 -0.16368234078473098 -1.5921458624342772 -0.45263037024920755
Ni 5.946762914993541 5.68557273383446 1.81386077213247 3.5344332951232165 1.585712705214424 -0.5479445068721854
Ni 4.908009545982659 7.741821961903865 6.750370956076986 0.21044787907504403 -0.8963120159455596 0.09706660053771025
Ni 5.121632224496491 4.931946262379079 5.801174465998846 -0.5381414047388345 0.9255218047402963 0.2227531788049583
Ni 8.480569103453648 5.113594605164307 2.185162629898243 -0.4663420634083452 -0.4661006368215005 0.5602729465305512
Ni 4.204064276374069 6.949268196820068 4.461029840313223 -1.8777892530055529 -1.2266028700228813 0.09457751556726937
Ni 1.506566917731315 3.792486251147317 6.03589612702492 -2.5410510790955207 -2.121631391270327 -0.5866066993290737
Ni 0.8081932850531081 6.063248136341728 5.884118618438339 -0.0721055597169984 -0.5971973303607263 0.46928880474149504
Ni 3.4299682968616403 9.32975702828405 3.872768811302762 0.3467896230632931 0.6859700663207605 0.3328969242416009
Ni 3.710237394497805 3.076618976393182 13.153090308919145 2.0022792398615388 1.070946227756104 1.6026753012106913
Ni 2.518213021543462 0.4481181366428985 10.307428198614554 -0.0415539121823865 1.9025253222996525 -1.3736103212550923
Ni 6.937151508853329 9.313718872061816 7.777477657075156 -0.6272897788707326 -0.5565479322704802 -0.3371032490134646
Ni 9.267078430469876 2.0432147496598896 5.079508424356268 -1.5200590717703564 1.7001429938415622 -0.08532308684853693
Ni 3.281156456584592 3.0051240279620464 3.171969986909101 -0.30020251933237335 -1.038432571399115 -2.183586749927201
Ni 5.596408001727268 1.636837536942197 3.992537682901768 0.05955060587012325 0.8128154407828002 0.3346604438999269
Ni 2.4253029627809046 4.87908524111944 13.215559390935274 -0.5413352290857838 1.685666654602258 -1.2830205866909774
Ni 8.15800748056556 2.815697642939562 12.04067915803976 0.7781220031656728 0.41468011625767937 1.6758100735231525
Ni 5.097695508100069 4.448456111247203 3.3842493539566885 0.30080441458243035 -0.6864860867252306 2.162868029322611
Ni 3.7396993947719426 2.733383892016318 10.874197171226168 -0.9908931310572547 -0.8936221278182224 -0.778202221584305
Ni 0.4996812724279061 5.191143262273546 11.312174187006928 1.4694227376707274 -0.8628791902084106 1.5679319841922352
Ni 2.7535381993152406 7.964622544845448 11.420260235212142 -0.9030943289747156 -2.0088396666878756 1.4907119860668068
P 1.7297012426520892 1.0493218650185963 5.67549001781868 1.384604358372751 0.3606188156369015 -0.8082699875039627
Ni 8.93809227448236 9.001985322276367 8.911938028046427 1.6925536115300788 2.4687753123492446 1.8603983112226155
P 3.984740172382392 6.545199366125113 12.54846572525674 0.0747432544501616 -0.7154518778299613 -0.163636318038144
Ni 8.353895481129603 7.4660769222078445 5.091882835295827 0.37068802694744546 2.098755515113418 -0.48671394219647796
P 1.1639715054812336 1.8134982912606263 9.372315620058275 -0.5559473225720037 0.13549816504103115 -0.5528092911636544
P 5.553067897485106 0.06886951152816684 9.859980327113197 0.632445354929743 -0.12889634345379736 -0.06305939035433011
P 7.014301529709645 0.4375811607109964 5.494201374722135 0.2686432564688535 0.5310891258777435 0.8221362039630937
Ni 0.7410545965114678 0.21024075979136242 3.659797856709407 0.5037624130383325 -0.6472014301929951 0.26521134796916906
Ni 4.086698347025239 4.829515286599046 1.2794555008918482 -2.2937106978695017 -0.6057030538388923 -0.03715706866627149
Ni 8.980570211944945 8.683530579854434 1.5214740594685126 0.9678113095371268 0.8684358583605818 -0.8361404886619858
Ni 8.241646928795035 2.9526431017342634 1.1807476023019006 -0.31678999137740926 -1.036269245199209 -0.8756596298025306
Ni 8.907990602081439 7.92923662444067 11.905360691393616 0.33523508545647424 -1.9290650204613935 1.264342807775816
Ni 8.159917226335374 2.1746812776295394 7.985183831946774 1.0729545164353844 -1.5812171313369154 -1.3569644851682954
Ni 7.450289072470004 1.2808924455244761 9.95531279640805 -0.007300647426471298 -0.041312999816174006 1.182646776156905
Ni 6.941258389319485 4.074628012111164 8.352401058711669 0.3370837086294388 0.9626187095925937 -0.08407713025657777
Ni 9.3341142152346 4.704241526465495 13.529032107256729 -1.6932146421528453 -0.6565995835784434 -1.956600249767185
Ni 3.63116835726114 8.480615456506314 0.03430589427767357 1.4755671600055684 -0.8347284388058075 1.8678851065179638
Ni 7.257627244371474 8.06659926070936 10.387916566323835 -0.7131473980665008 0.31951124696331423 -1.4449643475180471
Ni 4.932975300148252 0.974322625805955 6.567929049030126 1.092170684352519 -0.13891644669396075 -0.42003906657674756
Ni 0.8683419332528037 6.7038473241777625 3.5528511665387086 -0.9820089411937474 -0.6232233221108427 0.12694821858849106
Ni 3.983312498360297 -0.046468935297078434 8.483838847788666 0.7684824231933797 -0.14537840026922058 -0.08957337748445864
Ni 8.476499305429625 5.912952998379387 9.83162245655355 -2.948949653654992 0.5551446241650504 -1.9623795754531237
Ni 3.5817281912882084 2.405463856240107 5.367065148932489 -0.5785622317580422 0.2942473301902029 -0.1963050119157587
Ni 6.7974434081197685 8.140254261394706 0.34745784747468356 -0.08545806976450443 -0.09635209096918891 -0.38601385867123844
Ni 6.3938473785620005 3.0111406541980172 5.939369603093407 1.122870684539537 -0.7043290284439224 0.20430397096083525
Ni 4.834567769339576 4.828263754177079 11.282485983835782 1.0829447948788768 -0.1730874361487148 1.5843543914143166
Ni 5.753229649504901 2.9680415858297144 1.629980993391929 -0.39281391231220736 -0.42673961852537473 -0.5227813773429965
Ni 0.8470695903235914 2.5757000774591097 2.7364765676901546 0.11477070268569266 2.076654312339004 1.6432251976085956
Ni 2.3550780879928013 7.813474510714063 2.232638353499214 0.7659352312914938 0.61151297565245 -0.15417003041892158
Ni 6.151263312742818 0.18960530780577303 2.230114893312109 0.7541629212469141 0.5334704816257264 -0.9519820558143539
Ni 1.8194129407807333 0.8260920528093313 1.7598854234867543 -0.5219064309372109 -0.2917284204230911 -0.9973211460707855
Ni 8.193022576549014 1.288716840814398 3.032852424066498 -2.0764411678869337 -0.4951682436114181 -0.3789844626282828
P 4.609820358186045 3.3169039308001604 7.290396071422762 1.7528436666693874 -1.7766245711390691 0.5171424338896642
Ni 2.450917659683813 3.715549454333261 9.332912744109512 -0.6039799005001986 -0.7354882276555462 -0.794498130530851
P 8.571189321414534 3.833295478713948 6.710248680750856 0.42394251539621186 0.70878680710496 -0.7161627878540568
Ni 7.828214781461666 7.362737426595569 2.762419444205934 -1.1680416246492207 -0.26610454920739973 -0.02353253590430141
P 2.7117184752005032 6.859547228080891 6.449896562783967 1.9548986936950463 -0.5088776227777108 1.3224980759603095
P 1.8881545178835435 5.063839238433251 2.514997973810589 0.7944091703614706 -1.0875187874028047 -0.006122053737337844
P 7.166237565736342 4.2248953382419066 10.890235327448403 -1.7638533875163298 1.484576048372398 -0.13074445240612967
Ni 0.9075501263803715 6.328943834219887 1.0905037711286576 0.6702038046254394 2.2303139787804103 -0.1733823416813143
