# total energy = -340863.28727536916 ev
CRYSTAL
PRIMVEC
9.30933853737736 0.00000000000000 0.00000000000000

0.00000000000000 9.30933853737736 0.00000000000000

0.00000000000000 0.00000000000000 13.62515795181571

PRIMCOORD
 96 1
Ni 8.356155211671389 3.9074737581815193 6.289699932698232 0.31023573519865927 -1.2225389843661527 0.5013350345437625
Ni 6.829758855652084 2.6661107242853586 4.356889515322823 0.2844000050824779 -1.5566965204877319 -0.08395371730483606
Ni 4.728771516940094 7.500338426247694 3.1218642789869677 0.5979871732518734 -0.9670528341045473 -0.45167212010099633
Ni 8.190933074332518 4.778744045294561 4.153015936017688 -0.7977030106213939 -0.5486667297501906 -0.6539564895286415
Ni -0.0025153832267840255 5.539773147464683 9.877503113494226 0.41664726728637924 0.35758542812721644 -0.3530564299086113
Ni 4.514181958240618 5.016206648361943 1.319336190191119 0.48885412846793225 1.2928126330807348 -1.332702270186821
Ni 0.263009289414314 7.576972899685467 0.23022273061930787 -1.065389816714249 1.2544564019000397 -1.5188956475898745
Ni 0.11120470146391034 2.120425237222445 12.459648260377739 -0.03550204956135176 0.020767828674970686 -0.365054482810752
Ni 2.6295343338411152 2.1100267062664204 13.21392343756255 0.6802298214028737 0.23935453480706523 -0.8002651149216153
Ni 6.296910946197369 7.550953298949487 5.151617491447926 -1.3074895183666193 3.7433539389204564 1.7642434238658973
Ni 6.397665915344237 7.2752106965166865 11.9084562996707 -2.5599736270316362 3.8125729211182793 0.7914732276615982
Ni 4.157420183999151 0.8384604549721173 7.039164974748773 0.26435722749898993 0.22950720969934021 -1.3977159560540444
Ni 1.2756027804102676 4.646058045548622 4.997476259567386 0.7652564600569143 1.284995193918845 -0.7385522112928508
Ni 1.240878948301073 0.3457004183937063 6.7297784234573585 0.7172202825842938 -0.6360009334914853 0.4791896087949747
Ni 3.427251538515886 8.298046321584097 11.11221555606095 -0.2901847300850551 0.35769829955599686 0.512541187672227
Ni 1.700434436791796 2.5366178275993265 5.734038558641159 0.22920844751199881 -1.1108232664566997 0.14735557860024945
Ni 7.2539574770246515 9.084797125662453 3.088618769810465 -0.03884859743608148 0.46172693323383707 0.23935916279275551
Ni 0.7048658638015518 4.1673532480368225 2.7978034176275304 0.30184673980401566 0.20406922924220983 0.24610085239196325
Ni 8.26129305371088 7.9055459973514255 5.925880749040684 1.0052771676930685 1.2623982824549356 0.521102704088993
Ni 4.133104192184348 7.935801347044423 5.80078837660077 -1.332938297457027 0.8678046525344861 -0.12727629135187113
Ni 7.627541225695425 3.493236128861724 9.32211450305131 1.24637131089906 0.04311868556634509 -0.1923822798225848
Ni 5.150102862095602 0.5061896881067555 3.9845001547645453 -0.24257072775151772 -1.5850976973382445 0.8328155380538109
Ni 8.36121018240471 2.2463526573138863 2.074021909197916 0.5867187994269056 0.12275732043559504 -0.2617604133060912
Ni 8.338523324804145 9.213675606016258 12.122235014998406 -1.534624628289357 -0.8296224850378099 1.4224036886087117
P 2.8385475988587134 0.40024569375407987 5.019494706673195 -0.3565027365859989 0.18186543945166098 -0.3323248537882148
P 3.919659682104022 3.3305368222203304 11.012166234762304 1.0339002307464 0.07161653589572183 0.1903307966101948
P 6.419877996688081 5.972108130570076 4.1520347317537984 0.39284605110172344 -2.852532770886139 -2.139851256712463
P 3.027024463438541 6.5209122459859605 1.565898671512319 -0.5803249800854199 1.2746824991389274 -0.30009221900675415
P 3.4805754286824997 4.552005800026049 5.569024019547874 -0.009042569818242491 0.04039948686296913 -1.9431230412163565
P 6.1632753939379885 0.5833445535592474 5.835450767076742 0.393183122726168 -0.641410791653147 0.3755672094166177
P 0.17296843779411497 3.3761246522039032 10.378010381461719 1.1081696308839366 -1.0868832107013346 0.034619646956398444
P 2.377511925567625 2.070471327544713 7.949352950905377 0.24844955512979794 0.21477196037169463 0.18728892446007744
Ni 3.6586630716446704 5.6728035927302045 11.671636971884483 0.8569659100477692 1.0124189209441725 1.011527776588471
Ni 0.19495523314947588 0.5500711163676432 10.33375564873231 1.3115845143715992 1.5865210600483322 -0.17455733582602193
Ni 1.7161951466472563 7.099943783079741 6.198506584988189 0.48892766201834503 0.673278586896021 0.035226427302461914
Ni 8.942866952918006 7.146890776464907 7.880504808077827 1.071310553074058 -0.8894242876867908 0.6478166951794907
Ni 2.5716954145664705 1.835792216649086 10.371156846555877 -0.9533974481046419 -0.29268821323319916 -0.07809211631773648
Ni 6.343699680830294 2.979546837766452 11.166075664117505 -2.097922477689161 -0.36713630504044514 -1.2865738512598748
Ni 4.642231907479753 2.3878266724783455 8.903686740532493 -0.939427359077795 -0.7698276243673645 2.2425251761346217
Ni 5.3154739488483465 9.340990117524393 9.412286616342485 -0.1896664235533185 -0.12478463527826898 1.4675064944846212
Ni 4.610189164820277 7.087944045924579 13.481644183124441 -1.0618992870624873 0.013546628336183121 0.13916378681807645
Ni 0.8047466860757504 6.640807214815536 2.193963424719328 3.787105115864478 -2.982647817238386 -1.220064811794047
Ni 1.5881824347615896 5.709603407295257 13.097291391830634 0.08274221349523814 2.3670046214676463 1.2260102307442047
Ni 4.188895057018237 2.388022168584054 4.589212432677743 -1.370380244353569 1.685114895863846 0.692227360084382
Ni 1.123702306274683 7.976445918355078 9.393087967828063 1.5930658031453855 -1.1596539148061578 0.26430272011197065
Ni 6.165062786904467 2.2535767038867376 7.194737051936332 1.3840816531000615 0.02307590798285703 -0.12041735944850875
Ni 7.832309432417635 6.978708269525306 2.1416021201398703 -2.2260441477604633 -2.923153261417179 -0.07163273384563792
Ni 2.9790255148178955 0.3456371148928101 2.784873677569498 0.6925708594667298 -1.374545174364536 0.018514770974735854
Ni 6.59971579526326 5.899029824388527 0.3975096792079962 1.9098910186361044 -0.6159679261000102 -0.47026222439835785
Ni 6.617059092641124 3.948453465673389 1.7124369667484678 1.8978433434429505 0.6487075824248764 0.4689134236799473
Ni 1.4438504527184384 4.502563903958507 7.40269836171845 -1.706658940583209 -0.3485551996041481 -0.6474544267440656
Ni 7.362616074445166 5.50460246711387 7.861961536984447 -0.10470277692672936 0.600421750835295 -0.47529747282942014
Ni 1.0378795158686063 3.7034130611752056 0.491719252548972 0.4525318969981303 -0.995440384108305 -0.09010970960390287
Ni 3.0923294720835814 5.171207132173765 3.1431742854430422 -1.4136192575478623 -1.2755882987826483 1.7928009237886158
Ni 1.075768523022607 0.9775456939115846 0.862358457494239 -1.152250680363551 -1.1523396405329316 0.522962640115867
Ni 0.12460921777866357 2.428508481142469 8.125553590980541 1.307879040495554 -0.1393357936195665 0.7835591150208441
P 3.145532340851423 7.47216836834892 7.8627239717967115 -0.15296495436722687 -0.6231258773010301 -0.7280582537400622
P -0.12374251837668876 8.495795287177534 2.271245828107449 1.3360277350156282 3.4056984169479474 -0.02830450337164803
P 5.747445867757422 0.13939710177476433 11.807397846093068 0.8168106779851223 -0.3265352436896312 -1.6480015359513167
P 8.414655093970095 6.78185300041511 12.097818482329236 2.198115539670995 1.4811832206407651 0.900425781003617
P 0.026295157151643815 5.861550428122677 6.263771563478251 -1.6131720869769572 -0.7301986971218327 -0.7694972376111393
P 4.943956873295064 9.256694058610519 1.8410445453557904 -0.1475692372729523 -0.9608302502336032 -1.2265321646859457
P 5.4135571378838625 4.698516167247097 12.789540491290314 -0.3623630520215179 -0.2625448568805995 -0.7858327415463692
P 8.780800681285575 4.922200949531208 1.2602498195752851 -1.7006237901327228 0.4966728531814027 -0.4889353753278289
Ni 2.4791792098744656 7.3442394405085585 3.88893327988965 -0.5644003384353635 0.8072867976550872 0.28300852405159
Ni 3.683891378619447 3.9982584259372476 7.542914685269518 0.433618347923079 -1.0220011653159689 0.37959741362193333
Ni 3.042049735563002 0.02684347718146461 8.852510514727165 -0.6181721328401806 0.3326264441890336 0.592383968132483
Ni 7.599296693089714 7.507888299663393 9.782822487631876 1.0097292899271513 0.7230361179351226 0.7633109062947693
Ni 4.92221956820794 2.8856528509961197 0.39119701686128167 -0.6639634801426824 -0.6289234578194136 -1.8907897790302792
Ni 4.808226719903091 6.051861232360819 7.105819837457039 0.061112293930288296 0.5606030761764603 0.8790725121388215
Ni 8.896832274692814 4.4750548090837965 12.122166125894488 1.1672317271534158 0.4660795537755779 1.4136575669849654
Ni 7.418164896481511 1.0726685133463705 9.384299952409542 -1.0253541409486018 0.3477987810540978 -0.11917191707718185
Ni 2.011524597004386 4.107941050578141 11.66779500794039 -1.2439817276209608 -2.50219245435711 -1.3849139191933697
Ni 6.491820563588846 8.151582501054886 7.75704715545517 -0.19515187214792198 -0.07279153004042947 -1.2573764037603121
Ni 1.5869349834204016 2.0349655110126843 3.02117447520867 -0.26836377755522167 0.9649123907227769 0.3163390198829197
Ni 2.400347732582063 5.111888028098754 9.297385176613009 0.44039397608401576 1.1116352208350337 1.9269595440826168
Ni 5.274419766649539 4.3874911724030765 3.474947002705765 -0.5278173971050071 -0.8476412902127336 0.5346958693923952
Ni -0.23485412645692835 6.954466752417439 4.046235963079649 0.5845637007571158 -0.03222954945766708 2.943170070858738
Ni 5.823437996847867 4.221105367768321 5.78101813471061 -0.43317740373091845 0.8664833626199013 0.6634934824847992
Ni 9.420119493644542 0.07315184995464911 4.404836331648613 0.9350791094114282 0.6169531728314148 -0.4943002391841681
Ni 7.186790600706195 5.489428245575535 11.139915492372182 -2.1174978287179274 -4.170633489109701 -2.691012470749733
Ni 7.168981836409979 3.238504703123414 13.121040444938881 0.9363795733904067 -0.41121195520342085 1.8029997186984885
Ni 2.648627786831989 8.339808013498802 0.5838500506325796 -0.7312695615885083 0.6663165537558912 -0.39141780329562914
Ni 4.822795834447565 5.0740828049900575 9.849967021538252 0.15845811627131418 -0.5035384699529845 -0.7820581049952854
Ni 6.6186509895018935 8.173012597975895 0.6544800008235877 -0.5957893942696062 2.834149126172629 -0.6227019023897341
Ni 5.946823967565096 1.7536186868829033 2.0823602835733066 0.7363125233290545 -0.07596272867955951 0.5741530469467531
Ni 8.2352175969447 1.0490972686009334 6.575841997020894 -0.5067186674531788 -0.23159494546630435 -0.8076758055633896
Ni 4.400905928990033 0.42613030908373567 13.329410434675315 -0.3345280320871207 -0.18597766184782163 1.1151157231844666
P 8.843173248344987 9.177676394550774 8.38715623936759 -0.4155535200015682 0.9149340019221212 -0.7634160644140658
P 1.7677968092159606 6.62856543486283 11.005557535455518 0.42351442671985773 -0.6824448267763216 -0.01895288695341897
P 1.6251311987405157 0.44950605772346436 12.027894179986454 0.4488457063957947 -0.19733628139375048 0.774717348359498
P 7.616397947670035 1.1702583074484316 0.27504160925376014 0.5998291115566186 0.24968779841227326 -0.2281344977215297
P 3.4120959356542864 3.2615825529353963 1.8385245074598229 -1.6906283694829078 -1.4555822322432093 0.7298012045730979
P 8.979722623513263 2.290767510663208 4.193728465498423 0.47041366237455756 0.5304100975328478 0.7460616322960184
P 5.9165965458872 4.081549076307479 8.377087258989759 -1.4250568099608425 0.2850090994213866 -2.213956106247678
P 5.491262185233849 7.112017994941839 9.674121067254873 0.03708739177060064 0.7618291795429203 0.0703878056949433
