# total energy = -340888.2223954092 ev
CRYSTAL
PRIMVEC
9.12403335673922 0.00000000000000 0.00000000000000

0.00000000000000 9.12403335673922 0.00000000000000

0.00000000000000 0.00000000000000 13.35394508901700

PRIMCOORD
 96 1
Ni 6.742441564627325 2.0420863686310518 11.46396086805511 0.517995783028895 0.28611801621484917 -0.08779237432463591
Ni 4.689050518850367 0.4635100110485763 5.440437463691568 0.022749634991689853 -0.7223131237261688 0.34207421986549474
Ni 2.6936335800831652 1.7467687857565164 4.351235926498441 0.9355658192398597 0.044504253059962064 0.000400834982844471
Ni 4.037302578667656 4.373413714019469 5.189757388485247 -0.654689253929608 1.739253586689779 -0.7127254800377338
Ni 3.975259152846701 3.295181089550157 2.513292501691389 0.15107133688893984 -0.44820550170863455 0.43161108768506307
Ni 5.441071583999592 5.302815108784161 2.4609716456579065 0.30138856922067453 -1.3687820466285134 -0.6311032390795518
Ni 5.825403234860779 3.1833295664414685 0.23319751517462536 -0.2961026382313868 -0.1053524946955863 -0.48760688632439253
Ni 5.781972836786111 8.169513350774954 12.526120595623512 -0.8785580343962484 -1.0603378561126382 -0.7399948572766482
Ni 2.501107355340818 7.14291363023517 13.731994795072945 -1.2482505301996438 -1.0381826601718378 -0.8756488311692533
Ni 0.6628573630179455 0.07458988388660097 0.26154679875819714 0.35616335096870916 0.12528214373997779 -0.9487625204357919
Ni 8.30551618978777 -0.33792681796039686 6.733579391171458 -1.5722555512682534 1.3499805976512944 0.4181277084866476
Ni 8.614081868881721 2.7582226111694212 0.9571202076535246 0.35614509613626405 -0.462018753442643 0.4398162492036748
Ni 6.95902786494171 0.97371682406063 4.659591752828585 0.3240196763566291 -1.3008005363822177 -0.8782808694754616
Ni 0.8090891556613312 7.7300907873980425 2.34373785535925 1.8789385361186481 0.3342243848037728 -0.48868572121086806
Ni 8.022005105885635 4.016591023283308 3.858929554239053 0.1870438983288069 -0.06729065482685831 -0.9468735309431952
Ni 8.16373783775368 4.523987634067001 12.757037102495895 -0.6033132134504771 0.2732496448926133 -1.344961290059832
Ni 8.463398460435682 7.323843208768924 9.175802973391585 1.0251232558847183 0.3001007036471864 -1.1207806347797278
Ni 7.059556462838075 0.6821337079785236 0.12230584035951961 0.6987569336727838 1.4886029101436042 0.858974712947682
Ni 2.131237297115838 6.679339750954131 8.955048814707345 0.18203564648093812 -0.3762583219463714 1.6547918194002729
Ni 0.34590122298503134 5.4484438028324345 1.2974959161272075 2.5725252384444017 -1.8108174149706944 -2.0225408183240523
Ni 6.627615606692514 1.811403437008817 6.740550152543106 -0.897206502735371 0.1366371637414808 1.7560272066036922
Ni 3.686729850679635 4.3848552516635095 0.24242921197545506 -0.1910278226772194 1.221516456638909 -0.006848647490717237
Ni 6.468246118631541 5.865430368548503 4.780872964258737 -0.4420392249969226 0.12248658327271163 0.10483853117364526
Ni 5.658196202273306 3.015748448492428 9.505538234336974 -0.47763846225777096 -0.4761521075202316 -0.3758047793487205
P 0.5555997906299701 6.298365744313841 12.429691425847935 -0.4249629862409262 -1.6342852148064886 0.48874794190737125
P 4.3355672242686865 6.325263394213867 12.505114333966514 -1.056687918064877 0.5412223576570034 0.019996240616268788
P 2.622365756687948 9.198850281277428 1.2379415265656581 0.3259806567377418 -1.5606287656626026 0.8987676765749039
P 6.448556454966597 8.052397260504693 5.730485004984606 0.7366637360208861 -0.10997096730420415 -0.4963278111371582
P 4.914094797949462 1.3977653914804373 12.497102520405722 0.41982386524214793 -0.42676018735066507 1.0383790924533602
P 4.2646461141354095 6.044927473868451 7.902250345211341 -0.43224872126906194 0.6568991170967332 1.3163305136970167
P 4.960116421455476 1.3934862199054332 3.443808853314217 -0.8265405036783764 -0.030261112877386594 0.5960099949208445
P 0.5903660067694062 5.953276560284409 3.5601612620048875 -0.02487747996797006 -1.3580505191436225 -1.1809596182624693
Ni 0.4722709077358235 0.6189233183101425 4.836879017305321 0.7399328936904611 -2.0776590994544346 0.1218612909838869
Ni 1.733694046168071 7.29437258150397 4.70806682886449 0.7843271035351203 -1.1886718993050625 0.36675449622099415
Ni 6.210528676611146 5.671389554293468 9.29076670422785 1.1330324555638873 -0.44265397576278603 -1.2733290704348263
Ni 8.868578527179352 2.3128420541070565 10.156423040978117 0.5351668954915428 1.2754407174611904 0.5010344725842081
Ni 2.386801467298918 5.57336094149636 6.80661271499261 0.044857522634322744 -0.7445428816586468 -0.5849069430291476
Ni 0.9150219184273651 0.3173557726874668 9.235000613254664 -0.5357027133903548 -0.7423199058653989 -0.9927353264723161
Ni 1.7228638187490308 1.3783585728449712 11.267297806655819 -0.29061436142330593 0.2628721583130311 0.8530246660118341
Ni 4.4526376943729025 7.254208587318112 1.6033417209215661 0.7440484585207315 -0.24075552891964988 -0.7262073165742525
Ni 5.783085968837604 7.834716076205232 7.7844015950744 0.21141487097400363 0.3383234945738109 1.0714159683036708
Ni 5.813788340585767 3.108795339157442 4.634726937527516 0.0001802343316061412 0.21562659506250603 -0.05701035594677278
Ni 1.0725118556472915 7.760346081518968 7.249896569223555 0.5055616710306002 -0.17651857331745086 -1.1944293706141302
Ni 5.463033131933567 4.387145383998959 7.343200757625062 -0.24503487302129412 -0.8878973095193031 -0.6290635829417037
Ni 1.422911227004342 7.86573778911571 11.333158727971403 -0.5170735283249418 -0.1545279279789726 -0.7458281761289736
Ni 4.942059959734937 0.4317237041551878 10.469439423471401 -0.2664735025110443 -0.21571015591524784 -0.29308853399541135
Ni 8.448909495699848 7.464745653614954 4.585464457425679 -1.3798457606418428 1.3506611686580867 0.27840264984846247
Ni 7.508860354180295 6.0272177254098525 7.077563654779286 -0.6300483154524762 1.0978579645452835 0.4876415962170698
Ni 2.63608830263423 5.714190394076717 2.4589287746224198 0.38469668252171163 -0.02869505394184736 0.5380856118002346
Ni 2.3757796351824894 5.3935718671137245 11.45051386791174 0.628302279295647 0.7669515883711501 -0.1120497042101038
Ni 1.4840331254711912 3.8608255283398756 3.7348445274037854 -0.76260822380079 0.008446330995140292 -0.4038799403183818
Ni 1.176562330362316 1.4387596726883123 2.1417189864662958 0.5545730679322964 0.7836023095539537 1.303322274362807
Ni 1.411506185493137 3.47215996170443 7.9825473118701495 -0.8278697640127612 0.9270546964450551 0.6140573393408586
Ni 4.091836925157633 2.468607549050488 6.55623920730211 -0.3520842958033291 -0.3495209059515271 1.2860920265274496
Ni 4.206881859889459 7.129355316886649 6.118978127392402 -0.22220604805223665 0.4838649027834569 -2.2060725897345423
Ni 8.20679415046678 7.5411320596404 13.559194730128377 0.01762259817776965 -0.8532866614239691 -0.4294397910653572
P 0.36137193369415055 5.6310795755762655 7.780435377838463 0.9063004946168391 0.6175054457904591 1.6134412814779437
P 8.814518630416242 1.6923712997646736 8.069895331392845 0.6934825726477217 -0.00883842422723639 -2.596095055344542
P 2.0277525124597693 3.444477644948434 10.243316683647008 -1.4836393954907416 0.40163279615541797 -0.32625602188631553
P 4.385311453323958 6.285245384559351 3.962368718729077 -1.4276847345019927 0.5714767856661706 0.19174901711396009
P 7.427939303649993 4.015943216925471 10.5666030779203 -1.0330638508880339 0.7274751275430826 -0.27285703743988493
P 6.5547419534525195 7.974231668003499 9.922007467370097 -0.02554056747326569 -0.7885452553815259 1.5829366851311835
P 2.5061529457053746 8.93068582123277 5.574777903853712 1.0569015767375798 1.657665284293326 1.0226418842237615
P 7.203780055772167 4.411004730840401 1.4658361536392337 0.5638897173475321 -0.10795085155038184 0.4051235829174959
Ni 2.948422207443483 2.026894853338127 0.3208365913566865 -0.06380912403616107 -0.17131903139438234 0.2867561640194803
Ni 1.6345614253526781 1.5234215768342885 6.6828753138226045 0.40183694174642404 -1.0008898372586505 1.1805490130876122
Ni 7.180221802026623 0.8456838280558437 9.155263862234886 -1.2303967898476746 -0.5636462338781584 -0.2595919448998626
Ni 3.062718971452174 1.8449160109853413 9.065619323553495 0.6073087077631154 0.016863351414241924 -0.11090144953827354
Ni 6.621995202235792 2.384356226398915 2.396645386728069 0.3852103889333366 -0.4394097577938755 0.14942248843160716
Ni 4.443048335470281 6.932778021399521 10.050513088295107 -0.7122390273196185 1.4370960005135638 0.9339462813585657
Ni 7.5809493405643185 6.339442141820597 11.134960091783043 0.16487970352694184 0.33137483117011957 1.6021834491759375
Ni 7.67401447929575 3.619887183390765 8.141993441810078 0.9760856337307771 0.3559257810366063 0.6935026272523799
Ni 3.2677268736243845 8.940120071570838 12.346963816742258 1.2166138771309694 0.4420235412676387 0.06222892403323477
Ni 0.20755715705079492 4.962306189425628 9.961521830391478 0.6693931357986859 -0.30878871833948757 -0.022089375699871638
Ni 8.777776148683744 2.6662067362570196 5.843031779423818 0.40164436611964377 0.3206916404246606 0.15117495234633965
Ni 3.611639057369862 2.9366978247699644 11.535310807749209 1.447286310783004 0.5089591267479235 -0.1336027477905312
Ni 1.1981680410011424 3.666474496955735 12.591167653176857 0.39634480828360125 -0.9241750609044148 0.46555710561320474
Ni 3.2499715049997406 8.730823873790415 7.91607143071628 0.7018512563273912 0.14620346727367725 -1.4612240039100188
Ni 5.882848147944416 7.986220647640079 3.506745521986329 0.3915245040768225 -0.010884251012671577 0.662881045711781
Ni 3.4852985695253387 8.52462984730104 3.409969638948811 -0.8195311622400788 0.4377915054641622 -0.13418484554624632
Ni 3.7364284595688617 4.602171474634612 9.423732152585403 -0.05596520251171007 -0.5236653226098466 -0.18152091162804868
Ni 5.420360028615243 4.793602815391885 11.339315625580813 -0.32682115036116616 -0.8429713955408902 0.42903432809682235
Ni 8.11355565510438 9.032190690682492 2.524322545437706 -0.48990236722678854 0.2139047272753929 -0.22864177637525138
Ni 4.805372818231448 0.5398434976814104 1.4319832532240149 0.16512164433441884 0.7647067582010313 -0.6875968032909062
Ni 6.286422384843308 5.825193382096973 0.003520052012018282 -0.5267113085250219 0.8403270159395076 1.1525329874906602
Ni 8.452367504286045 0.0010921467751129816 11.191553732568284 -0.7551152578578544 -1.3247249084082993 -0.25598828670900425
Ni 0.18775070576077607 5.492795728261209 5.593313377317721 0.10077773084071032 -1.8847926809065796 0.13366342582513754
Ni 7.894140904495215 6.292635851458612 2.4521049101854353 -3.377153515430719 1.1151974842649957 1.202021581139091
P 8.592074700781701 1.7062215821758808 3.4707037660042794 -0.6009367427985005 3.4440664752031847 -0.8432953545392121
P 1.9430176160481214 3.658408851599011 1.6017787740328706 0.4715896849605298 -0.146590932520083 -1.4914123545679412
P 5.066292795908189 0.942092924958361 8.293935054435632 0.1931294424012545 1.7455507325524002 -1.5491989265591062
P 8.8247557956767 1.627782268678418 12.432255279179653 0.30681102578782643 1.521759599401231 0.19139934708402523
P 6.530563265448764 8.126019084467822 1.4295133774343483 -0.9352205200852989 -0.9990610115800279 -0.7853280339958089
P 2.122140636006501 3.4824883672969773 5.724154750744226 0.08047887138235818 -0.19713007892021536 1.5712798176185456
P 7.206234420705378 4.172648487289426 6.010183155408716 0.09050026017410219 -0.5433520024054965 -0.6632245450941288
P 2.835913753943749 8.834865224472232 9.97386117290328 0.25502026636878017 -0.5030131935771338 1.5261361312023718
