# total energy = -381172.13809661625 ev
CRYSTAL
PRIMVEC
9.23726232254986 0.00000000000000 0.00000000000000

0.00000000000000 9.23726232254986 0.00000000000000

0.00000000000000 0.00000000000000 13.51966712583439

PRIMCOORD
 96 1
Ni 8.525651337660697 0.7221276000742107 6.771082318494642 0.622535809125515 1.0353742441887652 0.12957948556375104
Ni 8.272993738832039 7.9177009184259735 3.208879903070139 -0.15863397972754617 0.6362433885195945 0.17845949909390557
Ni 5.003473979845311 2.8024283527871816 1.0676141428071078 -1.1019547603224764 -0.20842493510774426 -1.1423416487799551
Ni 4.975605159442195 0.8353690462412295 5.767341073414228 -1.0265985548786642 -0.610035362665659 -0.1639944727085111
Ni 6.804287505336897 3.2493271035670332 2.5751455135367007 1.1075535945664925 -0.34904602319763756 0.05928706779609144
Ni 5.2129011910416905 5.1567109243820415 1.7085886985427217 -2.9770970626234856 -0.6786791890863022 -0.886281371182435
Ni 5.0189741060091935 5.92779139609242 10.76903688026398 1.0654823764280552 -0.5644880130531633 0.692425077917485
Ni 6.020699780452564 1.4543515278582682 12.234406614611093 -1.0083660910310377 1.204980663767415 -0.1684352820886841
Ni 3.3005477231014337 0.8949687864211939 9.805814886326514 -0.7885213441221259 -1.1930952251837386 -0.7244900767728297
Ni 2.376886152478661 0.033027831405815646 6.207108657687216 0.8602744055957119 0.027979001711429235 2.5482565957050243
Ni 8.267765448361981 0.9332590861676313 9.88409329463281 -0.29807416013546084 -0.06262538814070505 -1.7691855983625207
Ni 1.4886956691439128 2.227464197277857 10.838609168838776 -0.5091468172786974 -0.40748308428860786 0.051210461435544065
Ni 0.2632185608329292 3.08909755145816 8.627615933994065 0.02367060414406246 -0.2932775100777659 -0.21098395408417214
Ni 1.1732062120514148 0.8167180899018412 8.383504650258864 -0.3068606480788392 1.0874784210831723 -0.625303087458007
Ni 5.50798553568126 3.744481312678302 9.349863618478366 0.4258122216150989 0.6615911232557639 0.3970644600584452
Ni 7.501608437465278 2.1113425727211492 0.4902797057878598 0.17880762646194365 -0.2901111965346423 0.9597403596035343
Ni 2.905045099839959 3.8282078582977435 9.587877385359704 0.22260688303508117 0.4931630402559313 0.36470558411176546
Ni 3.510880186004642 6.349832673983712 9.146865541852941 -0.8686916831251298 -2.422541735303002 -0.9322100153937495
Ni 4.150745346536274 4.27298203874524 7.588143110828354 -0.10934387524316652 2.694127362229631 -1.2858110049519211
Ni 6.804786317501885 2.2608199514958405 5.041199882864328 0.6093702182778344 0.30114277175845555 -0.24560128704772538
Ni 3.1072025855947554 6.460993888677484 2.616556160493006 1.1643109539621948 2.2567084096135392 1.6313292175019585
Ni 5.431685748962749 4.10513174522683 4.263264438790292 -0.22758479586564673 -0.016453774680649083 0.4891611181853899
Ni 0.8711274123872378 1.7308782125078268 13.410008972506912 1.4101084161811264 0.661883457685202 0.48357899611192195
Ni 5.606343904807011 2.5427781463863783 7.168208852471022 -1.60233668692435 -1.197616252982544 -0.6282940517655309
P 5.00993082620321 5.495635315966653 5.886462960770714 0.01706672567429964 -0.17247859892012232 0.6865339092440306
Ni 4.621679453858689 4.316923695575743 12.626625391119731 2.429834412309673 0.9174937922294973 0.07782626425085952
P 6.934246548840861 8.82219516974597 11.240224088573816 0.14307032096133426 -0.11344761299889496 -1.7165687434977535
Ni 1.1975556355126733 8.912360087198682 10.391094292662542 -0.24300601551672343 0.07004687741575678 0.6466339877252991
P 1.0576018741843238 6.32318317220612 8.73523281113773 0.7433264927530424 -0.1531557302217943 0.931655685552176
P 1.2300430870730854 1.7853688229015918 5.929158510914979 0.09928854788969352 1.3750043733891417 0.7826844257253746
P 5.560656405399051 7.483226285459244 1.7674531526424448 0.4838121951686506 0.2880617702047813 0.5523521490215778
Ni 8.22904284473922 7.08277248959715 0.3177544338120356 -0.8031339518289782 -0.1470365046979339 1.6699147910846401
Ni 0.46347501800338325 8.008651003175425 5.235085400216409 -0.8835886548416203 0.835486914238387 0.142176091281839
Ni 2.1825526279043217 2.768361329370974 1.5722559440416917 0.8889591751249143 -0.5265670696376739 0.20132020574216294
Ni 6.882656438813878 4.31283158837038 0.03935997472246691 0.10144647477296077 0.00293285737607882 0.3007704760207014
Ni 7.00812617283295 4.340099986723049 6.7275212368715 -0.3088982473341584 -0.2115997332913001 -1.3927904937279691
Ni 4.730272709629006 8.64437787019012 11.770018955091027 1.5677671764795968 1.285854456595347 0.014705681641290803
Ni 2.7243550117042687 7.523565409987057 4.76404691182984 -0.010462590094220691 -0.7515370535882928 -0.749901831977715
Ni 2.5630077508553297 8.227962085048413 8.514037327752563 0.1169365999887599 0.47724276948124916 -0.4572287882531674
Ni 3.086113915730547 7.418048162567499 11.257123659978358 -1.8910036948132982 -1.7383719554157737 -0.661213428201371
Ni 9.049284026487847 1.1782312827505514 4.352413257388397 0.6576169690993642 -0.586565561678493 1.2781681436946826
Ni 1.7652777773673591 7.94895057683623 0.8557002605956415 -1.0521537776399492 -1.0256840134841947 1.8960034620207347
Ni 0.4200857494592923 8.465322777484111 12.72450804123628 -1.2995208983388458 0.4702601675158289 -1.525070923162651
Ni 4.69021070297063 1.9127691447444137 3.537434543980393 -0.1653126772993024 0.05136884139027928 -0.10828252385818771
Ni 9.01767411484732 0.20956484640486614 1.2206838928959431 -0.9796211576878614 -0.4650765664323603 1.3355135143833707
Ni 8.9198422696735 8.03599329962661 8.365632395132597 0.34612293601357164 -0.2989619620570529 0.00578009701688682
Ni 4.812225700884046 7.682224627502451 6.235824535044582 -0.9094485533275176 -0.46414994085303285 -0.4839374078926052
Ni 2.528257170027843 3.8076457123854666 12.536638752829692 -3.4841368608615095 -0.8200124727518716 -0.4322605483436039
Ni 9.120614166081108 5.712951149179692 7.008974153513429 -0.6340648928110371 0.41151817358993 0.8092575482282127
Ni 5.315222345700401 6.4334945587669505 3.914010940485505 0.13985541356846234 0.16735079077525372 -0.0017156971395260777
Ni 7.3035061098665865 3.0548550200579756 10.848586335864765 0.6722133788563003 0.2543939456386909 0.3503572858098934
Ni 6.570575531515463 8.762891945686306 13.336854473606518 0.8314605666878132 -0.09239824852776345 1.8219335794885139
Ni 7.092129836321829 5.875776371998965 2.310172796590231 2.9440126213646907 0.6254144162248907 0.2269764728576865
Ni 5.87397510584762 6.115825107768209 7.88854996601359 -1.1441391070000102 -0.294301580466906 -0.5330642473262432
Ni 1.36807549784 3.339649054479092 4.00614801344238 2.3696160909485644 0.008901673365004024 -0.5662759581915215
Ni 3.630419597617748 2.7697653932427917 5.555893672949649 -0.5360402992354316 0.17944011783962 -0.4104768768096092
P 7.76453787198776 7.484704247429579 6.267041863036738 1.1215843616279457 -0.4358570074456107 0.5262551948242099
Ni 6.113820621845943 6.538753162841701 12.978299052150938 -1.7869460076697354 -0.42053914614161764 0.5473387549673864
P 3.3790644527754465 1.8487364423796775 12.974635553916972 1.048356515381046 0.530502400136338 0.8812551216124371
Ni 6.962808163917573 9.093318055941495 5.062601695921001 -0.04378588683669878 -0.6081474016143268 -1.1589810571088492
P 8.811572318084194 4.538303924207201 3.2206823531294906 -0.7153855433684002 -1.3696297393407895 1.4381491243684263
P 1.8160272965237152 8.422655862853022 2.9397707400591964 -0.07767225517149849 -0.3391940701042223 0.1527574663421111
P 3.051732825395644 5.892061665459588 12.860299492165675 0.24477056361631394 0.45663023543722 -0.5544506834218192
Ni 7.774135387532619 4.806341564789652 8.783727514563095 0.8983696698055368 -1.520880282120071 1.236284358976703
Ni 7.607005600474747 5.7788035922204015 4.878923353426541 0.012367263316101282 0.038341061672043646 -0.7551790212162541
Ni 3.9007480792542166 7.598516556407639 0.44494322234785333 1.5533260613536024 -0.1958635535029659 -0.9788472556363143
Ni 5.60581738085508 0.6860293026750256 1.8229247602940195 3.0500009498720635 -1.3317028823880293 0.08072981105089969
Ni 5.620292170902042 1.2374236596624426 9.453938005524385 1.3221689747556649 -0.3442264903218072 -0.12362789596600644
Ni 0.9626243430657122 5.775616736721869 5.043336461637692 -0.5623172306540897 -0.5858579940885071 -2.182142818391822
Ni 0.48820778785069735 6.220464815267881 2.4913506121761313 1.0337140828775229 1.4948617465691223 -0.5777870441549147
Ni 7.2471310979606445 6.719858927781548 9.525578517131416 -0.1899764985945696 2.1702347541003273 1.8280695171829229
Ni 2.38974442162057 6.403824472212488 6.78395259607756 0.5756116337701506 0.5828811708483703 1.1005997889564787
Ni 2.319153263012475 5.096613295763321 1.2675629991424862 -0.7195856974926769 -1.3899689651187739 -2.1003850802970407
Ni 9.121380858853218 4.345568446013286 1.029983383589932 0.15523292446579717 -0.0034784454669036864 -0.8633594722789389
Ni 9.099534733479215 3.6509263199561373 5.545740074213451 -1.9559376764825216 -0.6644563606187008 0.9438753675468197
Ni 7.56527164933743 5.489732705347631 11.6330109567148 0.292004042681981 -1.314331223878801 -0.7241095535049593
Ni 9.010783117160635 7.099510408911185 11.01224198856612 0.3260264223740127 0.3553516537006913 -1.0236219887488434
Ni 2.490384394538025 0.9268853751705645 4.1196859757296975 -0.4038359744543239 0.5263397841182161 -1.210090731300471
Ni 6.582981174803956 8.762226862799656 7.494654626394855 0.6101767733395297 0.04535914486108962 0.8278983032578516
Ni 5.234775028202639 7.924628865161916 9.403563519218 -0.2600529436966812 1.0282471462256808 0.717970530486757
Ni 2.4245134769726855 0.036772617548150324 12.569018128421021 1.4837039301800898 0.759033619075654 -0.7276545905437404
Ni 4.506980367698428 8.54449535278246 3.8579989529885266 0.7232343499888576 1.7580437228130883 -1.2670522362871792
Ni 1.88965751443331 4.175224091669937 6.671820545114524 -0.3414111323601991 -1.011360397772671 0.22601642293726237
Ni 8.379166831875933 1.09394126412992 12.133576354089955 -0.3867972738044822 -0.12452006876297263 -0.6018718530182602
Ni 3.4753629124050445 0.5252686079830629 1.6140453187528958 -2.495087724991529 0.2831987856855252 -0.24059509208238566
Ni 9.25721480118926 2.402390233729243 2.461417263645703 -1.3425683643476232 -0.1743102528122224 -1.5649975841542596
Ni 4.292980711656327 2.4770734995427013 10.983079951438961 -0.16548442699047627 1.1201761684265097 1.4659766881036558
Ni 3.090935766658763 5.001460256660732 4.622508960014538 1.2069501287889601 0.25940682547225 -0.023686030763030174
P 7.298111548674866 2.6196598806307083 8.229813232416257 2.211257990590224 -0.3686419430516942 2.235798913154382
Ni 0.738719570643677 6.110947833266105 12.956004919554678 1.8318500672712774 -1.7479482862502995 -0.659733758332051
P 3.7120769964787215 3.773550977182316 2.705542403274375 0.0946091401361532 0.43399270054336225 0.8007988759378983
Ni 3.0012050005348385 2.41574731503614 7.805025716438839 -0.874804480891087 -2.6806218715440284 0.1910440206271355
P 7.51246222068492 0.7817134843607034 2.9585085266643416 -0.5597870080330681 0.38447171099509914 -0.882614463853809
P 9.240957219515582 3.4525930607995807 12.498608020154295 -0.914702088416973 0.7071811531807369 -1.489948368427905
P 4.547421102111701 0.09737921932040511 7.814772875633193 -1.8870151424791954 0.5944925298350536 0.4783012926527505
Ni 0.9304786702109399 4.6648544179170806 10.530130793843053 -1.027359601414405 0.7765682855253078 0.13797336605440108
