# total energy = -340867.0668325045 ev
CRYSTAL
PRIMVEC
9.31218589117927 0.00000000000000 0.00000000000000

0.00000000000000 9.31218589117927 0.00000000000000

0.00000000000000 0.00000000000000 13.62932534191611

PRIMCOORD
 96 1
Ni 5.080644800799748 2.8431407166015825 8.506184521185661 -1.89931247178931 0.15943256436944153 -0.9295682068955281
Ni 6.104435827493232 7.442829741606448 2.53058371641741 0.18794018489083117 0.04836296468441993 -0.9777581363371934
Ni 3.6664217571500974 0.9368524594145772 7.677440021187432 0.16612000369194618 -1.2233090297629579 -0.4572259600396899
Ni 1.7028542446789705 0.4157471942427663 13.360800221683293 -1.989401355457606 0.2849090835084125 0.03232288050242175
Ni 5.681057296930301 2.7814847339587323 12.036397866839204 1.4591372965843195 -1.711881365324413 1.069266783171152
Ni 0.9039012897148756 7.305931297136952 5.583839007669903 -0.1826642812038725 -0.5532949725508213 -0.32219419311211606
Ni 5.829735656524884 -0.019339547614056898 11.600204837301067 0.45169731691197695 1.9210043549404465 -0.6348498506061775
Ni 1.3745903805884852 1.3744320734287017 3.8639956110903717 0.2250337473090189 1.459498279468164 -2.2435965548219294
Ni 4.78426586112689 2.8137607701828857 1.0833610797015365 -0.4897455299339501 0.8868151321987179 -0.5938561818026353
Ni 6.528531396368125 5.30581345512751 12.101832734507951 -1.0933510778138653 -0.49932751719543034 0.2592255626993794
Ni 6.218416982537558 5.267940795195705 3.7974162757782457 -0.30776593350192805 1.1094965772254761 0.38990445197489626
Ni 4.495196987361696 8.606089376069448 13.624541812320254 -2.308708199719598 1.855075099237489 1.6673177197814255
Ni 8.147939143469301 9.4060527032004 9.946872797076812 -0.28313759343028655 0.4700028000893841 0.05288964891017988
Ni 8.3622404768872 4.979849700946824 2.973891255959946 2.4347737585928195 0.040024105801421385 2.779421138502129
Ni 6.973169647271432 2.7809539393641636 9.593437163362118 2.077304287218177 -0.19972123668615926 1.1495656773322203
Ni 3.317047167693151 7.980440856232186 6.234748694115723 -0.9828430070592686 -0.11877108209433737 -0.7417264952557742
Ni -0.17568369861652416 3.3482988634716446 4.552167078074946 -0.6668996799528708 -0.2532330925613704 0.9032200559193025
Ni 2.7060746527864326 4.7438789110102855 1.299440109401948 -0.085275264329737 0.5439945210855017 -0.4923477434434876
Ni 8.343737163564235 1.0831655237982742 12.5165453449006 0.0682249937156696 -0.21004961519536086 0.006619819309362792
Ni 1.1506509347955152 4.656670290341159 11.705055394100217 0.20244223516174814 -0.5372515459347134 -0.6977454616891338
Ni 1.0428996320979746 7.025466883115301 11.575031205239684 -0.21814190528519206 -0.22149359536624433 -1.469213964094031
Ni 3.0470310262172298 4.803588646806382 9.650639127503522 -0.4461100526321865 0.3795141098795077 -0.7827746714463358
Ni 5.241103075519419 4.301466272529821 10.566243041200767 -0.4450399594964593 1.273677969133813 -2.7999128306975782
Ni 1.813743754014578 1.2912742536128656 9.057953883207592 -1.0884351285694869 1.977938092013013 1.2572931000178864
P 5.117651427445675 -0.02444541912637748 6.048871876846296 1.6786691402385026 0.9165010892989248 2.079857906877966
P 8.78031106150444 2.0834525933568013 8.251384491420723 -0.22277657584372598 0.15891808662686827 -0.33083284262372054
P 7.021416082262009 8.89979571839772 7.895236217962204 2.461701436221599 -1.4277734375610573 -1.2597112225410756
P 0.1926756441728462 5.679166923198764 1.3486112444493792 1.236903994838573 0.05023087113109413 -1.3110034450571488
P 2.9326960081098576 3.133867159451571 7.842681965788335 -0.599659932968606 0.5587066304846959 0.3346517021491785
P 7.170718358309859 7.571570711254145 11.90191779704005 1.8029536959519015 -1.309758259796138 -2.0000014995709554
P 5.282486429524075 4.924693624040978 1.8455737365355755 -0.6567340522737786 -1.1829684211623819 0.9120623368012808
P 2.717333085502821 6.323411878217686 13.024087411353289 -0.5560041439518683 0.23122033573570502 -0.7980313404950902
Ni 8.695858847852724 7.550189932497464 2.255503608265581 -0.17937044094394913 -0.0395268544500287 0.7126303492207663
Ni 7.245504523028893 5.231567397188914 1.1686327657097795 -1.0993142373758358 1.1139741533808558 -2.282319168203108
Ni 0.7140863490411811 3.8324300946480716 8.891526497345485 1.1722371507878069 0.00740426288387112 -0.5331830322922946
Ni 4.007582998670026 4.505179650613945 12.454790653087532 -1.3933371102600585 0.5324608094142894 1.5442914619551598
Ni 7.02929419150772 1.4422340987455102 6.344886710051651 -0.21040417032130215 0.2686041757008019 -0.09287673082607875
Ni 6.692081316796516 7.436851318278142 9.713906118301818 -1.0285687912311576 0.04677787958548718 0.3773476983558082
Ni 5.1780875137396025 7.516991989872217 7.42660605138437 1.111537518914905 0.21964368664169914 1.9928903424474709
Ni 1.8031371743090643 8.30032375304 3.545110049389195 0.4531265931593357 0.8562110341596157 -0.5467499723434519
Ni 6.637390849184152 3.238126392447999 2.6784761275245965 -0.24931447423325448 0.6994529312985438 -1.9858964276281412
Ni 1.0242473238010967 5.7626134207765585 7.4756300538950615 -0.7572184202437863 -0.6037934955210054 -0.41531389318693634
Ni 7.5106503912949965 0.3569677458150465 1.4886767633331384 1.3145641658252134 0.5118251354418089 0.16239473232155904
Ni 8.519867847102502 5.805812651025794 12.756762491593692 1.800657700828873 -0.4429910473872306 0.894499388216853
Ni 7.46240395630442 2.942082691466449 0.48455214197773466 -1.7984617216188188 -0.5898128649711971 -1.9435398170388012
Ni 8.999240551299547 9.041415441103121 6.825974718885882 -0.9701666971431808 1.1027546305159523 0.4220746089495377
Ni 2.7947545988229616 6.975981927404063 8.220241748216905 0.26302745294397284 0.6455566955007205 2.02314399912569
Ni 5.479634716570106 2.715088848708239 4.552154041014729 1.7890064897431897 -0.5280439112935164 0.35277437989181826
Ni 2.813574526465493 8.37574314639817 11.786436448852125 0.010731527484891196 -0.10498148450941275 2.8273945810576144
Ni 8.797696912523048 -0.020952418206677585 4.557237563280963 -0.6464262425898674 -0.32481157613030515 -1.2469747488110137
Ni 6.0995562420975435 5.027928516591746 8.410084625448208 -1.0718088328667155 0.9445875631224958 0.35902858833164625
Ni 5.151920271445929 7.614127400678375 4.6324986494793485 0.14387353358891997 -0.9869524012419517 0.3885975602380146
Ni 3.984367719297028 4.53436404112938 4.307684950253563 0.9222415913271278 -0.307449944923406 -0.5359533959485802
Ni 5.799359306218136 5.737675387017678 6.131779198862239 0.7847315380623905 0.5279901752374455 -1.2970423548913663
Ni 1.5353373330701157 5.956278950307348 3.4077264400358906 -0.2143785815880179 0.3124129453556362 -0.6332693934929352
Ni 3.2652900386297223 8.942426905308906 9.85268003700546 1.4645332707889103 0.25181332939570833 -2.353933904326617
P 4.503680388688934 6.638368628700464 9.790721408321847 -0.27467917825028826 -0.37718983262170525 -0.7667965508505244
P 0.7586144282140123 0.18548663668148838 11.115164736783765 0.3385417812322041 -0.5072650268749521 0.46743889601694977
P 0.8966098481789517 5.892900213278615 9.643688511970428 0.24122141281247486 -0.19039970217491725 0.7376921772854005
P 5.9325328763397795 3.7626073249975525 6.627804885049951 0.023560560928759425 -1.932542180376717 -0.5849768770351345
P 3.4898999618053064 2.7331917380388084 3.402751870344332 -1.001950931533313 -2.402288641480921 -0.6887872240545815
P 0.48550477859219826 0.13767694320819798 1.7785995645425774 0.6835064352716165 0.2514778004331605 -0.05138401089893086
P 4.466049845589741 1.5971050619434013 10.338742615531249 -0.5001978356155257 0.4125931518216636 1.3311752920193332
P 3.1419966977157623 6.230364517008298 4.951016379838674 -0.2538702119247369 3.3335548049041623 0.16767809220768543
Ni 4.920391394169208 7.238613505485364 11.93627696924324 -0.7185515998012076 -2.995691023575589 -1.3339428274621412
Ni 7.772360062975204 6.760674877912243 7.60223294566709 -0.19429363791268472 -0.24746765083250286 -0.9781566573271928
Ni 0.3887455800951742 3.1340068422396157 -0.005005299904928534 1.470331879748558 0.37789380066726536 -0.035587667296622584
Ni 4.279545386992702 6.430911751896747 0.8832580360790698 0.6171642604009564 1.660962724097675 -0.1014701289220446
Ni 3.056250090228168 1.011787619107526 1.52404444526601 -1.045331098291161 0.4403780352444158 0.899226104268561
Ni 9.432033701776678 2.298228848254051 10.426583533620924 -0.11768067724363604 -1.0834158209780245 1.3052593434845197
Ni 1.3485628210828569 2.464926287506378 6.47031812884128 -0.9011369481380287 0.4763251427629861 0.7362670148030996
Ni 5.258889350530421 0.7259910474569218 2.108238838486008 1.6020093854919186 0.4880272616912627 0.5692563809760841
Ni 1.8133619543939228 4.704739793800212 5.428546202452117 -1.889182582444159 -1.663012664648168 0.13110003597333553
Ni 5.566359103574012 0.4323936577033249 9.005631504461876 0.06517797935922967 -0.023887348140558862 0.8782680139596551
Ni 8.089402743092778 4.147461342617806 7.315049789540497 0.026771354556573247 -0.5738887375417728 -0.2262246822933265
Ni 0.010303002446163593 7.862138846944349 -0.2763670522390122 -1.61745220240955 1.907803539979456 0.8470111128279025
Ni 7.864308586251974 5.34910580723544 9.845006795848882 1.5177057410468313 -0.6482658669017674 0.6922121905757304
Ni 1.8119371899558687 0.33169167970909763 5.71041489410291 -0.6309363744843843 -0.16616551221790093 0.29811066980035106
Ni 8.846502078665802 2.459879082765036 2.218308875465087 0.8917961303530769 -1.315694936995547 0.7773473297831774
Ni 1.7052474764474665 7.356803768542765 1.2621531859613448 1.1641600302066273 -0.2782185588621144 -0.19861026301016763
Ni 3.874027628927729 0.3855850242110202 4.532595657032736 -1.193955259191189 1.1921359465942631 -2.7499758366578186
Ni 0.273568740385187 7.811527116742886 8.694692030963258 0.6056009810433892 -0.5026362698536893 1.8546007307042316
Ni 3.8042793567641664 2.270385412503844 5.8546541346934395 -1.5681348442316607 1.6655606278810027 0.4225420355042594
Ni 2.8295169886743072 2.8587106913756113 10.970639612087036 -0.371190934725793 -0.12106939121021083 -0.006312315371273
Ni 1.439738432932448 3.6600801585728764 2.8929199373863006 0.7412726955478073 -0.25425510606798146 0.2935305066288364
Ni 3.7748807859737306 1.3436552991295596 12.631508935554173 0.3979931425203017 0.5025329115066055 0.13421749855639467
Ni 3.658655394134822 5.163532567225364 6.842766452446007 0.15314236048535562 -0.5902962323655189 1.3983111664358823
Ni 6.563861829557519 7.897245787672872 0.16101793709043682 1.4081788032585814 -0.6013923422786804 1.2656072763105364
P 4.055792184917124 8.465074945445572 2.759665351247592 -0.7474454000174223 -1.8462572438355427 -0.7863719018792908
P 2.64931687991101 2.9559485362263347 13.801327142525158 -0.2573771966367309 -1.2645214994455254 -1.2502457062528018
P 8.995096628587559 5.384110313919396 5.716752767805783 -0.1264234564332726 -0.1458183160201166 -0.36905897598445475
P 8.243659102023274 3.2670500417590835 11.88349084364122 -0.8527616421584346 1.2605486308407063 0.693456861616109
P 1.7443400327281922 9.062339922752189 7.698742577582808 0.7000609971961879 -2.358167997012623 0.06890350783993295
P 7.727642946429218 7.06698060772213 4.255688498013285 -0.7092524338874688 0.15526300637278423 -0.19663925532672585
P 6.059225165096156 1.0248991768119713 -0.07922621494167625 -0.06858854770267542 0.5485919106481972 0.618392990601735
P 7.474947470670817 1.8190703243320088 3.9022938379164174 0.8498043593023236 -1.5734356876192839 1.4956515894602693
