# total energy = -340877.3276816764 ev
CRYSTAL
PRIMVEC
9.13425933721137 0.00000000000000 0.00000000000000

0.00000000000000 9.13425933721137 0.00000000000000

0.00000000000000 0.00000000000000 13.36891184509024

PRIMCOORD
 96 1
Ni 5.964881234115485 1.1175035181672877 0.3784323515854795 -0.38347900806452667 0.4579224718860823 -0.41905047741123314
Ni 0.8967348714095053 4.714821348914443 1.5169300507057981 -3.3256712883910273 0.45348140539559323 0.3343673381395403
Ni 4.9723069766924555 5.29945959808723 3.0810659520752157 2.2971076393661924 -0.9943489508163393 0.36103173480460404
Ni 1.3338667117952203 7.2232167579971085 8.365810258866183 1.2664156311444448 -0.14986934616103867 0.12764987264120597
Ni 2.0368758237292015 2.507545922992938 4.093467032147327 0.14481969955227317 -0.36132458345467444 0.5865917869307381
Ni 0.1708791507913434 2.598157772563972 6.204083729020375 -0.6697970561053239 0.7099831414059063 -0.9250741756799165
Ni 5.306767005310701 4.633718262992949 7.979836663026081 0.12920821826726137 -0.21437112538885017 -0.27679442482107813
Ni 2.814402220824524 4.969009509182864 2.4401469658931605 0.6528028355401725 -0.3978879844010051 -0.43524482778290846
Ni 2.073321517256261 5.1489726805788845 4.599641082832198 0.1883973270329078 -0.8320802025496832 -0.7285704174897903
Ni -0.2136019071233638 5.3626960733473386 5.949512843298624 0.49110667194753493 0.4026717789428936 -1.1172713360748887
Ni 3.5302541009537545 8.861637934348522 8.38139878532565 -0.4563566700608592 -0.8357769346749799 -0.09301839861026562
Ni 5.376433998927464 8.384482511173955 6.612156751156057 0.33500831415764887 0.9985930708046739 0.9508841947644848
Ni 6.312037882784511 7.095711636206577 8.988948496421727 -0.21932718384254485 0.9216975458981997 -1.1057965026660697
Ni 7.611852076918359 7.163798403011264 3.0813070965135902 -0.7686194629918763 -1.3549459120763696 -1.221744256378999
Ni 8.282525911888483 4.42820656909187 7.9250502907940135 -0.14609548094090324 1.2140222051443932 1.7740388126897644
Ni 0.9047501837077495 0.3691035328388164 6.989334055550906 0.4933065078123311 -0.9618304093633435 -1.3065070998486918
Ni 8.859756276988477 1.244661538114704 0.3364449031053208 -1.234690789237338 0.49560713092104963 -0.23591645565979372
Ni 3.2852732737869053 3.425502418405304 6.354149557187468 -0.3873215217390685 -0.5654241517141875 -0.9179655896595933
Ni 3.621286126440138 7.112290316344826 3.4411046462533164 -0.7709164865561691 1.209017809951266 -0.005097726237881543
Ni 3.575176386860039 1.540501919556908 10.186682778773207 -0.3791675251733663 1.0726678384329011 -1.5145828791471334
Ni 8.156884178939936 3.4966674305028778 10.216602044223805 1.1859809827364607 -1.123998370386077 0.7443510773628148
Ni 4.736168112266006 2.0053352273008973 7.972256141457634 -0.4959058931083911 -1.0661626903245316 -0.39349139799520616
Ni 5.990237937180928 5.320751555884619 12.45564094249393 -0.2599534420043394 0.1411687330632472 0.6838141963200223
Ni 4.785072935109082 3.2324407195612133 12.584196504072835 0.2391079660138979 -0.9921010353224268 0.6852640413926715
P 7.523880028206803 0.09982923035753956 12.215375219838025 0.9632535149631154 0.27946065879933163 -0.39157566902973207
P 8.495829128741587 6.653458216783113 9.391004782134784 -0.6230813972163398 -0.8242797326686578 0.3843565255734735
P 7.3338691718785105 1.7625100852649715 1.9167009448097143 0.7499964485740503 -0.2264033739630359 1.0514708926403118
P 3.3615260681638195 0.5533424508864698 2.6758546932934255 0.4293078934731832 -0.23122162128728568 -0.3336605418805028
P 3.7661737431635 3.8098446355827655 4.142651363316701 0.8467524598498771 -0.3167385693141836 0.49503146092323774
P 1.4403721720773033 2.6281729477343774 0.7164657023360022 0.3502816953769516 0.32192217039765203 0.06066466486990843
P 4.486821109283133 0.9607687674828744 11.974975223574388 0.9933271944200441 -0.34912958405037936 1.4235655701272967
P 5.41540074794662 7.21505073042488 4.72996138325557 1.1037858999939443 0.2159389840966023 -0.6179764718896067
Ni 9.18267060219364 9.09407742386809 2.7390756403131835 -0.8233981013946529 -0.08656004457943157 0.48585339396839555
Ni 5.383312095976556 2.6532464887699105 5.319717557762497 -0.23402309529182277 -0.2962065107991028 0.7941037233059098
Ni 5.648662320778827 8.10259927752858 12.529918910068702 -0.33630517859220144 -0.4549351071229843 -0.7241134101597013
Ni 3.522069804863467 8.536577058271465 0.24374496192017966 -0.1232594568829942 -0.35970915933843856 1.2880236963325238
Ni 3.4254202100740403 6.318788100207192 12.183409880364858 -1.0018478302965457 2.3335406853822453 2.646603348506739
Ni 1.9267714653895596 8.942320844354667 4.3989732864943765 0.12067369843368896 1.159940849918957 -0.3107748955315809
Ni 2.0679049016518634 5.416213697000232 6.756928362789746 0.4621262255547848 0.9895561574133861 2.5650525842164402
Ni 7.943608364863921 6.899882256876596 12.104653385587998 -0.6319144221269375 0.6203174613179575 -0.21545201715785475
Ni 5.5189101712670805 0.02385594430692244 9.909171201499273 -0.5008115579401247 0.16057182018020733 0.12301083120729782
Ni 4.560333625951246 9.455876289761143 4.545523338361077 0.254132207336872 -1.1319487355814053 -2.230363343961107
Ni 3.1529269947108243 7.419466313242439 5.825676953360178 0.19618031341243633 -0.12300106101528493 1.1880229528671542
Ni 6.524710835764591 1.9239033080543475 11.258682158734041 -0.2772304839172322 -0.09014904748227055 -0.1802713554916637
Ni 0.8251012718237267 8.377330386353984 13.001694254674987 -0.369795339929847 -0.3478859414512654 -0.6804959305800667
Ni 5.956057539893145 6.493654355064842 1.2896075730944654 0.22926475467123095 -1.2699660674998645 -0.8320172105222315
Ni 0.9468572909811924 6.095199707687053 12.637992722626123 0.39911131528514493 -1.6983889872649331 -0.09723423646382609
Ni 3.783190867735157 2.5134283858078312 1.4045110711281217 -1.4495681648386456 -0.46860900506565106 -0.3310038209839461
Ni 6.996066004455527 4.938692903464491 4.589413452997047 0.021688797827343294 0.14130037354510502 -0.05622077016594189
Ni 3.2307965529359324 6.563120394982958 9.776016540499098 -0.624401401579344 1.3570097365839338 -0.9199887907372092
Ni 0.7787860114154675 7.7579271473155345 10.613806211540478 0.7080823248387675 -0.24611062258397615 0.5317177606006778
Ni 8.870872670227183 1.8226865837502515 8.574592930925668 1.2634215815131273 -0.8039973282705379 0.04109137072367117
Ni 0.6847552086897518 6.886893340536878 3.9686419019560035 -0.1667913187273579 0.07829857590158774 -0.010417852899214316
Ni 2.4084300782655896 1.8937602532575317 7.89773794287039 -0.9635335080973794 -0.8372977421948807 0.1959622838643593
Ni 2.934061014108853 8.640004273260661 11.41118135350655 -0.5425552175358139 -0.048843246754948146 -1.3196806611161722
Ni 7.487644422637419 2.563182694740636 4.230137469447896 1.1643868015054528 0.8033170143740617 -0.6552019318999683
P 1.1189924023890698 3.7042708697216753 7.63421000274447 1.915844922226694 0.5774515151923668 1.5624442216047867
P 3.818439973329373 6.290782462023242 1.0233110390567528 -0.6898508894324055 0.9198643493442029 -0.2666755912195214
P 1.903789669671745 5.136422208672574 10.715890690452358 -0.5381941123536408 -0.3360624664537761 0.7805041302446041
P 0.10482932375019927 4.450019179653929 3.8383216015326305 -0.19751394462219532 0.36546174555149963 -0.1881669561896566
P 5.169141124515664 3.229983603882321 9.797192493206811 -0.2634781673281462 0.3746228432254774 0.7077226275065037
P 9.10840907628512 1.084958153245756 4.695950883185733 1.688695157015937 -1.2698544816226647 -1.2514176150737155
P 6.8272100920391825 3.769854849552323 6.526141260728585 -0.33564517641069935 0.9578362006022859 -1.582591900197255
P 4.292297928994348 6.568902380948529 7.867403982059861 -0.2612580197483758 0.7508073745111199 -1.419441006435962
Ni 4.631800068596788 5.3256383844653135 5.688766285047137 -1.2207659516261298 -0.3530397177380629 -0.9122777952461966
Ni 6.769755602744645 2.726777273956083 8.441518651404948 0.8128894885538451 -0.5743839320106365 0.5041239101428092
Ni 7.891460880065429 7.6995044265638874 5.288447335401461 0.3955601075987768 -0.32386823838042933 1.129302299097494
Ni 7.635354525400846 4.254418156799682 2.254760784911422 -1.3288001069189375 0.5153912555265123 -0.32490285029253074
Ni 2.5659503752265262 4.32221262731543 13.456744770998554 2.488320067250392 0.5484983224931262 -1.5113006088514358
Ni 1.6667008423062437 0.5226157169376792 1.2743095160721296 2.388638140577022 1.221720088009283 1.0739181659002344
Ni 3.109256102291559 4.0049706769674875 8.734510970881805 0.9948071213996803 1.4202922986926634 0.06743077994914838
Ni 0.10853965976791641 1.3175620594278519 11.172720560434843 1.0923270074247253 0.09564478048951915 0.45152865254459656
Ni 8.413483783592104 8.006990988268498 7.741254384309284 -2.2267280612013653 -0.07620235549419134 -1.2139095908259288
Ni 7.448723344913408 8.297679647618155 0.8561650599306998 0.8484010511968937 0.15482360484252045 0.5325821654835021
Ni 7.023267827844897 0.15281249985721548 3.879804838914369 -0.9846666905315686 1.1221232648505512 -1.4717639842093944
Ni 1.7505442059365388 7.235575410463802 1.7648831657607937 0.4599436160811691 -0.10283024249436483 -0.06821239531017931
Ni 7.970499623446292 9.015504527697722 10.002030992217428 -1.3159127094333078 -1.028499628556119 -0.7042889192346065
Ni 0.6653019772349704 3.4408388393155627 12.156471123635534 -0.22276397743823573 0.9594493107256765 0.3585979285521308
Ni 7.4306101092582315 1.070507755461343 6.022453555351501 -0.6705287920650258 -0.42046561259120496 0.1119543162828201
Ni 6.601027569954711 5.077113464795081 10.073862805224143 -0.21679336167709762 0.2941681402128353 0.28179316358725015
Ni 5.272942844125062 8.530521044535014 2.103156747523788 -0.39953246198296355 1.040226430074744 0.6388841685765514
Ni 1.4064932053374881 3.1181894076222516 9.891310071393306 -0.5237599392061818 -0.38606528073446417 0.5055781260908325
Ni 2.562406282723143 1.9465105991519596 12.369331328925714 -0.1649475806503998 -0.6884869192053433 0.04696736988847395
Ni 6.486127725624668 6.279894425260269 6.5613812320637726 1.564746387375402 -0.24633276589711123 1.0877154767946429
Ni 7.537499208419546 3.191674521513277 -0.16770499577864842 -1.5739933598949667 -0.9836390205980028 1.6842890575284413
Ni 4.046741643508651 4.7057236269212215 10.944299231462281 0.9341429707504041 -2.781180030174765 -1.4831372590433425
Ni 0.2821061095656911 2.6044695455532447 2.5260829882670763 -0.9420478274197776 -1.1251448252856946 0.19151478961596693
Ni 5.497837435686397 2.4728905442356286 2.9296363790350415 0.06821625196492123 -0.06986381487067322 0.03687990374548487
P 5.450887344275598 4.043654263956734 1.2414079150484538 0.821912775098378 -0.04355140222838951 -0.8080115916362536
P 0.925693212810216 7.337486338454129 6.225140022934806 -0.3094042404362994 0.2704929080830825 -0.9838596212492411
P 3.823820051897653 1.064077237104689 6.240634466526272 -1.4208952223839852 0.5023670753527025 2.162147091996186
P 5.139564393778667 6.723718937236781 10.877855717856972 1.0442044408858855 0.43105804339507053 -0.4619411061271722
P 1.5599487570303687 0.4814576591773844 9.555964019649215 0.17685718760379218 -0.01221608245021767 -0.1835551684492581
P 8.888958503105272 6.607065315173104 1.1709699899696155 -0.6766649868697509 0.6347729746216553 -0.01798358106161419
P 6.999135115489385 0.5631352899918233 7.919020766408748 -1.2270643830403318 -0.9607245778936746 3.3318578768177134
P 8.025688816501553 4.710327293472009 12.002100319187912 0.5024868887600185 2.1488336627167315 -1.3142486914673237
