# total energy = -340857.32194545714 ev
CRYSTAL
PRIMVEC
9.36782285916980 0.00000000000000 0.00000000000000
0.00000000000000 9.36782285916980 0.00000000000000
0.00000000000000 0.00000000000000 13.71075566844091
PRIMCOORD
 96 1
Ni 5.8627115273215695 8.424230321584842 4.6371698262706005 1.0914374057309204 0.2940364997309775 -0.6913781247102093
Ni 1.0255330586208848 2.3315949457623413 9.811636763243614 0.5272011036772469 0.5049276369910272 -0.7222604161113626
Ni 1.335654840099998 5.308988875714595 8.610464517028463 -1.513002164923575 0.33593339707507947 0.9884089311828205
Ni 7.187555899642474 0.9706188800064592 12.412786132844369 0.2621625338405163 1.280060475621389 -0.7418051710125095
Ni 7.0299797484187865 3.248789131016485 11.385836659381026 -0.4480586917181251 -0.15123331638810084 0.5634698562012941
Ni 3.6717557087408 2.3684198581016975 4.3582101081079125 -0.2838024807077951 -0.0564583400980447 0.2360632656503031
Ni 4.045766043299132 7.518895800289391 9.644282478338976 -0.9161233942445319 0.9970349822889346 0.7789506697145552
Ni 6.629214911280653 3.1710549354957585 3.717643989863755 -0.6868576111320365 0.980564238327421 -0.20420266949628058
Ni 4.411017463322409 1.1204572094055958 12.4351480632044 0.20659559520848939 -0.28344869691280217 -1.1434261400933856
Ni 7.305356274271678 5.931040428518025 11.585739445410846 0.5744944894465719 -0.7658768672497326 1.053431101690476
Ni 6.8491245569602235 4.636163722076947 1.8917007118189435 -0.41125720661905946 0.02386369399147503 -0.4623583961702489
Ni 3.136543875445341 2.9132056065360064 0.10322404199118997 0.9932675448267023 -0.2721409852094668 -0.9650430027633702
Ni 1.7467804895116823 5.840331798097778 3.5546644783151273 0.5675856781418805 0.13739641050500853 1.2418392273566614
Ni 6.76686570291497 5.2198259360946535 7.938459047906129 -0.5179438467450369 0.11879113669899542 0.05877464693604716
Ni 4.703874346953282 4.688042726028959 4.4370197297127305 -1.1919094324057538 -0.779016232845168 1.2253355732746831
Ni 8.650322730465627 6.969491715100236 3.6812012847041102 1.819076055435061 -0.6329297507653293 0.6999365558031816
Ni 7.858460649558531 8.522648670360542 9.807783777630494 0.6984620281401842 0.9078788948475526 1.0577695811648298
Ni 8.535126610639358 4.3042430164020375 4.306273960435406 0.8009161182420529 1.813454595483225 0.6253290555999359
Ni 8.3578873988712 4.273600867263895 9.702813573426113 1.575737596279583 -1.2496535811947576 1.546689529873691
Ni 1.8658923593653878 0.3373390545167027 6.69542855803645 -0.5437757202064765 0.9531681057026553 -1.1299314480410605
Ni 5.971743619592688 2.117896166753082 0.5800668435379683 0.8790794541173569 1.1699506687464754 0.07942523330686321
Ni 6.157367032974613 6.428584245401233 0.31161407568813326 -0.09591551765240255 0.4436219961030101 -0.23050016974022886
Ni 2.2380478649633555 0.8844349081107384 3.0166132578586264 0.8305311128950084 0.2443581586692437 -0.875882030225982
Ni 8.586377970448215 3.870344189199211 0.005554182275757921 -0.9534714958756869 -0.24774892951834748 0.44211764364334183
P 0.8125012686115144 0.7156482830644854 4.5784879092326465 -0.35685883437383703 0.0910173090198368 1.54879089248741
P 7.24212346880471 0.39682379398851114 7.268428315878969 2.3294611159962333 -1.0851430880817763 -1.509762574940355
P 4.432357364189632 6.911111441963917 6.743004920869797 1.616392650796784 -1.4586791260009782 -1.2471881503734004
P 2.9687193258244897 6.785732498501707 1.6887946017250168 -1.4660288814978302 0.6092558041871572 0.2726040408888144
P 0.554495497007126 2.0420542714848477 7.395649910131601 2.0475877339903508 0.06474114893212721 1.4471425861162883
P 5.304689044942841 9.306370113052706 9.889856211997406 0.4072786815872857 -0.30095559544831396 1.7373278304219757
P 5.747159430220079 9.219567864836863 13.564105635229362 -0.7398904704882999 -0.16137966079348337 1.3659839150580861
P 9.181038008705656 5.960717691883856 13.482362011450878 -2.015417834126026 -0.300599754770792 -1.6892471728646647
Ni 6.496547801499435 3.2740447819111447 6.882552696668124 0.041601477590870295 -2.782011782047441 -0.5871080644455244
Ni 4.4093499908226885 3.929689348107841 7.83547763253147 3.5110012893525213 -2.9027165908293817 -2.34937251020818
Ni 3.816310585949807 8.113293539501933 13.76271940880996 0.6032674478142063 0.9455905504657134 -0.6315570387875189
Ni 1.4832355241483874 3.782904929017183 5.299535805492859 -0.008821969167004161 0.039853898772144264 -0.4627803141990159
Ni 2.4572923952076433 6.42459355278954 11.165258151136959 1.6546223837019438 0.3576126818207261 0.15152565081753902
Ni 0.1671060375942866 6.728120386854024 11.059027037952452 -1.7370815187391246 -0.6670454615021157 0.6077928464883856
Ni 4.378614163454225 3.481701315064671 2.4595313049123257 -0.18330114345692303 -0.11518567873592421 -1.9946266084122872
Ni 6.441577415946817 8.182015889265738 11.868263620237263 -0.8543775804953029 -1.042847926857991 -1.1804911632664832
Ni 4.223023990713353 0.18104910539532906 5.7173716265424686 -0.22531142645043778 1.1317607879403153 -1.4208741393380626
Ni 4.660135981216204 6.09586727476859 2.509781244439047 1.5555575217872823 -2.4771259983067857 -0.6878983936917249
Ni 7.7257092293700245 6.633140029131121 6.258220078956367 1.143816690663585 -0.7103199559200348 -1.9642598231949717
Ni 4.788409581995346 2.4554281984242468 10.14738516140946 -0.3249786978357887 -0.6086148281690487 0.007753675803489871
Ni 8.711569557449783 8.066641780801858 0.6770060130568931 0.09289755676168517 -2.6002586998039283 -0.7387355309482503
Ni 9.013335240784222 2.0659984271550065 3.3426959362199056 0.5564618003145771 1.597679390657997 3.2677543614695845
Ni 3.838268763137152 7.052275167235289 4.5588679406741255 1.2791258796222618 0.846660414356703 -0.46120319951988314
Ni 0.18329925648765 4.275071615479942 2.270336877390548 -0.3418772733633403 -0.43521705986876663 -0.3809241028531569
Ni 5.770204274879151 6.069937140615617 9.84613283477718 0.16681137333201596 -0.16239987452788163 0.5899992699503903
Ni 0.4156924631398547 2.6192152163182447 12.117716569413306 -0.08961502935567146 -0.28376828503574997 -0.6979346948818045
Ni 8.625123286509162 2.6192995267255346 5.918193396011743 -0.528498996553064 -1.173712706892069 -1.3994532504601251
Ni 3.957596092920596 0.9158855003765541 1.1325248390356029 -0.7555454034167374 0.18844900620644967 0.43016612770842044
Ni 1.4970624309438314 7.39643961761321 13.309469469569635 0.06247857815019563 0.41530129478144606 -1.6346271715269396
Ni 2.63077510993991 5.877119239145006 6.015786439578312 -0.9985956419078352 -0.6766621586562733 1.7112470741745238
Ni 8.980360503711077 8.845388909463953 11.885484489317253 0.634388851809359 0.12463499707428213 0.2008689771373573
Ni 1.2696116877233856 8.432670730136804 10.066395647385061 0.7998149147580741 0.5992223312105551 -1.0201183464709593
P 6.449296502125303 3.4102810322676085 9.19225316643974 -2.285226314547574 0.9012799014737962 0.5434612742898511
P 4.5969781183334915 2.2629943776979538 6.289069256983519 -0.5109866987009135 0.08490348281261506 0.23218167120770983
P 2.1764075894118506 3.838718418642695 3.023770274655184 0.9214270658456324 -1.883807434175175 0.4496072671521676
P 0.5087992562563296 6.107324122336903 5.463804329490709 -0.6810042376750529 -0.36070340493090786 -0.0921262258132994
P 8.339779396950068 6.211831556083496 9.264714214375672 -0.6578056880714026 3.0028852273311832 -0.8761692224490975
P 4.885404021670159 6.259560614432267 11.972904077070915 3.2625334793902785 3.516551786857105 -0.10575847188475335
P 2.8384222752704047 2.346770819074414 11.445505944966566 -0.41355551573493293 0.6416817859263464 -0.8081370614705243
P 2.0442557098974015 7.262573426483879 8.070301789260517 -0.7404630551623184 0.7841491831963592 0.6280017173360926
Ni 9.15674724358331 0.8631268578418246 0.027885198819781756 0.8587857368653274 -0.11436266861399658 -0.443483670752933
Ni 6.341070042634949 6.231644501796479 4.152329714201281 0.475133179337414 0.9169137513563113 -0.9297659247286311
Ni 7.968644984062604 2.133549799039794 8.631249842772183 1.51090517318523 -1.8125354261030653 -1.2576288860907503
Ni 1.619190739813887 4.483112229377786 13.04208275998086 -0.8262954775471059 0.9753310149529395 -0.12091306813800468
Ni 9.337799159325547 8.902832400297056 7.778851952649072 -0.4951307055052634 -0.10904819837961864 1.8257033309435913
Ni 0.8221435688584998 6.310137490982811 1.5341102974713525 0.41391289907435164 0.7979017568957613 1.0797674255921599
Ni 3.5477538352643156 5.322188138366885 8.93265299135528 -1.1556386229991775 3.012088748207322 2.0066434303675056
Ni 4.18726701019966 4.635048951136123 11.177611499369448 -1.270220863823148 -3.305435935180759 -0.44930079165534237
Ni 3.647343161919034 8.551473461830449 7.581389484519124 -0.3745863335605871 0.7203367167260885 1.819506715214576
Ni 5.572065449926283 1.2060322728042272 2.9384069240570794 -1.3702293205980014 -0.34215212429128167 -0.29192510981492953
Ni 3.1785491939214734 0.6155025077216577 9.613036104615261 -0.0016953854245519188 0.48628713907170446 0.49778742640182005
Ni 2.3270609194147833 3.2707192047347338 8.055055657275702 -1.0585460543195384 -0.9142241203392899 -0.6700487671048138
Ni 7.229598689410734 0.19911307854821153 1.3178241257406158 -1.595564144087207 -0.8972021318599968 1.7903887148026971
Ni 8.660158944649378 8.788507488012776 5.626743559400299 -0.6183081441974126 0.5611167825880853 -1.298487314868009
Ni 9.35769641544582 9.234790577264096 2.6756544765223036 -0.08388044086473942 -1.1031626645876484 -0.27420121017260524
Ni 6.891542059649769 7.544582371043529 8.126625825241279 -1.6066754235090202 0.9640454147367913 -0.4909961145115995
Ni 1.721890183715277 8.172741744463915 4.369577024575116 -0.2959684266463677 -0.6889121796682199 0.6335223900440058
Ni 4.608809678823088 8.330795654662241 2.364516286244203 0.5557112953017979 0.8996274534720377 0.7527081910782585
Ni 3.550938895095244 5.826710983409042 13.494674141262024 -0.0006851989924826909 -1.7982953712442837 0.9302253808635528
Ni 1.1475770570836512 2.526942159451631 0.9622412358688133 -0.34979755665168144 -0.04544836214078624 1.213695932153226
Ni 1.9763764642064892 0.7482736003385317 12.81682877126145 -1.1081662884498271 2.014459069757182 2.0279545331404556
Ni 5.358123107518188 0.7402800369452036 7.972653475538058 -0.6606236171361719 1.5051057928946336 -0.5748508443447261
Ni 6.963561883120889 1.2271848172108073 4.6547054542044695 0.8045776262540402 -1.51658345451693 2.06190106528923
Ni 8.932537767131985 4.415204880217778 7.355149064034431 0.5663476919697213 0.22978334617886234 -0.981280547668155
P 4.925226637379802 3.9529683883427174 0.12296672903143253 1.1791840144192853 1.3258993883323746 0.9283587599684592
P 8.770071612285518 1.1797648970220966 10.472618178221722 -0.9333703542504377 -0.8612676227469166 1.5548653808162642
P 2.708809075797666 8.612654714053377 11.82674730212341 1.0293344657525885 -2.5444688465278182 -3.0294745477839378
P 6.730096997513807 4.72060527888869 5.421712827042682 0.28351657403626007 -0.7165991040605272 1.2205630915867045
P 1.1289350892496854 4.831005073322502 10.91616117923614 -0.379206863051734 -2.1659533531161537 -0.6427999586911897
P 7.027525378784365 7.461040125242873 2.5450454774612483 -1.2893933229865406 1.2516053056044896 -2.415198664674369
P 8.321886854958674 1.9985782047926695 1.5151348351374427 -1.6533095784277914 2.295228420065609 -1.8209236501667605
P 1.7130094874808048 8.885970318839199 1.1922531419062472 -0.585829711953733 1.459312645819919 0.6650780533630998
