# total energy = -340856.39685487 ev
CRYSTAL
PRIMVEC
9.36630108163426 0.00000000000000 0.00000000000000

0.00000000000000 9.36630108163426 0.00000000000000

0.00000000000000 0.00000000000000 13.70852839319360

PRIMCOORD
 96 1
Ni 6.007002291936116 4.921129538064825 10.274953152270529 0.7126902559244241 2.017114247991842 -2.8443042123287596
Ni 2.0480260362684173 4.028652169688163 1.1977401079101164 1.620907765058318 0.9016331710481569 1.7583838797613265
Ni 8.85739251352018 8.647119053410027 4.59877236236001 0.08364081405010756 -1.5600487247894164 -1.1798270473199228
Ni -0.034138294316680896 6.456004034954402 11.31479990244555 0.5380100213672928 -1.3936716107813416 1.7020594941379847
Ni 4.553923702714332 2.365393783367412 4.934782795205251 1.36483206084183 0.3603591342176117 -1.0026695548668925
Ni 9.25871978384534 1.4704624440977054 4.161977719589455 0.6566471489869272 -0.691997246351447 0.40138417047972164
Ni 2.2635727239082817 5.745392135395507 12.706736214595926 -0.18171220170324834 1.1094963201151604 -1.5238046548557176
Ni 1.7103896135490053 0.5869720416442374 5.872006730545398 -0.42636243769161414 0.3599097053850189 0.22819234754265857
Ni 0.22387051944386846 7.65714785669098 9.552417951387792 -0.623485574633294 0.6758337492177071 -3.206832586283548
Ni 4.697340505440688 3.2244428230521742 8.479560609550758 0.28102517507297403 0.7181319957652859 0.021113384939847508
Ni 6.799775384906427 4.289222666804621 13.254638604384597 -1.2827881589651973 -0.8430125331914707 0.8230126930307761
Ni 7.725568686361565 8.930459028545538 11.055077992210427 -2.160301554147015 0.10222217659672071 -1.7810077878084294
Ni 5.625690807101175 6.586495342137237 13.070986045313422 -0.64867081564967 -0.268398487447899 1.6731543810678606
Ni 7.059577845331167 0.39432783349931055 8.163880669913315 -3.3539811910793143 -2.3686634972273075 0.2688546011487112
Ni 7.944365480489546 0.174235679926642 13.61614691876471 0.11728575579806252 -1.0232980297505216 1.0458378627242504
Ni 5.393013154715588 1.6607294850187588 0.6875426999040489 -1.36876302046512 -0.1590139887747842 -0.22352708085650536
Ni 6.3718759183081035 2.3679414172716418 6.992843886492021 0.7777386516843251 -0.18496876096733306 -0.6558822457964446
Ni 6.953663712283256 1.6201827674768055 12.208843316369222 -2.152843812317389 1.1533500840753168 -0.7213985823316996
Ni 8.010529031590575 3.99183323999137 4.860797446040168 0.5572768400167047 -2.31906974545958 0.5030530456761336
Ni 5.713181425849011 6.05475169503819 1.836654845667177 -0.6802840716795768 1.255434963763225 -1.0473578989132026
Ni 5.913854427312709 4.505752816061927 6.4896721409549345 -0.38891020638242696 1.27055279324127 -0.7695728280440811
Ni 9.185690734024455 4.339013923550526 9.343774227672256 0.4739905810925386 0.8084983014646849 -0.5205514595712132
Ni 8.240031507896994 0.6218980418849834 6.275476073936357 -0.11578166044871027 2.622156014097652 -1.3203285791128165
Ni 9.021602504729588 6.345865700102051 3.314187910479232 -1.9046092014118745 1.2285466240128133 0.8168029646756384
P 3.1990320481177044 8.288221127151637 5.712302866804097 -0.8636808601740996 -0.611910725311501 2.1958809939135215
P 8.829658895908324 8.316685316250735 7.283779931834631 0.33710273479283237 -2.6240522026791004 0.963492884667431
P 4.020484755112839 7.1524915524266115 11.756680446723445 -1.695585713488183 0.20322565029499193 0.3749596577396059
P 3.9303528394495864 3.2263535484803465 2.6304198299259354 1.0808254345430288 2.303029918387898 1.2787343006107978
P 4.533964115030826 7.996732470043037 3.2776134412416313 -0.6473438693081303 -0.43395773354036876 -1.93916662767177
P 4.028905059818363 4.366391621719879 4.939183083470718 -1.0065958865044922 2.122342044184106 0.8610107695411043
P 0.940123742166432 0.7694332072131393 2.375207793679368 1.2855986318307986 -0.29501274760131774 -0.7202863231041273
P 2.3313004472961 1.6913666559773473 8.154092885244491 0.24145564031046804 0.08509297311560184 0.052591143833154594
Ni 0.5341348637745984 4.263961752688047 3.243547267443563 0.17772750602388745 -1.2889060989374772 -0.36828147438848186
Ni 1.8868600929225194 8.054709873966505 11.037956393765823 1.1418068593224076 -0.48951541620101496 2.9003573465685855
Ni 0.24947424018137912 4.329591424625322 6.882517288987189 1.368206890851334 1.2623440321782327 -0.7160026081271088
Ni 8.839980559740903 5.650408475752876 13.568043469480356 0.885428022043204 0.03999222412222145 1.316344654764404
Ni 4.6395410612384715 0.7253825564227581 6.635201981213622 -1.2919549130661299 -0.8851282314145983 0.9805197582427306
Ni 3.15743630485048 6.139001573599029 7.299242758351149 0.22802445450622663 0.012108353227759792 -1.3381301260706115
Ni 1.8130068086032072 5.061970607983594 5.287337862346198 1.1831327146543882 0.39347648559687076 -0.9021574189827432
Ni 1.6353936404932372 4.014125036653382 10.87722411016171 -2.260720101876094 0.8745509701193842 1.1476448061604236
Ni 3.756120906043392 5.030471737322104 10.834192512933022 -0.1566611722718915 0.8984753421454654 -0.10070728261409108
Ni 8.077338857468783 0.38574549178443607 2.569937877083383 -0.46518069611039237 -2.3923230456277764 -1.8672608426704034
Ni 7.611693197362935 2.525276543460076 3.111301652061234 -2.3192682346236317 1.328735572229589 -0.9357509386674723
Ni 7.829000749613076 3.7067698654500556 11.185227429402438 -0.18485717509013325 0.6634518306135864 -0.9493402473161328
Ni 5.668438605405974 8.818850184417585 12.258303006055533 -0.6793721013882688 -0.12533099470004222 0.7436885040781515
Ni 3.2778494720298172 0.14187042641169167 9.97939764721628 -0.574240721564553 1.8413731762703642 -0.910707108324967
Ni 6.132744884451876 7.166391143286455 7.080304533076279 -0.29735965056693947 -0.3903734211915148 0.9449089510176565
Ni 3.604443025730527 0.36447649520456366 4.242255349845941 -1.260343713918752 -0.7751724336190458 -0.19183514906986318
Ni 2.5075461354427704 3.995523562632056 8.413047695418008 -1.5976588218327066 0.01920691194575402 0.2513194204784252
Ni 1.5863048563312188 1.222480255684502 11.797834100577877 0.9123562138926158 -0.6933527319380768 -0.4724731160067475
Ni -0.18884710967149002 0.5993720876950095 8.550571221480608 3.3004443955034386 -0.6111324523845797 2.7995312789884435
Ni 4.738486666254224 8.75476595216486 0.7256953908801157 0.28573569317476594 -0.6385380980910422 0.5504850139058519
Ni 2.0189249386932615 7.164527249363874 3.8520552452495496 0.4571951068017545 1.3312953625369652 2.2444092805312117
Ni 0.015955493955351705 2.729761629479001 1.3214895515478609 -3.6210951553878346 1.5681705825656025 2.484801512574172
Ni 5.420990296156524 0.9062739299242006 10.561036517003647 -0.7524181706416654 0.4670115786715441 -0.7906759285712834
Ni 6.5905509505215445 7.474851538021762 3.6907740963998945 1.749030977791517 -1.5041017771101515 -1.6657066665405633
P 7.362118737759588 6.092582185255781 12.098201074516696 0.640429144466168 -0.469192902593579 -1.9866988689247789
P 7.250303835007027 2.3737766228684625 0.8519962149425375 2.459777222615693 0.770238486652538 0.14185470338667827
P 4.4992057715801 4.724474679780959 0.0379222799685518 0.8932650015891196 3.130854688095337 1.7757036019866967
P 7.440252421690051 5.825436544754142 5.179096203470341 -0.9702831681163872 3.9099796786042273 0.8431855684342253
P 3.5777303349405867 0.8808519154283887 13.139117456279447 -0.04754483965849876 -0.7721102497539541 0.3167028309802417
P 4.8821938243152525 9.057793892251443 8.64669569659947 0.6570590397133652 1.5817375226167598 -1.5543707005680327
P 0.0765770046845697 2.193344198121826 10.54247531807713 -0.4902898324731943 0.6456705953707654 -1.6889183287703364
P 0.16684566834415152 8.820404990403254 11.778641612955973 0.7630879916506859 0.23642219165161862 2.1224736846659638
Ni 3.5645987807724606 5.486348345361364 2.764119095241855 0.04006858588611164 -1.494885400718206 1.7117263278037878
Ni 2.691106904762983 8.494860462427816 1.8967939918887924 -0.9451838019455979 0.7294181102020664 1.0343586584400573
Ni 7.590871909976527 4.900252052871705 1.8813854899187608 1.2026131919765028 -1.0992481600245907 0.540219884534418
Ni 1.537646922020651 1.80845478625962 0.3457897878430596 3.1808179073873415 -2.346620658494656 -1.4936666978197566
Ni 8.153440054056531 5.942421645724111 7.524885381966636 -0.3378650668801536 1.0288102178180023 -0.2787461492308103
Ni 6.706880410413219 2.2440252534739877 9.289502132471265 1.4784838194317311 2.037951496452168 1.2959864028230261
Ni 3.2533284957016044 1.5116273375134792 1.966693760505989 -0.09075042851169532 -2.5744203985845857 -1.9696856221962336
Ni 3.3467198841540915 6.576286073918081 0.7825029437938835 0.3757592708227657 0.35104222769205995 -0.6174751067731559
Ni 0.46743837013992623 7.03222824606517 5.840408577092052 0.21298247257143962 -0.775611063818361 0.38488900103817586
Ni 3.791244535237738 3.0658900777183358 12.926237354568018 -1.1150234205809764 -1.4011872024320966 -1.1873166708287488
Ni 6.222146228627886 8.704206658727237 5.42785111172582 -0.36319069012913585 -0.3234625183015784 0.5050250818008399
Ni 4.456411141769709 6.689093804589202 5.003228913888858 0.02048397888596472 -1.0858969355286652 0.4665508369850417
Ni 2.670088925053086 2.9746716711253387 6.157267734040313 -0.6993056070874021 -0.20610142918089022 1.5587891413507025
Ni 0.7398478718701575 7.989745209408642 0.04297446279186656 0.19703032011755744 -0.25584430493197224 0.013526573731525092
Ni 5.89204967830886 4.709713389218216 3.8558392309014207 -0.17421460777462253 -0.13692487018522873 -0.3331437501450843
Ni 8.976147845401545 2.4494938011103544 12.679661984582813 1.5793394546982285 0.4032140245996088 1.263301253885179
Ni 8.864089418819903 2.5618706819300257 7.799864996723782 -1.384614642785396 0.09628138563225354 0.12749586356184495
Ni 3.2644088299247804 2.7009321546362814 10.454960346946386 1.9443666838154707 -2.2084079227359386 -0.6665746925132843
Ni 5.207991242420889 7.602373727750035 10.036233299033404 2.4277790724425414 -0.8540711049984775 0.5182243540999333
Ni 5.548203397947888 0.5925449908097403 3.1316855331854088 1.3247768446921573 0.6152559876346501 -0.8673269415671191
Ni 3.1037580331403998 7.262498759063304 9.460201097095563 1.086307797813839 -0.9562853111753981 -1.0164439829431655
Ni 7.35602127573145 6.612552391848883 9.9354893642029 1.4311107294644063 0.9593829762641155 -0.7083800585848445
Ni 2.239885348379614 2.219092159896561 3.896374708882032 -0.7900794326378652 0.9350279444585186 -0.0710300672646325
Ni 1.7904246566065223 8.317415887737978 7.658241840661619 0.006429043454795378 -0.045243702329147886 -0.19710951009492503
P 6.436971711081625 1.3174732816282515 5.095459817632764 1.0824436868727423 1.7092534407832627 -1.1771304743243662
P 1.402865848925546 6.156038875333566 2.2051401177504553 1.0309303494847986 -0.5952288937804459 -2.44807150414299
P 1.6460337585638445 5.9905925323765175 8.885320013565188 -2.4775394316951203 -1.5943521260569766 -0.15503674929459108
P 5.095211610653124 5.605852981332207 8.184525870838696 0.06793600172034106 -0.7541706345563979 1.340180580841737
P 5.386063359285666 3.380101381340398 11.238690276186793 -1.0753700678554123 -4.705968277637676 1.1979895771615625
P 7.303701117683551 7.63937061716808 1.3169609449570698 0.30973874095758264 -0.040944560733161744 0.2818975503755984
P 0.5846744879798712 3.0685688398382247 5.128210026123684 1.802397566338115 1.809189392448968 1.8372337001806938
P 1.0965316045441356 4.130304635727161 13.113359191573482 -2.1094441051755157 -1.679722264093365 -1.527172542886686
