# total energy = -340870.45675636514 ev
CRYSTAL
PRIMVEC
9.28512489508888 0.00000000000000 0.00000000000000
0.00000000000000 9.28512489508888 0.00000000000000
0.00000000000000 0.00000000000000 13.58971883876810
PRIMCOORD
 96 1
Ni 5.910399769351181 3.535329839964183 1.2176893360120153 -0.12589175229951868 -1.7343756897721874 -0.30135025978357133
Ni 2.5378660226027714 1.9599041439562752 6.417934904860033 -1.8370627218204685 0.267372617286546 -1.1450554481666924
Ni -0.06882413059620571 6.916879442898786 12.404804176572311 0.33471032330125583 0.1203811068939346 -1.6414971591738956
Ni 9.41771638777701 2.4198056607001557 9.979174885594112 -0.4332002865490539 0.10979176141386253 -1.0631611844940465
Ni 8.341459001315668 0.09838611095212758 8.272197541341122 -0.6692710083985248 0.12376647842639976 -0.6589948232834972
Ni 4.316858794847638 6.956824049812278 11.739083940826125 -1.6971610283951029 0.5805229550288389 -0.638031847878585
Ni 4.62452140527966 1.5091670453954766 5.7408273920523145 1.2288471859723675 -0.40074370868224535 -1.6398136008238857
Ni 2.033145208422483 2.6792413328921314 8.65340298279553 0.5305003432538089 -0.20344162296053994 0.3670902822938581
Ni 5.573748999276221 1.1770102757264038 2.817773537966032 0.38162190025112985 0.6596504545896252 0.26462230823491845
Ni 6.302232036145548 1.1076503934289177 0.4636554927027658 0.3007643053731143 -0.07385596674920183 -1.1120005745942527
Ni 5.174089372270773 5.700871642989057 0.25063151685135 -2.7973967491439438 -0.7483745966999111 1.1116177373335372
Ni 7.505816339065446 8.085904511292414 10.297038134137516 0.08743550520584942 -1.6257512091935484 2.094808614650528
Ni 3.53343567450385 2.165606798898512 10.75308261003717 -0.2027111725524186 1.5723478538717437 -0.30079233039757225
Ni 3.357974671053302 0.5182696682965521 8.059844880013147 -0.7715299517704519 0.6277834306776995 1.523313831262228
Ni 7.575482630481515 4.654159523658987 10.273841106835802 0.055501375501414096 -0.5118097088228412 0.8330564504200233
Ni 1.289954533861159 2.2723857341623797 0.49979598398342245 -1.9124582651426485 -0.4759780438362125 1.2685802428959314
Ni 2.1586708106687635 5.838709320727501 12.840789068842046 0.8489672081130089 1.4734573127514172 -0.6770537376677371
Ni 4.441623016859863 8.182256251399643 9.588415979227268 -0.11464189041731224 0.405105842305683 -0.6665852340362456
Ni 5.252604387626534 5.010011931831833 2.9172506510828122 -0.3745462243512711 1.1105486726390743 0.564107489785293
Ni 8.435034489106037 2.8526317535110417 4.712819228130553 -0.7258599605371628 -0.36772483055406346 -0.34522639234123126
Ni 5.820965447224088 7.083482437284836 2.173118464866205 -0.30208250996390557 1.9940913047341076 0.4794233220723356
Ni 7.916450983591059 6.362771049877757 8.596937353315518 -1.1404323475723843 -0.7901174849646522 -2.077510232581396
Ni 4.869221584405222 8.660978716124383 4.152379308504618 -0.058438603752867094 -1.2119756070280094 1.539245157780504
Ni 3.8519804512079805 3.1250016045571543 3.3233522976783534 1.8113694308194224 -1.2740834321023475 0.11054200931632575
P 2.3681525114068607 6.921512720176757 8.191515377855742 1.0862656317219936 -0.14934406978518797 -1.1674003915207958
P 4.194907965651496 8.832939227523237 2.181150097823009 -0.14850666148555713 0.5758245211119051 -0.737819189781568
P 1.2943835383934081 2.656827041611525 11.682279404290709 2.523270100963016 -0.03509530104123633 0.9575374384149444
P 6.257941990823056 6.5828377928941855 12.256010051563313 2.7340316546237364 -0.7245286433202489 -1.5719197651953896
P 6.382882630206587 7.9784570470425455 8.598038569117456 -1.1020375498442698 -0.3115984198741408 -2.4389122062412256
P 4.5395625133088435 5.870520158311328 5.090545533320323 2.4532018833910203 -0.37680108182371885 -0.4936412654439305
P 5.141563580076918 1.1949119963515114 9.34734814092564 -2.298840562896899 -0.17454293764831877 -0.2828357459191516
P 6.287849377821745 3.301029000620841 3.5706439551371454 1.1434281969759146 -1.5422854872687246 0.0693231118758548
Ni 0.058254873030043924 1.8436636665155484 6.832584437351566 -0.20756747220345542 0.42839643740250744 1.0509517869120482
Ni 9.207594013427329 0.251704877278872 10.827404463030744 2.076469707132024 -0.41445334495885394 0.047045017203944786
Ni 5.093076658342317 4.649099130639961 11.725005834595946 -1.5766449385852008 -1.9078747595370238 -1.0624093939296864
Ni 9.311216006257307 9.026181244976419 2.1150901488814164 -0.4134750402059847 0.5019042767836711 0.6297914622466638
Ni 2.4366395919726247 4.737437808039998 10.693436825311254 0.7101381789265317 -2.4428868746182575 -0.3026214131865111
Ni 2.7707740932252802 1.0407417840800979 12.876544227443274 0.6439374147297425 -0.44209964592121276 -0.7920252435103263
Ni 2.1965912603746447 0.09502953833491991 1.3410515041786017 -0.25349714485603436 -1.5276098875344208 0.30219049629667954
Ni 2.6403366599568616 6.422836522244884 5.629486674971479 -1.2088028657269827 0.9603962480199781 0.045816544113482384
Ni 5.9662033694325585 4.4019012529417045 8.07790537627243 2.504830149090273 0.375641771408295 0.19689919385633184
Ni 0.6777918265058869 4.792665730383432 8.814808164315432 0.29138080727568527 -1.0611076443991274 -0.8910062874619299
Ni 1.0303053037986554 4.572394714621281 0.7479483725116896 0.024690046547512317 0.7086621086016377 0.039560021680809285
Ni 2.1355322796533236 7.928902335955306 3.741915510275428 -0.29914091083707833 -0.4741085947276416 -0.13768565961065318
Ni 5.643406005567485 6.082406706374064 9.935647149018157 0.5143129348606691 0.5460046095369951 -0.743917589369822
Ni 6.949395949967835 5.866221145526357 4.4629453774633365 -0.1844825653595339 -0.5919985597686062 -0.25493182042003193
Ni 0.3953689708328016 5.118211491190951 5.156088300810246 0.5096605236903222 0.21725204648107102 -0.38630130800467016
Ni 0.8150296851818928 0.5565921639065139 4.9088913516244705 -0.9578837660107697 0.6427999586911897 -0.9516953778118706
Ni 3.4041217413369034 4.021099714416336 5.408735618256881 0.06920998333675824 0.21456164413310144 2.650401124986274
Ni 6.063372200522679 6.555929501207691 6.713239942688343 0.2711678226629201 -0.7188490764369684 0.7197391923514056
Ni 7.1091929478714135 8.160092658488788 5.3014989263401 -1.217453342313129 2.3349540207900046 -0.310976984240058
Ni 2.6045425038314525 9.206451943076246 10.89582840474783 -0.7080748686395999 -0.5006572917504474 -1.0646207997587085
Ni 0.20420589282358145 4.523527102769652 12.107188999692381 0.09980945339017006 0.1727328810227735 -0.917345439577091
Ni 2.349452270048475 6.942896362603947 10.32859363078919 -0.5372147791595071 0.26829615754207986 0.38148074668757526
Ni 5.786118373828845 3.815517766096572 5.649653966049142 0.2221862505578948 0.07075984432238136 -0.12401227588861867
Ni 5.58463116554833 8.093899003749994 -0.03700029383765095 -1.0109693329818397 1.3833758852822886 0.4481846757730282
P 2.9310446324939425 9.284660549313424 5.586380483061696 -0.39004149177339276 -1.345191146682451 0.19245658470394597
P 4.702358606524617 2.224214506671167 12.99223316847055 0.3361277724740727 -0.1602324345629176 -0.4692777489979015
P 1.2872804179171597 0.4602524944615304 8.935579782661268 -0.29646619221839265 1.0712488465981873 -0.18601108618891837
P 3.5909941631734776 4.4100071668969525 1.366229048601341 -0.24467774679219148 0.22032091521438182 0.7002602576911875
P 8.425433670057096 6.7029501673788285 6.090925808383158 0.20008633333506187 -1.1597824699642219 1.168126213943227
P 0.9910756514951911 1.768779134958758 2.773606984803455 -0.7432992390595328 -0.5495069662632988 -0.4819106072705636
P 7.8486602873857105 3.147508747085816 8.798323353735652 -1.4330352001806288 0.006518260734492001 -2.036136554730616
P 0.05329568787139769 6.11379971334164 10.268364740225486 -0.2704993358409858 0.35796697983635123 2.847010812626645
Ni 0.4852935475496281 7.683598623717382 8.8791550077304 0.7208524800202425 0.630249889940321 0.32702683861406906
Ni 0.3404372439706653 0.019903593533184914 13.261200949787908 0.046841900054203196 -0.28856570642439333 0.022129227798871564
Ni 3.8051277114391566 5.451436050212662 7.444896635216208 0.0917269334923517 0.32946115908717455 -0.12553102652599027
Ni 2.9593178375268536 3.5943646634778936 13.03870986068475 0.6579604684817121 0.20208048094695522 -0.560224609791119
Ni 8.584924258842092 2.265161907063659 12.250818738284527 -1.5861762751144037 -0.5477228777796825 1.5798279642988726
Ni 6.279409199373496 1.6521301120265868 7.396666911438721 1.9161472839584615 0.1282186006604824 0.30556481208555114
Ni 4.546767770157953 8.477783203710807 6.680746648431307 1.2158782845165255 -1.4134058559854754 -0.06582898267966728
Ni 3.224241018478912 7.002581144854046 1.6793355277068591 0.4454017137112523 -0.8061457420721084 -0.9894479139702961
Ni 7.073083097502616 1.1614855470515182 10.054747444898995 0.7787519234401878 1.0515315706749182 0.4453559480749814
Ni 1.2494156789601116 8.187121656797755 6.58408292813061 -0.24519325297602934 -0.12279357299016917 0.6050337956860096
Ni 2.903319249824559 0.9024212798517642 3.7076283299059596 0.4767061802514886 1.1377666278147631 -1.2110194137623274
Ni 7.139676012608047 4.602933490106747 12.732126181755133 0.6309402311391263 -0.4378475555130782 -1.4872535952045614
Ni 4.987449078554337 0.4760789896925966 11.538541029738335 1.1326452474277975 -0.23125196030458883 0.62303357469754
Ni 0.9249952752790264 7.021894204449598 1.0394093686705008 -0.3053935766150095 0.5313912304991946 0.220251238318711
Ni 2.905668386400364 5.144246981145724 3.3982182589855325 -1.3494792325348437 1.7869820031139934 -0.13607306370789468
Ni 7.865921334399236 1.8205344206249143 2.3961666614576966 0.4857389798777183 0.8441556456569784 -0.29294480932869543
Ni 9.367019606338685 4.032362570805473 2.7091515054282618 -1.0624147932463253 -0.17557266446441375 0.36431451932093384
Ni 3.6848389195832087 1.8288724627003015 1.4646866550144715 0.7427690775876756 0.7407458765100597 -1.654554506578486
Ni 8.897080869680002 7.469873620943147 4.012609396294137 1.3157479017206695 -0.18413418088117964 0.3033685757651807
Ni 8.013526963433122 4.212679694529325 6.671885853829368 0.4046242746835741 0.4803314357089018 1.2302211835017587
Ni 7.856422651723154 7.592288706379568 0.4916919270531352 -0.005881655591757612 1.845641464628415 0.5493159332984152
Ni 7.183325384318955 5.594185558973245 1.1362745761794788 2.4289296411072168 -1.035315880147004 2.298469038490093
Ni 4.326051068405136 2.829279664625074 7.661924356883779 -0.5785943705475585 0.13758975746273724 0.4988922294302247
Ni 1.6836345404918305 3.177137580340338 4.266954034555228 -1.2182051328774892 -1.1157217321995818 0.1708608608110412
P 4.202809606861022 4.345419838749521 9.214984044260069 -1.1914708022064384 -0.15907723791255182 2.8275671020797364
P 7.355025912223254 8.43826571253837 2.8451980825917156 -0.5989929888085684 0.8783400048481712 0.06199135410113195
P 2.860087708729901 7.9016412095262 12.924284625143509 -0.9815250595787935 1.452624435166466 0.8329960294957331
P 1.3669653589984214 3.767820079970442 6.877049971532882 -0.5375675345132356 0.8171444071754572 -1.3249794476212666
P 7.596411301793234 -0.013117095812805714 12.245885551475338 -0.7196265780329413 0.716544853783824 1.1826717158575697
P 7.606606368829731 1.0035827146082719 5.661218588994459 0.5426948284374717 0.049509933804669566 0.8475867828257145
P 8.169674907288119 3.514308317404409 0.663724862425473 0.9854477916719674 -0.6043624806505978 0.7631666674074211
P 0.964882314418724 6.097977860672977 3.063802418451269 0.03208916722506087 -0.7120428521484123 -0.7424834280264567
