# total energy = -340862.0451650851 ev
CRYSTAL
PRIMVEC
9.27444939967534 0.00000000000000 0.00000000000000
0.00000000000000 9.27444939967534 0.00000000000000
0.00000000000000 0.00000000000000 13.57409417213594
PRIMCOORD
 96 1
Ni 4.489334225579316 7.203371937149985 10.07663339232105 -0.6291093485779746 2.9505540220276347 -0.3619699303481573
Ni 1.7990205550227318 3.662359415140334 7.358380443596001 -1.3373893912498451 0.9596868806577794 0.97017672444551
Ni 6.614138357107819 0.9518552687089794 3.20821004236101 0.2920266683898003 -0.23602418488225158 -0.6936152415708441
Ni 3.18414099183726 6.711891051513001 2.19237869573207 -0.9710681259115276 -0.6460554895140099 1.5774630636111218
Ni 9.168219643592513 1.7420290647836574 3.539784584937616 1.1615647586756253 -1.9547971351201752 0.9104235156462772
Ni 4.98370873936188 6.492503956052415 4.310317879974167 -0.24814462229486942 -0.26890525188098846 0.011957686582508438
Ni 4.098434741348802 1.1473328341717899 2.859532488043171 0.08605199459476147 2.3169367582769778 2.034876714181586
Ni 2.8209164639734503 3.5258024253469844 10.331473924679424 1.5237815149272662 2.7505432791255147 -2.823810720361098
Ni 3.514524695138569 5.282856097809616 6.124807288791813 -0.9121214721739904 1.4492308361038846 -2.113232368573354
Ni 1.9349468822715314 8.091725052292334 7.462969334495116 0.02165254527276916 -0.23400792578317117 -1.045055218921955
Ni 6.797039769476377 1.24720010299105 8.926310475732159 -0.3842608805358737 -0.33289743846223313 -0.1718913589580846
Ni 8.494941005039932 3.7851531223438077 4.095534621088793 -0.4176499975192808 1.1490308878746727 0.4381648296431809
Ni 6.956217140830848 3.343540949972162 -0.03662016260520505 0.6482686951152448 -1.4414581341370012 0.8971229418826291
Ni 6.2409901686165385 7.6873868911934045 8.410345971692875 2.0838266617177275 -2.2419309941940484 -0.48125626151601636
Ni 1.8355897081574217 3.49886015046586 2.320368876813648 -0.12220607591781533 -0.39553696767032526 -0.14102012330052488
Ni 3.133910575053724 4.970919273936382 0.6024199918927626 -0.11828668625875113 -0.18442908641377914 -0.370207230656285
Ni 4.346414963645364 1.0700952213628376 12.069215411605063 -0.551790620091153 -0.2095513354027036 0.2796470637785249
Ni 0.36695656621567313 5.458439969771563 2.728759044761309 0.8697455783109408 0.8418218553174791 0.3548847413666017
Ni 0.9452704097879472 1.2426556228906191 8.592835598517638 1.5640858709732675 -1.2084526814764156 0.31673265577691256
Ni 2.2818669284688973 1.9021895277516923 4.204643878520459 0.9261753791638953 1.7619494856253979 -0.44742954277455843
Ni 2.1735877342392484 1.7333945525928391 11.094418865393175 -1.3180629230070915 -4.729356574654629 0.3199719886498167
Ni 1.1960886135349817 0.07106361198679567 0.18113092001922637 1.4547085713890044 -2.133853387257815 -0.056051077357297016
Ni 0.3195576387681813 8.815030069746388 11.78044059712533 0.33545028679107386 -2.503184385956734 -1.857830550495439
Ni 1.4305281400220966 9.233752901530561 4.517607383918423 -1.3906634200826373 -1.248569089881327 2.3064014059632925
P 0.4229139553706699 8.272456243551707 8.971974153737222 -0.6886625255512592 0.04783486009509181 1.4193343056547685
P 0.0418695008436617 2.3905356495642978 6.184519902421636 2.0984189577096055 1.475776704913213 0.1206544151599793
P 2.8723154613542397 8.213702607967567 12.040357035522408 -1.0945448410116505 -0.2484099601411141 -1.559793671355817
P 3.9509524504160503 7.191407897701912 7.344697848714031 0.6745921635011222 -0.24855188503561707 0.5242543623440971
P 5.053786477400358 4.111159285630008 13.22667872662114 1.6094046495147252 2.067333292048394 1.3772877701066797
P 7.60126435606565 5.672299493518155 4.342338843228753 -1.0752384273735547 -0.374076226693388 0.9286798907533039
P 3.076353343414392 2.2825903355052923 8.216656520032847 0.2309172026729894 -0.9892550812331996 0.19973126398848826
P 3.022737752678495 4.778863980222671 3.632210035731191 0.7805426967920235 0.8248698008441729 0.2066079365036635
Ni 4.8347425365596 8.413084716537073 2.435586286478261 0.8073778147069965 -2.4670866117929124 0.6065373768147296
Ni 8.678324688766088 9.35931039459103 1.9113276425332317 -0.2354433726781171 -1.6288720142107174 1.3227857824040574
Ni 4.4321294230089965 3.6665514661717515 2.0401052243505786 -1.3734010334577638 -0.3861560406760575 -0.6723306211604549
Ni 2.14258325061529 5.912915803162183 8.926228860579336 0.18371509106589004 0.15096617876964324 -1.7627789235052285
Ni 2.5183004615306914 5.67554555073275 11.185501375944826 1.6587623740122464 0.3352353425667904 1.5888484226299284
Ni 7.539255388817733 4.933867849444096 1.9758045407091582 -0.28139618525914767 -0.6987183671253644 0.250023327374821
Ni 4.623656073119188 9.016285617051176 8.55520823073099 -1.780057508080018 2.463012955944171 -0.5708394091924878
Ni 1.9269430326252626 1.158332330904669 6.474815726567637 -1.1710163910068283 0.4529422450626716 0.5582302050689095
Ni 8.448522386871248 4.43372462826874 11.77461717048235 -1.841659082941899 0.6991780803706024 1.1578418012980833
Ni 4.046720412695738 0.3757589459367318 6.0381366337172535 -0.24225911004836986 -2.8389897420943817 -0.2124623384019115
Ni 2.5978381377374125 8.77573422855144 9.812088076335959 -1.166721106065584 -0.12493941568857839 1.1239230370634514
Ni 8.734555674172029 0.34561420375218116 6.262096032625824 0.5982255145149246 -1.6885084949264277 0.07704644866204151
Ni 8.539467635574969 7.165995906936239 0.9443893371154147 -0.758591646442229 -0.4283959231818751 -1.721444840643132
Ni 5.677891986376441 1.982691746673607 6.909294920071442 -0.648260981805761 0.637741827441992 2.5676054325452813
Ni 1.3581596130350344 3.5171215409102436 12.159958477316561 -2.6399863574108533 1.1963361007185398 1.4146279013180347
Ni 5.322532191421131 5.922561230314117 1.9421410725039885 0.6913927799982287 -0.029956180042458088 -0.6878276883547897
Ni 7.345577066496727 4.729088011449179 9.402951315228941 -0.4019241021435917 -0.8083201240156078 -0.06346742442602617
Ni 2.0347028577005766 0.25418111902135315 2.3895293718277735 -0.476814937915211 -0.4305024280019166 -1.5292193981133857
Ni 6.026908058089516 3.3002756445262245 3.4348024573930753 1.4743530850928093 -1.09966262185419 -0.9293229236539415
Ni 1.6531983904940146 6.477748307399792 13.227018171461292 -1.2794840342926286 1.0804431115029458 -0.10883711081007708
Ni 0.4351571557391975 6.30270235349055 10.663971274949892 -1.5043722571627187 0.8989432829208196 -1.2556933596309343
Ni 4.897159579571637 1.428719622431109 0.8065849339067434 0.5348174825719242 0.012533613690636478 -0.98281369648323
Ni 3.5896848313301812 2.7483531735535127 6.066777987688988 0.8430546992833158 0.9550506674373488 -0.9506255417864595
Ni 6.8542816698434335 5.630527374390932 13.449157923439856 0.29207037714354217 0.6934900288468895 0.3190458772911215
P 1.227445526227953 5.88644652518947 6.566156066806619 1.332838281544053 0.7952548061912175 0.25157755923581837
P 1.1965708848925785 7.280850685637735 1.6644826128168595 0.6692697228469442 1.6553039831500007 0.34283809461471276
P 6.407271768046378 8.806645967683554 1.2771714129758491 2.1955539495914063 0.3605949043775015 -1.0556484210567691
P 6.7058812084414114 4.029738896238823 7.322340861509749 0.08001915813712025 0.08364672758737851 1.0957985109130934
P 5.433269114684688 9.251086847056488 10.758623520992678 1.1619511954807664 -0.05721218754493373 -3.150033575016633
P 8.358226349610446 6.824890940377587 12.244389352913052 -0.14140424611282099 0.12852481904699156 0.4889379464309902
P 9.250688045741553 1.5127832298398918 12.337589220213538 0.5838052253245365 1.6317418795593448 -0.5976845544097901
P 8.662892005322993 8.657067651235094 4.1072491778538005 0.6169387746537116 2.9557633341427163 0.18911877857996462
Ni 3.4511152860637844 3.0948929673343124 12.679344325660026 -0.5419471516381699 -1.4299048820817633 0.16840571440232932
Ni 7.405350891491166 2.0905443162407664 5.457451313488488 -0.7791144489859292 0.6153673164015337 -1.4209160483195915
Ni 8.375170768270623 6.356930057872628 8.252953931806429 1.1714156833277762 1.7467930895999337 -0.0971704731054262
Ni 6.009370074681527 8.511811228106634 12.665891737117832 0.45489422658271983 -0.38726212925604275 0.7451206085389876
Ni 8.903703078399895 7.180983416818475 5.570346401077289 -0.1852220146287197 -1.1698375402073788 0.88237663681139
Ni 4.129300108234992 4.338568779635232 7.97476682851578 1.361232773526346 -0.7291563719002475 2.3590557989342145
Ni 6.6032779771127075 6.179185239250682 6.411003806398242 0.1121674607348907 0.11929044493291714 -0.170640517270119
Ni 8.856607425440737 4.58921076884776 6.632410876891224 -1.7126357269919343 0.1592944961296805 -0.9555114091238511
Ni 6.346551949235114 8.475464661752373 4.940644689463248 0.3171782279547634 0.3274173891842683 1.067405047372065
Ni 7.573886182072853 0.9012306878351003 0.02111328356863348 0.03225603182022832 -0.16536178536968296 2.134921937731646
Ni 1.481908588504517 3.9924277871693685 5.087054854070265 0.21283977634598827 0.7820287944192468 -1.2028739018370573
Ni 7.528710340094897 7.365563504489437 3.0596278017549703 -2.0027222409362286 -1.008812948760469 -1.118609338160022
Ni 8.86681859399293 3.015077057652055 8.375813487599114 -1.3910881663248815 0.32629818797816057 0.9519727998429733
Ni 6.39666179817925 6.1600056783370265 11.261869045420267 0.04135593723896749 -0.7097106044708099 -0.7727093167905337
Ni 4.651293931689154 1.9916323156875153 9.522158592932747 -0.09735919207746459 -0.29074188814010576 1.0062539297840412
Ni 7.4134474856292805 8.094711424929761 10.55816093909317 0.6635253641639992 0.8169929691992576 -0.586813158912925
Ni 1.6029494248121097 6.962894744243727 4.164681204429141 0.852116552375268 -1.5767662946544134 0.22207337912911435
Ni 4.728605740091583 6.5520551942664245 13.072123740740247 -1.3200514141920299 -1.2339461977618298 -0.36739752912163176
Ni 0.37671143186798534 1.916574198436933 0.937725645376314 -2.8581927973853936 3.7290583482333908 0.6945002152789588
Ni 8.58001552740983 1.0396008324440293 10.199248102655261 2.3795256367527924 -0.4470554472645914 -0.46877278433702496
Ni 5.736589975265473 4.188795699753896 5.367006885040734 -0.6270079859642556 0.6186693841915731 1.6355710234974477
Ni 3.4039361630619664 8.277798326282008 0.4503635426221896 0.494973868212425 1.2083948316552866 0.4260647039455372
Ni 5.97574092193834 3.49358298887985 10.975944269174947 -1.0194550018553474 1.2619665942341556 0.6929693804567291
Ni 7.089963972521278 1.6015953552311653 11.660635117449118 -2.171814439882621 0.4064423017289194 -1.6124994863899649
P 6.746438374725458 0.011327812234012273 7.072592001753693 -0.45891003261033225 -0.19174850289332784 0.13472220610695507
P 2.3879666271401763 1.9643654350849313 0.7430503197679672 3.309414974433165 -0.22807356257660721 0.40282090292624817
P 7.8389777631149125 2.696907803926801 2.213663556610618 -0.8261221851940352 0.08677987389972151 -0.9313548664823058
P 4.533146723527141 5.3263439900359835 10.507149613688297 0.02456689070608672 -4.759062586359494 -0.04454513360022651
P 0.4501205520535542 4.496225141323438 0.734446413259458 0.26023369224891957 -0.4055527000351145 -0.841801543602505
P 0.43685530738488904 4.1057244584078605 10.19316684632495 1.143228936480915 0.09132378451666207 -1.7483414079236599
P 3.3561727497615217 8.375402629500238 3.9432611497073013 -0.03664336225464657 -0.11534945800729811 1.2673355718555528
P 5.2248722415077955 1.600046522217345 4.874077330441123 0.31399211691729795 1.2865769365836681 -2.6265793399763284
