# total energy = -340862.79135538137 ev
CRYSTAL
PRIMVEC
9.35072707491108 0.00000000000000 0.00000000000000
0.00000000000000 9.35072707491108 0.00000000000000
0.00000000000000 0.00000000000000 13.68573426011339
PRIMCOORD
 96 1
Ni 2.654802278243064 3.950308087894802 5.2852936016082275 1.7715358437622521 -0.6745232579363996 1.86349880452481
Ni 5.836022429004742 5.806698549433568 11.647709591241632 -0.32692707981141117 -0.004872754711269027 -0.1481230528938933
Ni 7.890956874897696 2.6026906772066636 7.239397289149179 -1.710693772774215 0.7382516493332963 -0.7724385796276504
Ni 5.96246295820162 6.233447023881664 6.399107306932298 -0.5871407174556726 -0.08912137754870458 0.21222553980075706
Ni 9.347014665492372 1.5333415484568418 1.6633774321483372 1.3409040892713229 -0.27511060936075205 -2.0674870440174393
Ni 5.666839727129344 7.225858371664771 0.551658289650779 0.6526670812932567 -0.25216299942564313 -0.008991147755016773
Ni 0.389856116520766 5.682006606167751 0.3343315001643788 0.2844912792447036 0.7389193648242822 0.7909867749434829
Ni 3.4071150113102804 6.578301832103887 5.794403278627402 -0.5021842699179352 1.0074723755721746 -0.28488928601407065
Ni 8.330384935027716 2.013333061896732 9.63951942914214 1.7916632106397465 0.21421197410316656 0.9728684123450599
Ni 7.7578960310527325 7.241988375574297 12.30870312536367 -2.6837431907818297 -0.3215686437129752 -0.7334537137240207
Ni 7.872133861639796 3.3364515680961984 11.997407140927475 0.2258649849610626 0.6781654826746772 -1.308464480685379
Ni 5.020377222616236 8.689901683035526 2.778614318107208 -1.6512688938486786 0.04224759581530143 0.2806225403179167
Ni 8.044121781586416 1.961501982667454 3.27410653153598 -0.7309903397851927 -0.3444190659485875 2.9744449697126196
Ni 8.042672418916284 0.47071278713297815 11.571657324112731 0.08587844513137469 -0.4093232228211402 -1.0299895828380843
Ni 2.3797693478135558 4.505180222382511 11.995039536875364 -1.0549850764411572 0.6428457243274607 0.33392819371959265
Ni 9.200264357459845 5.528299357318593 11.886511260135928 0.06255956789977614 -1.109989971922127 -1.1605854254814916
Ni 4.489096972107505 1.6583794686181101 1.8637644447753183 -0.924827349776433 -0.9183725952900248 0.9111735064384243
Ni 6.0401487973206605 1.8662648291494675 11.20972434827291 -0.8043169163934857 -0.12839883499208854 -0.9829227112572684
Ni 3.9184221091519116 6.093962230653603 12.969969700711305 1.1379147233568532 -0.28539990710190205 -0.9114293312029722
Ni 1.2259270507585285 6.606971160791776 2.5277960300684885 -1.1596336030911836 0.7424821424748761 3.4902139202935243
Ni 1.3334604101553715 8.329917398682513 0.9063743744660375 -1.7715001054283104 -0.015594512004147337 0.05720396001481761
Ni 2.676252845761008 6.166477117794691 1.0781378769669598 1.6470304302872991 -0.13483019243972907 -0.173549720497114
Ni 0.18013707844351987 7.38191265296685 8.998767413549352 -3.9540069920277703 2.7218243139242673 0.8126182371703295
Ni 0.43569899024067577 3.2757747012156666 13.460192779529631 -1.0108973420933236 0.580359175757465 2.0893841012008467
P 4.273244792253877 5.3760788740471845 9.830804444200696 0.44667363844514046 -1.1944321988276076 1.249496229681287
P 7.02910037614926 1.7228059769871749 13.058666955832583 -0.5261811470531648 -0.7574277080411148 1.5602484995050483
P 3.084440127304519 2.8649879175928232 7.509225604983879 0.15808402076134712 1.4382509400536132 -0.4360503544033394
P 2.6501736684255475 0.2111431537847365 2.499329612154418 0.44751336073761644 0.23157849040607212 0.972090910749087
P 6.682562437084305 8.076241528501907 10.148341103772669 0.5581924098524387 -0.13738612609236342 0.7320131246227523
P 2.069942362573992 7.112770680486909 12.713759783539697 -0.6217151129964325 -0.4241500034213276 -0.35719616310859775
P 6.97850359287132 2.6135655725961002 5.205231742782861 1.482842353510743 0.9403110472343289 -0.09777391101737999
P 7.094041174498049 7.9262278167798605 5.513790769454233 -0.19617311432358472 0.13248688901853312 -0.8618384076487221
Ni 1.2204475247927415 5.536069811375879 6.375471474536871 1.6696923906611891 -0.08285765602717989 -0.16009848008821462
Ni 8.274785512856097 6.34378560134973 6.32932376711989 1.6295975795228321 -0.6989590223812607 0.015563915876528035
Ni 1.3870774782233275 8.122200351235428 6.713619006350803 0.24511432010897785 0.6854794998375872 -0.5024213256294057
Ni 3.0655142560506747 0.2370783299258742 5.085961350976026 -0.6850046170836976 0.8933683599362033 -0.5705193068489078
Ni 2.2953135824159663 1.7795461878410919 0.9734639698573826 -0.6844356319541052 0.6449686842077343 -0.44384465363677755
Ni 4.077029138898803 7.364436144383137 10.843959444547798 0.2932687683270175 0.4061751641104618 0.28391458080562715
Ni 8.385591626669365 8.845871807795469 2.6014666670549205 -1.5481134068044111 -0.6869005485548298 -0.5649976056997301
Ni 5.019516955741062 8.327074777703674 5.284239774686139 -0.41900445466464614 -0.6099587437914528 0.16646838817030038
Ni 6.496632583323711 0.49241675935002266 6.455287409244661 0.8012308212689944 0.3567912143606952 1.0496487518299085
Ni 5.101653740866442 0.10239887525381618 9.463247006128073 -0.05229803807276799 -1.265198213797576 -0.6246446279384017
Ni 2.4660578556843444 0.9945807164248514 8.209606270971253 0.10982132910021732 -0.9384482829939773 -0.4412023309179241
Ni 3.988384247848188 1.7383749372824568 12.931568135461657 1.522121867836656 0.18618746386578258 0.0024245502810925986
Ni 1.9591175473069151 2.3363165198903273 3.5042325960086758 0.557695158501046 -0.5991405701300263 -0.4913617253811345
Ni 7.1733166371907835 7.871984250009331 7.9226988524462625 -0.13509810138913506 -0.23302679281682448 1.051611531983234
Ni 1.4003555104271117 2.441858174456603 11.753883354946623 0.3093199082526092 -2.397967131287431 -1.407178387018525
Ni 0.9418239152320699 8.978203294941913 3.8073027459873567 2.6384969173495203 -0.28816101478680695 -1.0943383814277994
Ni 4.576956402098177 3.882459213478846 11.894065712401726 0.7777882739753379 -0.27164964739534503 -0.5783573148360879
Ni 7.3754606514030385 4.876544341377781 4.429579595363078 -0.3962188242286983 -1.4048093725657163 1.1579495305205412
Ni 5.283703042961844 2.7736126142862187 6.568372295204452 -0.2042918867759772 -0.8162285802294071 0.2734414491884452
Ni 4.058580154717067 7.018328338755769 8.442085913405704 -0.5646325090508276 0.5632757379126171 -1.3650007252092105
Ni 1.6354888891569386 6.157930553404369 10.351191097866183 1.166930908083545 -0.5994043653143741 0.6858453678174381
Ni 0.7246429970853733 2.5084447007405086 7.2058403355085305 3.6581668634291513 -1.0563457042341098 1.552080104761643
Ni 4.604251173931168 2.428926119148269 9.242222939223803 -0.007148438119323173 1.1260999901101123 -1.2318183527855495
Ni 7.067054976652894 4.969799140792104 13.57487944500809 0.9794488937760553 0.8825753830857573 0.15070572601940496
P 1.7805841185274438 6.60828961328525 8.222594430641012 3.6639490173285676 -0.7352509148337595 -1.096357468740357
P 3.532246438740589 6.664814757420373 3.4293304682889776 0.1073615547058151 0.27311517619727804 -0.47756929958273237
P 7.97572121428312 6.865630968412251 0.7684810749570495 -0.8397654870090827 0.7486934134919105 0.2629832299695987
P 7.8339548436904645 3.573866524190619 1.8929013098084104 0.21428833586705676 0.8203947957919548 -0.9255400595727414
P 0.8946943814901596 0.6869062685186047 13.276407047448142 -2.034422143142671 1.430512690869091 0.29878558438018865
P 0.4117742203839138 0.3219632936883611 9.979418352105206 -0.8919527105355993 -0.24529969664690654 -0.6075097680303279
P 6.682001393470061 1.3851512284810883 8.483088850880065 -1.6272396208136168 -0.22528520119819265 0.6815454548905037
P 4.7774172854677 8.585556921512973 12.568499046302989 0.5154935854323316 -0.15833238932672733 0.8642724710115116
Ni 9.31989755747056 3.717531092344801 5.667549447301363 -2.6487743880161285 0.3008062143546433 -1.466956535518422
Ni 4.305962985691229 4.74583052998574 6.946946759715454 -0.8886640124819987 -0.1385940303575355 1.2180495811362313
Ni 2.13015169310932 3.0075023463378043 9.53412551606095 0.1421094997099617 0.5912295428130656 -0.041394246676070647
Ni 1.5036623412633134 4.182318323838668 1.7617367933795938 -0.6337956983100504 -0.8364834738237014 -0.15499766852653954
Ni 5.928201894825095 3.028027191892245 2.9901277606773453 -0.052563118808696574 -0.6400349943515429 1.6893471887776392
Ni 5.783817320699301 3.1878498161366657 0.6353893737133033 -0.28712511732312485 -0.5991745086917553 -1.1400991326026817
Ni 9.027107596650216 0.46188383079015216 7.789646424255514 0.05580682255697485 -0.9115092925112883 0.5985857260678207
Ni 2.2151123977597296 8.583237941240762 9.762554423600557 0.6928500812700454 -0.2588051873325091 -0.0009410237570306374
Ni 5.4648733767282645 1.2502763436167355 4.528485974118223 -0.3288736620148207 -1.5850419043996444 -1.0571316904705148
Ni 2.5469322926776745 0.13418947658228453 12.110588339374377 -0.05065638870428695 -2.4495912832216264 -0.27314500099394895
Ni 0.36439969759711693 8.069256535504566 11.620282974159295 1.8334063560148035 0.3306664922491854 -0.1149635354227891
Ni 6.153891039381809 0.199498693571094 0.9040011599777837 0.06571893946436425 0.9880222372673629 -0.7541660065707076
Ni 4.846266687662392 5.292361816075017 4.351009177478912 -0.04590447584159836 -1.4614903701975281 1.4424102136376253
Ni 8.277198000397346 8.92358569909522 0.034591144036238315 0.9174043178394846 1.203936538773617 1.4210320050721656
Ni 8.27872216888271 5.992366582840847 2.6931196869505754 1.3334885135335421 -0.03052259406888937 -0.6964997622074908
Ni 8.737207010443232 9.305291722046398 5.252037741373891 -1.5102747386900828 -0.2226667897387391 1.3419656977666181
Ni 0.32997219128169986 5.030616268576197 8.315342420657133 -1.9282746633496146 -2.141229110896596 1.938431292167642
Ni 6.145774608429074 5.069393733047389 2.281521260232458 -0.18211457934798958 1.1479394545827069 -2.2562767213927595
Ni 3.692153219527146 4.260172476041983 2.5598895949486487 0.3481340529063295 -0.42238931197647905 -0.7429341424106302
Ni 6.780118570874501 3.655863048412438 9.21797182899809 -0.916757685394421 0.45736942759608973 0.43666587650015126
Ni 1.0751185272496344 4.688566678425196 4.063841808745988 -1.1194742572634784 1.8197959643202208 -2.5257476159692307
Ni 3.502959962077031 8.81089073844733 0.6647328898109756 2.1541674162248188 -0.1988933414682252 -0.16451460687803923
Ni 6.210462937151452 6.895917972854544 3.5355996094083895 0.9004946865683395 1.6795273744737398 1.086503972985045
Ni 7.432434630429557 6.008711653469167 10.120449755563198 1.275701684432061 0.8438170313706372 -0.0263365810119998
P 4.134461303543621 2.8101833072080495 4.336625889355067 -0.6789072459367083 0.5941803979112735 -0.9184042198589086
P 3.718251098316415 8.90421099294998 7.075894218795315 -0.22482934460769669 -0.8531609344793822 -0.11070784547022869
P 0.34314269012608706 4.017277993981774 10.41545957895057 0.08270956048508982 -0.13740746624860206 0.33101821916164925
P 7.311380119929424 5.40857265003884 8.158668186161314 -0.03434428180782472 0.5262027443197196 -2.2204831087329175
P 0.6442183300561293 1.6681229260521544 5.025607084173685 -0.21823317944741769 0.3877095012061064 0.6748006799675024
P 3.4077508607397573 3.7159227673173008 0.16794560070598913 0.1789248687660983 0.38573155154412925 0.7713800564561489
P 0.7675908857557818 6.8556724442594135 4.897946285115824 -0.493488284805834 1.3898517228146194 -1.8599236855790422
P 3.6147104993076113 1.2643211354266535 10.690679523918158 -0.3846522024370214 1.1634727743316156 -0.30688301667634243
