# total energy = -340864.032209724 ev
CRYSTAL
PRIMVEC
9.35519201589467 0.00000000000000 0.00000000000000
0.00000000000000 9.35519201589467 0.00000000000000
0.00000000000000 0.00000000000000 13.69226915256564
PRIMCOORD
 96 1
Ni 3.10131166794468 2.496479788207723 8.988167333798502 -0.5084346217030211 0.4260009405871374 -0.9721274204139774
Ni 9.419462271093701 7.827732466200352 11.242119379893797 0.20162231036361408 1.5277831798874912 1.9797442919838162
Ni 5.548817025501796 5.634604137071244 0.7291539630911054 -1.638917057151545 -0.07013480914387275 0.12392871503587688
Ni 2.282171047549828 3.2670201856360226 4.332617728825874 0.3306649495872886 0.005538413319725945 0.4299786942879627
Ni 0.7145944776237629 4.775236190640555 8.93810770086414 -0.08910209427499494 -1.6944526283250043 -1.0810010408889448
Ni 6.988001067990413 3.3890960873666356 5.200474576569335 -1.0077803937308967 -0.072354699613327 -1.6165212059548484
Ni 9.351075816832779 4.141721291920836 5.831071590872639 -0.2550470058416575 -0.10809020534172353 -0.10385328444224051
Ni 8.15564130454503 4.7330910502239405 2.2489966008392046 -1.404719383955071 -0.15547872192801612 -0.7661640594728483
Ni 4.003189607283936 4.9418521619657305 3.4771106701754158 0.6765310323950477 -0.25671359491080303 0.7465342010570627
Ni 3.0846594260042637 3.3339940058896405 11.159172504646321 -0.756722197333658 0.543534807840264 -0.18897428258230034
Ni 7.249544173568061 4.666744027841114 10.25733105055626 -0.7765405176111658 1.4858577432982991 -0.613224301916602
Ni 4.034267555444646 7.645886242134168 10.845126189957437 0.8167517997227288 -0.07387627846417599 0.6721601570208617
Ni 4.500988734189264 3.151577115105273 1.8084886703625898 -0.6505958005865247 1.8691282348964455 -3.3790576744319676
Ni 6.459198834461188 8.54057003874748 9.244951453154192 0.1875133817660577 -0.9917166553998146 0.04558720171149568
Ni 0.7065162692442408 0.11255231617143059 7.446568261299488 0.8494264071376144 0.03690150101203967 0.3384844456317074
Ni 5.44367402147464 8.836914458942177 4.124372088168869 -1.8266196721102737 -0.19772554641236914 -2.854281121035813
Ni 5.097036088543046 6.191518722865049 6.0716179032980016 0.751121820427745 -1.1310187675679684 0.8253721944018881
Ni 0.7240628675495467 6.111709579048369 1.4231062093432232 -0.7110905155374722 0.3987768147638616 -2.292177034833794
Ni 0.8427774487581414 0.8377116122352565 4.939116703795293 1.0247342479764157 1.6968121296961165 0.35835881595813124
Ni 6.666650219308787 5.493331381148646 4.261773665599925 -0.6055387603468861 0.8787925190045576 -1.0982091772371152
Ni 4.380886777992037 2.500231220240367 13.003972417631122 -0.2161194755385246 0.11092844612146702 0.576320229801401
Ni 1.8399230513423606 5.7384935453568175 5.215933095997618 -0.7265593005970326 -0.40743474754917575 0.6320247224525566
Ni 0.6748798161150805 6.592426125176617 7.2911195827857025 1.610254656219846 -0.006051348400402482 0.12001832423787717
Ni 7.006636610656316 1.8877467933644996 13.01058560292757 -0.30528559028223556 -0.7443019692924343 -1.643545557062492
P 5.947254657098607 7.559350715196612 12.971233922872422 -1.9742501016384648 -1.4982910839656454 -0.9757727304760486
P 2.576335707984909 7.89877579501806 7.244976968784178 -0.6773154759695561 0.023047111627450628 0.43035844622488467
P 3.334452410302607 0.6772223562172605 4.838505354822035 1.1669100821479388 -0.6533970174807456 -2.1123723345659036
P 8.293293601124402 1.7269310411421663 5.3252110949335725 1.3662101721362794 0.3338765145460508 0.21610996245682781
P 8.71494146432468 9.110048647533407 9.606728893463412 -1.181618849113023 -0.07661501755157772 -0.6768819879765633
P 2.0430710478233363 2.640390708302903 0.20656825471323167 0.6995804580153435 -0.22622879605838458 0.2978468746160032
P 8.19307142814256 5.193123266616087 7.896646553295791 -0.25733194522109226 -0.08094655504739608 -0.937158103427644
P 2.798156667900194 5.692999246167917 11.173398009755646 -0.29081593591115074 0.014764817014000379 0.7073963545153366
Ni 6.516106468013744 1.252931522942692 10.385257689427062 -0.050976233937550915 -0.4455305259796327 1.282249512852908
Ni 1.1476762566103202 4.45017133069469 12.864435049843324 -1.0284680039872354 0.09643925136635649 -0.6541907170266346
Ni 1.0434407062169964 0.9904435429628069 9.83497874139075 1.2014130010208148 1.1707363978725644 -0.38383330608015187
Ni 7.812202847312099 0.912943260556742 7.881174001079356 -0.5138902455009536 0.8125526740397169 0.3111597896748254
Ni 2.7015362438773747 1.2414527022343265 6.6301668411519135 -1.1541206436927542 1.0486313663089875 1.8421033695681694
Ni 2.2848559876829175 4.15773738079836 6.993545890348887 0.2983976049131506 -0.6449167479238764 -0.526395577056816
Ni 4.580582708587612 8.710422906539725 6.780644170583036 0.25656755625124206 0.31792436209216857 -0.279783332246073
Ni 7.320559436809464 3.1207143363628953 7.343944610505228 -0.12040707503586359 1.3718198050135728 0.0012053331620108273
Ni 3.5717468579535367 7.260386841213534 4.875159932994364 -0.843337006410425 1.4993004990667662 0.17646278037885094
Ni 7.487830271581735 8.890978114095923 13.242410069756836 0.4179508165891512 2.245657036895384 -0.7999429556955062
Ni 0.24894821045159074 5.538142751314148 10.950707016974935 -0.5746811515360812 0.08426404945640327 1.802269268290367
Ni 1.9876134690464897 1.3182120534259638 12.099310373122501 0.11233226844752912 1.8301166295199383 -0.4990611509079211
Ni 4.924096007357353 2.1459875161303685 6.716893214008337 -0.2557643436236563 1.0886359317263834 0.33064643764452734
Ni 8.045671021393574 2.7975485804136055 9.466985711449388 2.6014974573070355 -0.864277356107518 0.5909654905184015
Ni 5.151043612544182 0.3151146776268611 12.715339482285572 0.09666705110644642 -1.0729614584139198 -0.38222945192814173
Ni 1.9839649441269602 1.352218176714398 2.1696636363004838 2.2904860202846167 0.9930466870651478 -0.3802443031773129
Ni 5.149135153355505 6.492475252765715 8.874329614232346 0.3166969174429707 0.7855442637716729 0.5652446887135297
Ni 8.544321470780124 1.0075541893161895 11.47833891597228 1.4583312557432562 -0.8183430554692487 -0.1351981173021091
Ni 4.652673818920672 2.277643134572771 3.667515023975922 0.25198147954245637 -2.0825351965998133 3.6605839575110766
Ni 7.179099577044839 1.0040740578544847 3.137241218729153 -0.06814426107640521 1.3242132588792033 0.9862923990604499
Ni 7.0562191287935105 5.115624855248444 12.599886121043511 -0.14539716932229796 0.6263415560248503 0.51865758498261
Ni 8.624495467088757 6.8530150011599265 3.1308609777160274 0.483825050684457 0.2779113120343407 0.604952805936429
Ni 7.36202164820268 7.039230099937446 0.8778117076585147 2.5715610747589195 -1.3739923871848594 -1.3375079191055805
Ni 0.35405847130639156 8.430964608087978 -0.03450475502743641 -1.266162634593374 -0.6962776188943557 2.2608280882088674
P 3.1949664960713684 6.023246882537933 1.279562948297626 -0.4425827562052184 -0.47208179410559986 -0.7097265453104099
P 4.102551102592453 0.23967066644467463 2.1857105973119424 -0.8120379391868273 -0.1196768817380584 -0.11665737818544424
P 0.9499074955876253 8.284780376312167 4.216972586145735 0.9625089234876067 -2.8586088018768896 -0.9144632329332897
P 4.845278513903418 4.595036480384209 8.065882913928556 -0.06922103908035177 0.12078528431088875 -1.3997910934155182
P 5.5574050918508435 0.8436484171427778 8.347506003832558 -1.077515910553822 0.32086081901267316 -0.08927667217964624
P 8.065775329219392 1.0218208572707594 1.2132963805668713 0.2619463040646521 0.7207074698019459 -1.6020862614764408
P 5.719193784051717 3.096783754967623 11.405646266787103 0.6987466492601386 -0.208326461856667 0.45930932493127996
P -0.4166924179441893 6.255657919911955 13.093465120791915 1.000208752031226 -0.11672756930174735 -0.2624888068316834
Ni 7.038818471484986 7.060148309476081 11.060998183215467 -0.9724734908994865 -0.04384425087845998 0.9219500282286379
Ni 9.152988979278637 3.316163009744453 0.6459301741574301 0.06148407544741024 -1.5237092669284338 0.5091771562960005
Ni 5.783417177827535 1.1578640608086985 1.2279980649541544 -0.7214952558105638 -0.06944781037917717 -0.3605090295319146
Ni 0.3729091833906267 2.710676266560401 3.0402727815601636 -2.206574469071626 0.11646043168328975 0.49439357022892266
Ni 4.325204674604759 7.271585006158859 2.489857247719172 1.974930672645257 1.137770227359189 0.48867569390853904
Ni 8.172836147627324 8.666257044629218 4.53576946738369 -0.1813591892392038 1.0125924704075595 0.8609048400908592
Ni 8.582069670909101 6.970020388771604 9.257452796359235 -0.17323553169080486 -1.5356389284864842 -0.03078844613576633
Ni 3.738166370244583 7.696179754871064 13.46636027139439 0.07129514800056108 -0.4407328474806732 -0.06270740633155009
Ni 8.526752420013775 3.3553238438807353 11.997686792363876 -0.6135991687575174 0.10638453550452646 -0.10806449431011066
Ni 1.968117248707261 4.153218823013405 1.8521399967075232 0.7724624908870503 -0.3978741004439342 0.15694167962678776
Ni 3.0297631587534988 5.190092184375248 8.992534337471417 0.18612884271370525 0.02026569222757155 0.7681499795546255
Ni 8.110315398813954 8.113711333546746 7.39475640088454 -1.0345687175683345 -0.24195597698565427 -1.090389166972064
Ni 2.188095235778578 6.519970162351605 3.1272049686428165 -1.4563507349781175 -0.04358251257664107 0.866718618559159
Ni 8.226937223549474 6.579375632195224 5.768621941519238 -0.21074432726954026 -1.7714229723334718 -0.5434887850936768
Ni 4.173145382189295 0.7372181386824754 10.532257693954111 0.6453600061088821 1.4264410919028787 2.2684519233027123
Ni 6.417353060191815 0.9225660111521983 5.504100142776519 0.08681818333682467 0.2218314383216373 1.444076288486139
Ni 5.572495016710333 2.9602821470167173 9.165248958527467 -0.26862808696020185 0.282686621935797 -0.022557830695857924
Ni 3.2777693013604825 9.536308620439655 8.72810983272655 -1.1815430015697652 -2.1451402730255444 -1.882553764273732
Ni 2.250569208631443 8.353812338828083 1.6549849362866773 -0.35570903704011 0.431822689475237 -0.6009907359648875
Ni 1.924746578125368 7.186125326312959 9.89707382896351 -0.38063073998245417 0.4366818173397512 -1.3039457668794188
Ni 6.799044897927197 3.497120490561009 0.7255643758818145 -1.1151414342160795 0.8187757721312932 1.6360929574391887
Ni 4.892400616517955 5.082170688293989 11.20119322100799 0.4417188655430263 0.5394567811161485 -0.5308374148782535
Ni 3.2684234644512267 4.78733245402761 13.232797609872692 1.9868451646946557 0.31694091513297673 0.455676356164383
Ni 9.4573507991042 0.1514100420836286 2.620577346951438 0.07433316349593651 -0.7032309102837373 -0.9518522151047091
P 6.572686669842753 7.379843289155767 2.6494399856225463 -1.4542408877239665 0.1728120710001411 3.0041831202070006
P 6.429486744347276 3.6150239766144163 3.014326156267049 -0.8268775753028211 -0.08189709188612347 -0.36840051646484934
P 1.9295270812891616 8.698382774305278 12.478147941747755 2.1685571092875877 -1.5401337310330443 -1.0544916817445065
P 0.2747339264405621 4.867403543223128 3.6593825554822126 2.22948119846647 0.15503700640490717 1.5572451939023504
P 4.051200453148103 3.8817592138083175 5.552187701215916 0.059749866365122896 0.8194442589532274 -0.49274137933748036
P 1.1149705050239749 2.5022238761579563 7.835045419865983 0.17371349976848793 -0.6621642221504145 0.0529122746179992
P 6.464400321269542 8.060143503574373 5.731652093373095 0.5860240873527263 -2.2658021443846916 2.1009674351630716
P 0.776886024230651 3.2519209055844325 10.683475019080452 0.9549411384426779 -0.4169743116084948 -0.2911550644181244
