# total energy = -381170.3970643845 ev
CRYSTAL
PRIMVEC
9.25413989372557 0.00000000000000 0.00000000000000

0.00000000000000 9.25413989372557 0.00000000000000

0.00000000000000 0.00000000000000 13.54436915726081

PRIMCOORD
 96 1
Ni 0.19265360969549164 4.796735347025087 2.999658189267943 0.6505433500820345 0.40499837019354124 0.800148643948409
Ni 7.133044758418707 5.200484216393791 3.1241846719030275 -0.9785819177900695 0.19091238014527767 1.2393174893760721
Ni 2.256779333157707 6.334523535376999 8.437152958689827 -1.2823523569793593 0.598222686301447 0.7741041402555314
Ni 1.6362152202482543 8.796892840385887 8.512405773467439 -0.24930239004839644 -1.5355692515908137 -1.5005958208394221
Ni 9.023813604689215 3.0010250257300615 8.326997229893765 -0.07573518604978569 0.07971371108155947 -0.7602770045644519
Ni 6.683821045618392 8.056172975112563 9.795124880205087 0.2524188241901911 -0.07218269281183698 0.10340154161680255
Ni 7.668248684959989 0.5752937859694642 11.32196819730617 0.9310879859741642 -1.8248178430148443 2.2109450873354954
Ni 3.1173495641784466 1.1269599019654666 9.365064640294102 -0.9793429643258101 0.028842635263305168 -0.5093165100873421
Ni 8.730022425522876 7.365499498377736 8.456236845976084 1.3822140037637034 -0.6777901016131295 0.44200837175898716
Ni 0.18748332173756702 -0.31725042379375856 4.72219047394925 0.18088584914721106 -0.08137052995869212 -0.9484437036437924
Ni 1.9742596963803998 1.9787387000883567 11.531729935420877 0.3044931762879272 -0.7075969005619168 -1.1547258813769208
Ni 7.59079153405999 1.401400674616645 9.333330343774836 -2.043456999651429 0.6097833945558531 -1.858072491302916
Ni 1.7822548018913704 5.682282501615611 5.213714860198059 0.32813524118689935 1.5641581189720997 -1.1921400603593209
Ni 5.205897888230888 0.6643334183588823 10.243985830721618 0.8954123869494257 -0.6624755827432462 0.4215686158473965
Ni 1.8320050579533051 3.3184512781817768 9.399019930387565 -0.33686387930914885 -0.2349854592050921 0.41403682624672566
Ni 1.414995006118688 9.089212611309323 12.382370474336993 0.05826068341410611 -0.6560606803558378 0.6769966591775567
Ni 4.155247623818753 2.7425291361136135 10.616875845204879 -0.2841495796345687 -0.16407906200251743 -0.37650411940859024
Ni 1.143950502808047 6.43616175381603 12.309190586895294 -0.1530120055550784 0.5314534511956976 -1.5276553960603754
Ni 5.202112945014867 8.531585903808578 6.155089464517905 -1.435539454659721 -0.4862282608093111 0.02901361362353068
Ni 3.6543580479987607 3.035552221668878 3.4718821413570113 -1.18884673432003 2.1684684062285235 -0.20971794288755494
Ni 8.975395944771797 2.7459901844333987 1.8257538864559397 0.4121930881697675 0.41480378631973724 -0.9747304052544631
Ni 8.842996965330187 2.828759211631677 10.775832355309909 -0.19027011857558843 -0.46028068770561376 -0.48113773366028095
Ni 2.65741881152254 7.726262887945903 10.52413733310044 -2.413265709317715 0.5829063676593509 -0.3410853735896642
Ni 3.729057465210803 6.677324639413876 6.607349460616941 -0.27983758252277613 0.28451750449694874 -0.8308697271813498
P 8.211013243793422 6.106705119504099 11.361450059743415 0.14909133034443356 0.8358993191854571 0.09600164960830562
Ni 6.282903943056785 2.966470067371567 2.529844015206875 -0.4957562549044043 0.519329414238654 -1.4719516747401682
P 8.239941685097293 6.752051819045595 4.453375292938706 0.6607529436251846 -0.08355622475610126 0.86067832590235
Ni 8.009541364194392 3.0991189085902753 4.138522616791087 -0.2354423442368526 0.5821054690246104 -0.16374121904712444
P 0.19942208761284638 1.935151701194809 12.786169316061116 -1.5153909768707257 -0.1811164771007784 -0.19396736492151753
P 3.645020620847256 9.039647438045236 11.898349344712999 0.1525569202955308 0.3687306461107585 0.3107802948482196
P 6.999748127407527 8.50400856692901 0.9294238080627062 0.8939260322118862 2.3501063030504104 1.3516099057246012
Ni 3.916055870018004 8.136443384539874 8.569156786358029 1.040936054547259 0.9973733394649597 -0.13839605541411648
Ni 6.735431383798713 7.851591704509664 3.1113315970063713 -0.062315827320086226 2.0119766696549606 -0.10072039524021363
Ni 8.841349728429327 7.156429969926986 2.47461068125865 1.5514568693553474 0.38839572863985367 -0.7471150132611972
Ni 1.7706316021864243 2.0116279132662056 7.177567350855384 -0.21813007821065017 -0.07902902630970907 0.12091409657926919
Ni 7.73478595078687 1.1577299171079392 2.989933013654943 -0.533209771765172 -2.3114150571278 0.16789869285892373
Ni 2.6014312651730784 1.0526676669086936 2.7772997159316026 -0.3714043362881797 -0.7569703087887221 0.8610012564594076
Ni 3.4081609102994097 3.4491660041629575 12.599690068501882 -0.1468837811701535 0.07086834487578762 0.5372098940635005
Ni 0.9461155001867596 3.652322137222417 5.433215655135605 -0.16455034521198114 0.14197965900031675 0.6076038704060309
Ni 5.088314786757127 4.775950548826593 6.609638934826339 0.6217210265337035 -0.043225129237222326 0.35739259539011997
Ni 1.9692717149783567 4.948688324059494 0.4367324747734556 -0.06828001532332112 -0.6565610170310241 1.2257371795884762
Ni 3.6616873267935994 0.06494185210941836 1.119601009922972 0.9050046586235511 -1.2517549438084765 -1.3206545949936674
Ni 5.985475886912703 6.437068659525492 4.862212088420291 -1.6200089073931327 0.15226175765261518 0.8671634194060613
Ni 2.6296471377052284 4.569916378260575 6.962008819512032 -0.3646310221200882 -1.711289497376685 -0.9727758526312537
Ni 2.3950824538507156 8.611291810702447 5.379281602428283 0.8947215315299881 -0.09639297150945335 -1.1344491334057558
Ni 0.8805638002584273 7.3117329456024684 6.577240191062791 -0.4928246830799061 0.6039973840016953 -0.004920834340385073
Ni 2.6646555489184536 5.341054601360455 10.676538210505642 0.36962667556246664 0.1001300699543824 1.2023082591415746
Ni 7.034006953289462 4.965623400062719 8.264056122829098 1.453698127846619 0.5083119800822278 0.5500607818842398
Ni 6.1803032940689375 5.842730779071308 12.590560859497957 -0.24257921239194996 -0.8058233257356832 -1.5572768184712342
Ni 5.942758777169049 8.259264329192776 12.675321377601094 1.9600298442740243 1.70008668668233 -1.0450266796768648
Ni 1.9014296154266375 1.775166130733736 0.48456434763568074 -0.1266139751775239 0.6536006488511195 0.6161306769301196
Ni 4.134981057454238 4.7121247459882065 1.5117951602219335 1.6083533254320754 0.33063743878346286 -0.16515661133741233
Ni 8.437785941858472 7.515361039796444 13.206979117735582 0.575832491531705 1.4958624199194948 -1.254345330243472
Ni 1.6262855281436308 7.4306023725212835 0.7989552422026652 0.09742115566365157 0.3675687645921734 0.8581028518656898
Ni 0.9989566389727803 1.8716960639521216 4.063771376395647 -1.1179706761347585 -0.1445790442963768 -0.22035022579042052
Ni 5.576267075007442 3.4245037213495175 13.556017512059984 2.206581668160477 1.08353100639965 -0.5629684910848434
P 8.659246763625243 2.289372413858997 5.903394442308436 0.14243114471543858 -1.7714242578850525 2.0245750751452616
Ni 4.321711092204557 2.6551422931089914 7.560358369609604 -0.23783835527285493 -0.7401254693172414 -0.3409323929515677
P 5.82683216673604 3.0269181091492006 9.138846265208612 0.8344870122189628 -0.7119865449891802 -0.37956064684672697
Ni 5.527849415090023 3.5108448465462905 4.653181427357089 0.7911729228123601 1.1955956230080893 1.0921686274699898
P 5.202057420175511 1.164827842405466 2.585051437563401 -0.4649590670178896 -0.7110861446620979 0.5861120190808422
P 3.2053934511154347 0.36907823426155345 7.011107584125537 1.1497119731020975 0.5689403923975621 0.9594745075366572
P 3.991875038157035 5.272925623472069 4.655118318836584 0.10352392612727977 0.08229638420707118 0.02025463648397802
Ni 6.817034389370541 6.438715896426353 1.1152867299051012 -1.3374238440322066 -0.029702155050123042 0.9380065674708684
Ni 5.297726718383896 6.2729557426723765 8.76223145941863 -0.5278747327055038 1.518542892236146 -0.9115784551863269
Ni 7.687562074915581 4.961514561950461 5.685696353821944 0.455618506343254 0.06844508014627568 0.06422949940303131
Ni 5.342322418525724 4.696438978870465 10.398323599606314 1.3933849327788586 0.8482429283524745 1.7168165978425014
Ni 4.411180116684986 7.186348604199352 0.23915288641320062 -0.8190930462613959 0.9029655167063353 1.808727365210885
Ni 8.981124257365238 5.54759774962056 0.6230395953306893 1.3979273007339021 -0.3127253343897324 0.302765137853227
Ni 6.350459164271838 1.2679467232272923 5.15613837802906 0.822346777312003 0.7001990654359489 -0.22695281870860268
Ni 1.031253587197511 4.096187703024991 11.932738653967418 0.7040346371319552 0.4023722454246038 0.39873027779664233
Ni 4.77881933219326 6.744056242178498 2.7083184317591193 -1.4543270196798694 -0.4715529181853234 0.1253191676255003
Ni 6.929611001162474 3.0981564780414574 7.080833826559364 -0.7135865424864485 -1.7875718141791923 -0.9264047215658819
Ni 5.047985245105728 1.1883148494525624 12.717174150678794 -0.7771426699715389 0.5427403369634266 0.4216645179953125
Ni 7.958837931723533 4.2273096111614406 12.424493468299552 -0.6850534680437621 -0.6629458375114453 0.7347066122945153
Ni 4.464641282843802 8.859312013960617 3.89118907071294 0.16390602675976287 -0.38825971728262165 -0.7945629223305154
Ni 0.28527089256733973 5.103769200377556 7.338556070080801 -0.062411215247369936 0.4646695608019287 -0.42356584878308345
Ni 4.671425038741111 7.125706225483976 11.1535308208813 0.750177711346921 -1.1871176674440653 -0.4968546301749056
Ni 4.024116461542411 2.461647482097274 1.289058192563991 -0.39192276795650566 -1.3625116402387698 -0.47395664253080955
Ni 7.396065922442574 8.502916578421697 5.513235277371829 0.09371825289076763 -1.046487066272475 0.9224102556945082
Ni 2.528231018623617 5.545367501906473 2.863212374451354 -0.26284336195762475 0.7069641520739244 0.8763034340341166
Ni 3.685766598793814 4.517824824805844 8.842224244649165 1.539798973401445 -0.06141414144142327 0.06490184287970757
Ni 0.19723811059822277 0.2816876896009742 1.5177955445282132 0.09176781403261615 -0.623309711177062 -0.39366957544428327
Ni 6.554364882662587 2.5043275752813594 11.528777864795178 -0.7019679844109136 1.1845630193430114 -1.1480289289727197
Ni 7.509928859679563 1.4647637704604075 0.29698755908519975 -0.25717099416319583 -0.20965057998472922 -0.25299012331262877
Ni 0.08487804567977289 5.24123019434035 9.689181635888078 0.2914150029477304 -0.2843239004289038 0.9128953742255375
Ni 0.1745330783720403 8.014029622042242 10.631069844971954 -0.8462801481991491 -0.5440261456543857 -0.026535584396683333
Ni 8.886074986529648 0.37981303653682214 7.244056495154823 -0.34947411187399163 0.6464447545326287 -0.23630469223714792
P 7.378242449009671 4.357968812303266 1.2038340420522395 -0.5527380716060868 -2.024764051227616 -1.1118049136436787
Ni 0.5212505344114113 1.008932601776866 9.681447025765946 0.7129393958207528 0.3242729300180157 0.4131775635702239
P 3.860605063782306 5.441341715375185 13.07534082859313 0.022089118589555506 -1.377958056700827 -2.554938378600574
Ni 5.951883359103027 0.773953332455171 7.649737628933075 0.33012604636468307 -0.013459982159647789 0.9197157395814805
P 6.942326189374732 7.673569815398162 7.595749902214378 -2.295567548572582 0.6737578405252849 -0.4073229045616598
P 1.776184086121908 3.4372836885410223 2.3437312315873835 0.4427115684735988 -0.648820968074289 -0.4167174584026823
P 2.6430471322695293 7.900083397546223 2.681595251991625 0.5581726123580968 0.29262007899942505 0.2830782009472609
Ni 4.079132323203163 1.6069258674885774 5.0845020811214265 -0.9245915796165433 -1.1887929982639591 1.953601315039861
