# total energy = -340886.4121383693 ev
CRYSTAL
PRIMVEC
9.12275476101929 0.00000000000000 0.00000000000000
0.00000000000000 9.12275476101929 0.00000000000000
0.00000000000000 0.00000000000000 13.35207373493986
PRIMCOORD
 96 1
Ni 6.737729091925038 1.7158624436694132 11.407050533250711 -0.8668068073975911 0.7870707277185283 0.8937866784205445
Ni 4.609773572187047 0.6266949334763101 6.061961948551436 0.7668032357187439 -0.8533720220489239 -1.3253018639576917
Ni 2.9564202438373424 1.8186850120827878 4.568652755300942 -0.5531736164816086 -0.5274199045562723 1.1211141068597466
Ni 3.816595663332389 4.675831439091601 4.872291786469448 -0.2969775846371724 -0.1823575485967311 -0.675315671930708
Ni 3.8236840437473645 3.002262086289406 2.6695871514081775 0.24338782433617437 0.08801040387271294 -0.37710318644516994
Ni 5.394731879041841 4.786152911882209 2.5998090251300994 0.3488840436984766 -0.00539006066731975 -0.3111813869413802
Ni 5.509395783077659 3.0819219804767526 0.5242801521987779 -0.26309173052300494 1.1582403222880826 -1.9029708944775032
Ni 5.978861863560374 8.007060060469845 12.542537005967569 0.045543750068069946 0.5571619117053952 0.1732409310074436
Ni 2.1955003956613903 6.540723203815126 0.12298020723567885 -1.1619586516799343 1.1528348350017952 -0.05834013050178986
Ni 0.5299499442552867 0.30291559671946167 0.3468717657715566 0.8852542154695013 -0.6232387487298104 -0.1519578532589512
Ni 8.120902916581148 0.022402748758115848 6.385175674515841 0.7497015430414509 -0.7162718026280954 0.6769537217547632
Ni 9.024602998830185 2.528873221278456 1.3770798245052684 -0.48609584899650476 1.0906745594229668 -0.09940656152479654
Ni 6.9167266622239305 0.8492408856914557 4.443249544412473 -0.44536160450193624 0.8116175638199571 -0.7223722590988785
Ni 1.0827797573403797 7.732538125531041 2.382463955379018 -1.77837780638475 -0.5167439128996649 -1.220274613812008
Ni 7.926378417754213 3.747226236465625 3.6483072947955812 0.1298270827981829 0.23290749363014082 -0.13023974485556922
Ni 7.866706479151437 4.148764285326832 12.7364365960964 1.1706602932189902 -1.6161859341026166 -1.262124974188891
Ni 8.330032945709727 7.55836649247735 8.496858936665426 0.5126185778773816 0.6916203226280024 1.56693413905534
Ni 7.089174094636141 0.964959380172539 0.3540221809186068 -0.21850134550713982 0.22120357492965131 0.3154525035129083
Ni 1.9516947758541476 7.014996976033608 9.52866712657647 -0.10994602760353966 -0.2064359297021735 -2.2088095290497316
Ni 0.2823392234556549 5.2575986301384745 1.3452213404831597 -0.5183395395215589 -1.3592378545835044 -0.16505685253475444
Ni 6.795202446641059 1.9546505483824004 6.547963934233873 -0.12252180738602125 1.4931141677503963 1.5560555444696234
Ni 3.637570724769345 4.514750959056561 0.22760087060374026 -0.07156537094281223 0.9975083223809273 1.2822600543758693
Ni 6.504615340645919 5.834138482732604 4.667123769714388 -2.1109314883543195 0.44666463958407593 -1.574429676101437
Ni 5.542757697077101 3.677865932353577 8.88174613361748 -0.7236871212555601 -1.0793599057410959 -0.7131170590491976
P 0.42754611028341477 5.896556370505145 12.153124010400497 -0.12535747706260345 -0.16141462779647686 1.1531593082207496
P 4.397742507058518 6.433257153250886 12.41583927618478 -0.6774226909713817 -1.4973372046928084 1.378362234117781
P 2.608460133428068 8.639221348572478 1.1003866739438588 -0.512841235411149 0.3982098865167981 -0.7363063526814675
P 6.270288262989461 8.095030784204223 5.479878197915888 -0.47775030524528683 -0.44486101071643386 1.5701991829598572
P 4.891821779767234 1.4566941049190312 12.679075451263397 -0.45932038067487346 -0.205207199501395 -2.0401652162740347
P 4.211802520420118 6.481762840080264 8.211311240375862 0.8923741143437341 -0.9614028349076218 0.7874947026298244
P 4.773390178033367 1.1162328988869898 3.5286860858466382 0.19097794327589043 0.6532543212552944 -0.03022100366807053
P 0.16692816580852865 5.964885803334191 3.5459499868727646 1.322623031573948 -0.037873378007005735 0.39013379437688295
Ni 0.7969775361942166 8.962677739812351 4.319115308705116 0.7027611697361703 1.5359106940906322 1.465983115861559
Ni 2.10886159411567 6.645698742341672 4.616519849300141 -0.784928741674861 -0.19128004789734154 0.4278050836754116
Ni 6.56182413547515 5.87629473227907 8.947918947231466 -1.3049071023514238 1.4402322321497003 1.1698372830970627
Ni 8.896920923813452 2.3488356569418443 10.11459611832516 0.12960493948504775 0.41387433252693245 -0.028917968585930844
Ni 2.6508079608235864 5.477557369115927 6.944841167710253 -0.8807501569515606 0.0488905550531158 0.6852992655059811
Ni 0.4278088456192594 0.222645390241559 9.586642232801914 1.0599398493432715 -1.367072777246891 -0.6782675554701803
Ni 1.7223852132919455 1.4179315201272267 11.336391148866987 -0.09744172448894185 -1.3507102767284673 0.8147517385735646
Ni 4.271957965022885 7.07988713033441 1.1761812569576853 1.1975776864351246 -0.07722205500795733 0.7420450549374575
Ni 6.069350467596594 8.20684838876839 8.072357089631016 -1.345525132983102 -0.524554152972703 -0.8006903753844921
Ni 5.516985915002061 3.0221861825909597 4.832181770805968 0.35398202704667425 -0.05350234279351431 -0.5689948997845814
Ni 1.0830443172271678 7.753128182926923 6.888908646265906 0.13867913387217407 -0.04617135634973984 -0.20529127457476903
Ni 5.30562081096786 5.16774861893243 6.872872668024665 0.6405055062300582 -1.1404549732802036 -0.04937186556490852
Ni 1.2190645900550812 7.858058107679884 11.58277668370815 -0.3523187804116384 0.8387524723635361 0.42860521097920373
Ni 5.2460492226669695 0.4379898398832401 10.16313099796963 -2.36603274447268 -0.500234602390732 0.38842503921589233
Ni 8.015142821148956 7.764102856851267 4.352121435270601 0.6585273967287756 -0.8140822233103657 0.0695272574668609
Ni 7.42929775874366 6.54606001532447 6.648144552881254 0.5322546069407542 -0.38624371529385737 0.294395425732293
Ni 2.3694804508660274 5.813639652883891 2.284860514939141 0.7551188574022801 -1.8797875143825045 0.9449482888960242
Ni 2.4908951933922987 5.691385616923672 11.345056853572503 0.3548700860785824 -0.049427915613824557 1.1028551606495587
Ni 1.3311741227701872 3.7950021029176555 3.7369512778280605 -0.06884488668785563 0.027420815215114067 -0.24180942410546097
Ni 1.7787364691777956 1.2987883435254457 2.4258718468726315 -0.3818003348105231 0.3749275189500898 0.1365147792310036
Ni 1.5006019233711267 3.4393150192632276 8.077496849638477 -0.9191074165735204 0.7222231351155239 0.42964805042142135
Ni 3.9115817854440076 2.9520595670826983 6.892954587982819 -0.04981435241896582 1.07968772139416 -0.1839405768131348
Ni 4.275552330381316 6.93867601007262 5.7329534487909015 0.44799852790415107 2.062263847945287 -0.3258004224061357
Ni 8.437270927406045 7.274092332746256 0.5043815996104315 0.8928358844715011 0.7508371993077907 -1.7166600176599793
P 0.5075107044783037 5.877745250279045 8.034877164152398 0.1958895216448949 -0.6651937530053577 0.13674540718457096
P -0.230161627852754 1.5134376392577045 7.846759575963092 0.3509738363479697 0.3656890310709573 0.05964290847361341
P 1.980677767589512 3.2073872260972953 10.347082224079761 -1.5893695852407208 2.3821054816648264 -0.7886897513791902
P 4.108259254384114 6.312033988573668 3.3878079461320136 0.1674325518557826 0.7925258372958287 0.9380451340182877
P 7.048504854108519 3.43231786639542 10.311486147450168 0.39377139112947024 2.415902118499297 -0.38960980355261293
P 6.835579759017741 7.990328928319181 10.399236100520397 -0.9235819074051062 1.540177439786786 -2.775491721540736
P 2.6482809577670245 8.827268691550465 5.675819460550348 -0.8627161822679851 -0.7670804006395305 0.06984453159696358
P 7.305164435311774 4.176707283024479 1.5632478800115885 -0.20553244405129764 0.34446920246023255 -0.6861415589016184
Ni 2.7152328546338294 1.5772330629924864 0.15491623467288054 0.7957641417274682 0.8667502431280428 0.3466261009022353
Ni 1.8830278011005794 1.2967083554500087 7.145094756499357 0.2047690835227119 -0.9760419249770352 -0.3929167564386588
Ni 7.116022361767768 0.9326192147013819 8.996934596049515 1.0447911666272909 1.04444920990684 -0.38733566280645554
Ni 3.4965603051113265 2.1131492888325796 9.408725708936966 0.42699235796612917 -1.0274472760322046 -0.8356746047691608
Ni 6.262050415480164 2.323447030564911 2.3947340604731524 1.162545891641972 -1.1220499884104547 1.991555168575815
Ni 4.631312396073478 7.192808588219314 10.50443697108845 -0.15845143140309484 -0.2841084419839881 -2.224647781633569
Ni 7.563922250099898 6.425949826722706 11.41697061672979 0.9747412038877405 -1.5602050478616225 0.5178343177503663
Ni 7.964046271979998 4.250391772872303 8.33910461300014 0.9311970007482028 -1.0594256287110142 -1.4090326666184443
Ni 3.584430678543819 8.613942195252147 12.297567322658459 -0.5521379761282427 0.39563261270792505 -0.19519403823976705
Ni 0.26110327502582137 4.674070747431253 10.285102228533628 0.32178950147452967 1.100400528461479 -0.24845186912264308
Ni 9.228304988902249 2.304946083999183 5.686394557818096 -0.15740422108550314 0.713561602785784 -0.04338608029511883
Ni 3.6251272873355913 3.322297444510468 11.6606065532993 1.2716681377926355 -1.3382494252572952 0.004021205344251139
Ni 1.378749288618448 3.8551210565015555 12.519464647013237 -0.9153191531756817 -0.7820092540352209 0.8699178422227468
Ni 3.460534546734571 8.433913753670252 7.925697860252337 -0.11793058847091305 0.9316680268473502 0.02548271765213676
Ni 5.539774556284699 8.156718851599416 3.3301804168612796 -0.08885552548182761 -0.6942454189556754 0.04407796415582086
Ni 3.000492271874341 8.56132214604548 3.3471241091968453 2.407907016108963 0.1552411519959133 0.4394151571105142
Ni 3.504196050809312 4.786016070561457 9.63703268075579 0.8640629261038668 -0.2380676976748416 -2.126543998080596
Ni 5.5589597094541885 4.849200269730211 11.345256641900802 0.2811807268142319 -0.4293924827671895 -0.18415063594141187
Ni 8.26299894405047 0.18315116052146485 2.3449977140324747 -0.2611636602623567 -0.2591620564512956 0.3082667843977465
Ni 4.805392801580001 0.3546151599752007 1.1258136158906031 -0.16495066597419333 0.09437516974847618 1.5383763820223053
Ni 6.541307060117003 5.745346711073712 0.24094472392804536 -1.9760601582640098 0.8954362982088255 0.6795924449291909
Ni 8.186723591863066 -0.013265397633740383 11.686282546449815 1.0184270748114654 -2.3479674023305366 -0.5787242112572033
Ni 0.30183363801004576 5.002343953161612 5.849757551083288 0.7399676035831385 0.34210970108912053 0.206650873926457
Ni 7.431669674970035 6.50262658011765 2.4995481262412107 -0.3124222013270168 -1.6489626143130052 -0.07669986395590016
P 8.966892452491527 1.8041524638188797 3.564762931649809 0.06344222761504559 -0.699859165598027 0.04692031870062242
P 2.042703376909229 3.390891437226302 1.580672341520731 -0.36328273562230984 0.7626694160560286 -1.5330462280586437
P 5.017533339765132 1.4754231203526802 7.936699902440833 1.6503911192294156 -0.6808836529367887 1.9777938531256647
P 8.776163019626791 1.8364105244975855 12.462024134214197 0.7775116232751835 1.9942208883334365 0.4324520955291198
P 6.62343922083261 8.095988673449488 1.356370259022596 -0.6532301528855782 0.5612077996399948 -0.7568844339431352
P 2.094064485964974 3.5374849827710197 5.830983834151525 0.01600743117184985 -0.09159477878986161 0.39313915686211004
P 7.421488680706054 4.3130742205316315 5.68583350840301 -1.4172383423576882 -1.7341396625019814 2.2029751817561416
P 2.688065291087114 9.05786456252774 9.951140072961856 0.06661111226133044 0.007233541633961735 0.9418979321054747
