# total energy = -340870.5562798247 ev
CRYSTAL
PRIMVEC
9.23865494647574 0.00000000000000 0.00000000000000
0.00000000000000 9.23865494647574 0.00000000000000
0.00000000000000 0.00000000000000 13.52170537172107
PRIMCOORD
 96 1
Ni 7.535130254798123 6.916084930564326 7.291093027824853 -0.2786535895170039 -0.2856768149123725 -2.14458337208081
Ni 1.6346968736419467 6.242198949603491 4.073778503255915 1.9188752244125857 -1.1789557004585631 -1.180926708142005
Ni 5.0780914512487865 1.1371306254364189 6.129281335264735 0.9783656880142055 2.069267790066946 1.6037302248377672
Ni 7.740782717524509 5.942487739212353 2.0169517719699757 0.4763513680152312 0.6054546852735121 -1.240115302687019
Ni 8.768213552196638 3.005546996025901 3.680121256792356 -0.8820750464105711 -0.28116298620241903 -3.7282402232074694
Ni 5.695048839427949 0.7158747445657375 9.718347331168276 -1.2281604443179879 0.6831829904939266 0.10023008586735642
Ni 6.003555249482858 6.574790533527568 13.58836729599515 -1.037213354280033 0.9932305209411797 0.44265089043899253
Ni 4.85882121089173 0.9718603241914796 3.9402651550826597 1.2351476742690985 0.41679047773246286 -1.5390255855705302
Ni 0.9870024799151341 5.770676470150241 7.413870134895936 -1.2310228534674477 -0.5851599395802181 1.8250009055599279
Ni 0.4704840546189991 3.938235422555212 5.380570562710582 3.0291035375977637 2.6931922520098714 2.601843527792545
Ni 0.7985431543465995 3.102358862913135 12.489053257516408 -0.5665600650908436 1.1030189399209325 1.9277974666028799
Ni 7.702793367716293 0.39446100945804236 3.901309441950042 -0.4477082503572419 0.6228589967928886 -1.308396603561921
Ni 1.9921127238439122 3.5935504390934514 3.1163609685963385 -0.6812376938420978 -0.13120776519579339 -0.1829404176833946
Ni 7.445201185967096 6.846212981974943 4.065044278715865 0.6223766578398314 -0.27041603209856013 1.1340364713483695
Ni 6.811503354730421 4.186524278609644 3.24956297409242 -1.4034983670637764 -0.32253614983256707 0.4354507731461275
Ni 8.417800602567295 0.6749890763808486 9.08198876726021 -0.21613850170191806 -1.6583561397127633 -0.6126334624101385
Ni 0.12918873371673134 8.799458683775283 11.287635450504 0.9353778715987698 -0.8174215720962438 -1.0240922435170428
Ni 6.529234725185079 0.04693052022270904 7.600563953473141 1.439528006993824 -0.1388691383957931 -0.6446015306763028
Ni 4.135841016681659 2.5162123895224946 0.12099681823157916 0.2592985820291599 0.8642153925213308 -0.08376268433995251
Ni 5.149912756066169 8.191776905325558 11.586154874386075 0.6497884741938809 0.139962628570288 -0.279937341325434
Ni 6.826590078523422 5.889975223572785 11.342074225733793 -2.0899970521944975 -1.0030899302337626 -0.6694201323818794
Ni 3.1417155336774836 7.069659094441267 10.060554507329803 1.235032231737157 -0.5940950372863187 0.38606270963130285
Ni 9.315151173304674 6.8556733648065595 5.511392690650585 -1.5199361730392469 0.5127998406502523 0.6368090312150775
Ni 0.23738816689132075 4.321205392788678 9.603629102948775 -0.42690236935548415 -0.6520764988971093 0.39629261488942713
P 9.029140888440185 5.239795631621651 3.6751323830334943 -0.8735914344195923 -0.24130728765806186 -0.4073678988669823
P 7.769514934913507 0.8311519114193335 1.6338543082960058 -0.5328451893369016 0.4344518995679679 0.20392936123023592
P 1.1923500670229246 6.445818908205899 9.762414792172706 -1.8685949881007946 -0.9409993315506052 0.14042979801469363
P 4.821376941734943 8.48090985561689 1.2650490440756623 0.6633932094615091 -0.6091627302527186 0.6988263534581384
P 8.055423594571796 8.885442846874765 5.768291973266607 0.5265465008123835 -0.7976389901526779 2.063079658978363
P 6.2051888972368285 2.677944285860686 4.769794758664853 -0.4624201026461197 -0.38178902195661346 -0.603838746936644
P 7.930914239667774 3.6196496397763824 11.393943730977774 0.32815041069555095 0.6861091630017861 0.4985556720264123
P 4.11684634177755 6.416412268993945 11.910580411059305 0.08889794868398883 -1.5269838239146476 2.3456737212003542
Ni 8.830380462425113 0.7700391317387952 13.282614929028234 -0.05714199642863061 -0.31534246029760526 -0.3260629320389029
Ni 4.525435102628279 8.097958362693642 7.098557607622226 -0.4159085893481418 -1.0328481353328018 0.3276899261193647
Ni 4.563599986883567 3.025114467546768 9.510992184305298 0.20700491483176606 -0.3651077046461906 0.9019964679248466
Ni 5.9982892160707255 8.207833687905003 5.2142128717593135 0.4644731285204065 1.021994994668382 1.2677528618986296
Ni 5.599872214495009 1.7348438950235299 1.9048970480183995 1.2575854344473243 -0.6362595864695108 -0.7620387244505651
Ni 7.585545595727947 2.7086720527532266 9.332262086432056 -0.9398731883659619 1.4534379322066968 -0.1148583773034925
Ni 3.4125282308876637 0.3035498715889286 0.13688268569150833 2.079541404078812 -0.25046632844951056 -1.6937278343438378
Ni 6.295145682033183 0.41484979741809913 13.198185631583597 -1.2732336825075428 -0.20019200567499068 1.7360739034102164
Ni 8.207094595496283 2.177569486502021 5.68603930296565 -1.064259816874864 -1.6830780679394757 1.9582544975411564
Ni 3.7653247535351277 5.843754232062447 7.77552190846538 0.09196990274109322 0.8470471082721605 -0.10014395391145334
Ni 2.678729571544951 2.435133952285892 11.24969414170235 0.5410593497165779 2.115377439940815 0.7101001265997449
Ni 2.3252678657296384 4.924545003337171 11.80431370453352 -0.12958668465260265 -0.09107927260602379 0.1771801181608497
Ni 1.043025684496123 2.359256877875657 7.113904861489301 0.02491733206696999 -0.5557128379636945 0.6501908518386221
Ni 2.9614324178804163 0.609731836018412 7.101465012385029 -0.44122907039080134 0.3546962795048795 -0.9613244162612025
Ni 1.315510578281032 8.791855270620573 4.626262089025885 0.6951900422571318 0.8821645208005839 0.5162698014767237
Ni 0.46115948001748325 8.709889922493506 7.276746320306083 -0.6958855256622596 -0.3043702775568178 -1.5547293694590318
Ni 0.5859459945747751 4.819981904813485 1.2783083618881022 -0.16006736973996305 -0.9065686606765612 0.23667056021699884
Ni 7.607450446991391 7.731183754866256 12.36071817553175 0.8744383558009198 0.6214148081471944 1.205300251890363
Ni 4.702937383237537 4.238002064877004 11.89969635147539 0.28726549955573105 0.248859646084023 -0.46667862081215755
Ni 2.315816721553129 7.1613435077430045 6.1767421542907 1.372835904982913 1.3723026581872622 -0.055061202640201944
Ni 7.4353343023106815 4.642026930103886 5.506593209321458 0.24252701899777585 -0.040069100106743895 0.9309997971357321
Ni 5.105945996402428 6.736882737415011 3.8236677844139875 0.06368725374631612 -1.6245206792205569 -0.4509689233863846
Ni 0.2116511214886626 1.8326073433869905 10.75447543576002 1.6273769177224298 0.8377592552123314 -1.1328766467123135
Ni 3.364348644494217 8.0852921665392 3.030998566985691 -0.8726383264777036 0.38269944958602475 -0.5327706273452244
P 4.820563940085352 1.7326543337626963 11.596701723058512 1.459992702606079 0.5593704893209398 0.5199014846920401
P 1.6616829852153419 0.7576870498580593 12.407544298951725 -1.750787041250675 -0.22300797512824175 0.38799335099511245
P 7.075562595055921 8.417708216016205 10.375434665544411 0.7706123250521889 0.5367136711533724 0.5597111604898102
P -0.0540673812944132 6.883518671305093 0.29064531813267447 0.21449248145806285 -0.06257756562190513 0.03828526873344374
P 3.7926249793822295 8.891032233215713 5.126132457815598 -1.9509299388552857 -1.305643723407132 0.7630062305701569
P 3.467525944751553 5.654001494778653 2.9364815820275343 -0.9233247970889775 0.05655398513564454 0.011621129178696114
P 3.665473369117033 8.84948600119053 9.078459601008571 1.6428626720628547 0.12575754071449957 -2.554164990769659
P 5.98381224351492 2.3274759043006896 7.873621643874808 -0.7494446898356383 -1.4558331719117508 0.31043962367934924
Ni 3.302070870404434 2.479525690084647 5.1813149447816675 -1.9522221753041475 -0.9970324111857732 -0.46751551489115606
Ni 4.301360761614541 3.622301133792666 2.6941590494424954 0.8533468252379434 -0.12191399859869327 -0.6375806192737794
Ni -0.13226151040598547 5.547544471957621 11.705334449157714 2.8035380861549912 1.2752211452512168 -1.6345235560695397
Ni 5.86604710684047 7.25035794971824 9.00738939885155 -1.1317703010220121 -0.2974460396331587 0.45479112534595223
Ni 9.537617988329444 7.695864376384542 2.7030567981779754 -0.812099388552382 0.19528325551946368 -0.5988055553881106
Ni 2.090883185614254 7.242375751704063 12.38515257056404 -0.21527718214288732 0.8611406102507493 -0.09253297433341483
Ni 7.303729660282945 5.344183195698266 9.165931187580602 0.11659824281273468 -1.0440380905113504 -0.940971049415831
Ni 0.5816777359144161 1.030239385825264 2.7458391622567424 0.278107744315863 -0.37978921791776526 -0.20030847664819695
Ni 3.240338176966082 0.29680011016629165 11.010102555567531 0.32050883498989324 -1.748283300992215 0.5942516174688411
Ni 6.954582406403538 2.7671250236278837 -0.13306527340046864 -0.6524459664213861 0.6977097233551919 0.4365494055269449
Ni 8.982273191072217 2.627953923065875 1.1806871888133204 0.1502411276781606 0.5553006901269405 0.428389752534288
Ni 4.40478750555982 4.4160771421030205 4.989279335820438 1.2484515904668563 1.2394460445341364 0.2985210178648923
Ni 8.581232411445542 7.514093837114925 9.169974946921812 1.2866016191740166 -0.5401244966071342 0.8645282957760595
Ni 7.281270489712962 1.4597259845325554 11.407600310959902 -0.6684706239844165 -0.46322280105307323 -0.46067072405518084
Ni 5.696554740210717 4.4952616550422775 7.326804125283189 0.17731767217997849 -2.3893919880239105 2.2401232515613487
Ni 3.9935010574172627 5.555064737216348 0.8298917588624656 0.3968793406308326 -1.5674365326130555 -0.9598457748331469
Ni 7.795013623014352 5.038550007382257 -0.18052424469541262 -0.8188004547216415 -1.2197300541624478 1.1983217636900008
Ni 6.773698778024385 8.15406471517061 2.201293428956428 -0.7415809708168455 0.6638223265791278 -0.6724779453715967
Ni 1.5593002092973804 9.029565866575199 1.0549306154695832 -1.7386264946287413 -1.0153044700220837 0.04605642803843035
Ni 3.1555088457552243 1.2721812858198118 2.385431835530482 -0.8288447263315208 0.8394453846655028 -0.7267927567640773
Ni 3.4407800382109923 3.374612790320319 7.481979348090522 -0.24416378327025046 -0.8669284205771199 -1.1344707306723105
Ni 1.9830034099064362 6.552442226818893 1.183123422165564 0.3369988622251163 1.6137940368316723 0.9382263967911584
Ni 1.6717254033188274 0.39075446102831074 8.970934589656938 -1.1350682550469937 0.5934808007410876 1.8452398583146223
Ni 2.5053015378387626 4.568422564850466 9.357304384970517 1.1098740151695532 0.753300830356935 0.9062035640276587
P 2.511278947694287 4.896865992630601 6.151416229040393 0.037338074328826014 -0.35028400936979676 -0.5565273634451899
P 1.1019683040915567 1.886182304364094 4.632157274850939 1.34516929230558 -0.3671905553171482 1.131255823279439
P 6.0560677651224255 4.607465121341109 1.3044731570223072 -0.35619394709632846 -0.5983525270110922 -1.445118613707724
P 8.404164347626407 3.928876664929793 7.700435662932476 0.5607532286010793 0.4166372399840503 -1.5406147844345208
P 5.8296929989865465 6.004165000720052 6.078088099574733 -0.7399778879957837 3.625812615468162 -2.3089833077578557
P 4.790649174842403 5.167577064634582 9.701634604076093 0.9031480650307865 0.5902250128079513 -0.34759540679404005
P 2.0627237648420156 2.5038141143662136 9.238097094233552 -0.6101700884713104 -0.16636914358827476 -1.5968712929344047
P 2.2050360081410845 3.3334730591199326 0.75942206928753 -0.4123609812061995 0.44111491341044035 0.6451990550509855
