# total energy = -381181.5886428864 ev
CRYSTAL
PRIMVEC
9.09608512672907 0.00000000000000 0.00000000000000
0.00000000000000 9.09608512672907 0.00000000000000
0.00000000000000 0.00000000000000 13.31304002935205
PRIMCOORD
 96 1
Ni 4.068051299706564 3.447607325221377 11.812074421550358 0.25157473102234096 0.7100944701727899 -0.41300092878304356
Ni 2.456688894838122 1.0931220441835123 1.9029929034810653 -0.5167745090272842 0.37444029490102615 0.4447311700067889
Ni 3.583011650161804 7.170007385660427 5.121313388742862 -2.814015074426915 -1.3215642512921306 1.8498390476495303
Ni 2.524054502154312 2.0336936427418806 13.047990450326425 -0.5651166477760976 -0.4374801448713304 -1.073523244454661
Ni 3.762823063262862 1.5169541361221912 8.100345888319428 0.7847130261196291 -0.04962151968186938 0.6640362423621468
Ni 8.775166260392542 0.34283145284191036 7.724878591230994 1.6346312852919977 -0.2910406503274472 -1.4408040454927704
Ni 4.381584261977931 1.3962127005949023 3.1466833563150796 0.2313064676916081 1.6259795231542706 1.6261913820547609
Ni 6.813722822742816 1.1609151675061642 7.988050167941084 -2.213821380442026 0.8150103915515899 0.3087010437216877
Ni 0.7578321556173044 1.7833148003187862 11.24939877484054 1.2193253625248612 0.36473412335685573 0.2107803227137983
Ni 3.251950531625477 7.457289045917951 2.8121402563473943 0.9270739797187647 -0.201842139683904 0.8822483387636418
Ni 5.230112573953457 3.5570696150462524 4.261943452765152 0.6122729937469261 -1.3311462385536108 0.8442186376844298
Ni 4.7213685262631415 5.737737803158778 3.797651064053161 0.9964408003483612 1.403463400060783 0.25547612295927613
Ni 5.619397734135874 7.098484867387784 6.253361220119042 0.0643174311311473 0.9082871860295647 -0.6732788440063372
Ni 6.1203555328574275 8.652723856924649 10.221006292469541 1.5246706024004388 0.6769262109509374 1.3336669480929355
Ni 0.7837414448259777 6.174459047888036 10.81033528816098 -0.34449439927121317 1.749949118730412 -0.3866404365116438
Ni 4.495912957408283 8.114972393391591 8.793808687099878 -1.5244479448666712 -0.5148353830230423 -1.1132444743036827
Ni 0.24182761268532088 2.4919635134138964 8.422015298841448 0.5457428712351763 0.6725730761885642 -0.09374267837079983
Ni -0.3068173225358086 1.6282720273368185 4.975841516654507 0.6542799343063312 -1.5261782972942166 0.18472219217416574
Ni 5.782153987404652 1.6252612231210937 11.828330035489698 -0.36117314547847473 -0.09277105848614992 0.15609681512798923
Ni 4.574184770931888 2.1373162458401835 0.9763601459504218 -0.7099121789586548 0.13236476161837202 -0.10720805984708633
Ni 7.057043103016658 7.909846575056809 8.037281819715071 -0.9071361031442571 0.4671267640931697 0.5525051296596742
Ni 7.275822145302506 6.629963708645913 11.350471745244983 1.61585297624323 1.975944201511436 0.48824426279807515
Ni 1.0918940726755881 8.153057702307724 2.0686471695085458 -2.3655164669578936 0.919048538311127 1.118265838777674
Ni 6.817779676761587 6.131161682127159 0.40009312866919594 1.00900680993883 0.08837035831529297 0.3393442225288414
P 7.802440000497051 0.21261189649049647 11.937483968024805 -0.2921233418686646 0.45568766901829255 1.4145258285225315
Ni 6.541904507399892 1.9571227971588823 5.770430952742338 -0.06309127203353006 0.11393509415827474 -1.3784136561810068
P 4.583881197801865 5.1298828106511225 6.217029636437929 -1.6785932926952447 -0.5698035117288057 -1.9320852953449563
Ni 6.9797718588698805 1.2514485039385215 0.6344210190709362 0.3478648584053428 0.04066713870205899 0.6967239624031549
P 6.375255129646731 2.823470340127174 2.113058805711799 -0.1616982204751667 -1.3205669203758674 0.7427330821434176
P 8.507050051743878 5.242355904691723 4.489542968911993 0.9693334026086081 0.67763532120282 -0.0643490557000311
P 8.253114639990425 4.995360805979353 12.439345008011077 0.7206424208919654 -0.5354738852090003 0.4411455095380596
Ni 3.1218037439560136 6.198281695141763 7.693792719910028 0.37206305291810116 0.32139792246306587 -0.22775166046081424
Ni 5.831245559465883 8.36109426792055 12.829337843625467 2.386078864490278 -1.1945959780989812 -0.7605333435496321
Ni 2.773751138184115 8.188086726581913 0.7768520698622615 1.1249486501144883 1.024978245666422 -3.36531744202774
Ni 2.317955402698435 6.324398917048187 12.616315713690472 1.635573594600609 -0.9407584191843927 -0.794184198834858
Ni 1.4361718030712758 4.777937080394842 8.732355535192212 -0.0238670364255847 0.2788317669660811 -0.22038159324898818
Ni 5.071722441601741 8.582356541477976 4.371243832272686 1.250804406969749 0.8675215740764286 -1.0655219714167392
Ni 5.072786683575275 -0.15812998431374123 1.6278390536792096 -0.046160557716462436 -0.28782522871394306 0.7063488870874287
Ni 1.520365168088647 1.3745003451177562 6.499838751581035 0.6590889256592004 0.07845155653968425 -0.056494849762934965
Ni 7.241120580097097 3.5507478358017543 8.826932081515475 -3.1292904289320105 -0.6221704553662962 -1.1325179778213141
Ni 2.870306083047922 8.670670433110827 6.845618245650488 1.0348795639405337 -0.7230523158850386 0.711258151463588
Ni 8.356491648787145 3.770982251726624 1.1530979918475723 -1.6046745910289075 -0.23821656454788007 0.26662494048724406
Ni 2.5378987438955 -0.05125644034927474 4.244995626738751 -1.2482854972026374 1.6543992119475444 0.34651142970124194
Ni 3.930072782642119 1.6455363971297066 5.564198140833375 -0.2836512998419115 0.5031584609057465 0.10009973093707922
Ni 3.4369376172303037 5.863764064212761 10.312653899344271 -0.9960692759415556 0.12809261660557938 -0.30340559965070324
Ni 1.7360606374768195 4.1050177901377 11.351776123868955 1.4654534686103342 -0.8303922733242989 0.5073035934223715
Ni 4.49764121360462 6.550427539273409 1.0413189291110803 -0.5729446284609487 -1.3795572828671467 -0.9968678605834509
Ni 7.348054158224173 8.824012238152187 5.610207959213979 -0.5278821889046715 0.39559301771924127 1.4404155518050998
Ni 8.048088878593326 6.622786897388489 6.408272099864974 0.5758450899371953 -0.814360673782733 0.2989673613736915
Ni 7.0243881569911215 0.7777425766076376 3.2651425840546784 -0.8415380055284734 1.229743729644708 -0.20989817721916107
Ni 1.636713194443141 8.649176383679533 11.831698315855508 0.18374054498718678 -0.3545651532436539 -0.4921502827207008
Ni 1.8970977306345054 6.002315634647571 1.4902352953268123 0.8082399055969758 -0.6172563058941305 1.3839034756509843
Ni 8.786481790435932 4.147869447721629 10.401611793812389 0.29381847018290047 -0.771148142951001 0.41155751146829767
Ni 3.6551799904867632 4.112258273991831 2.626329975027996 -1.2326863572127997 -0.6890209373319424 -2.0081909773602833
Ni 0.9855335479188766 4.016722090675338 3.2541727052505567 0.4337510168462014 -0.2601853555094874 -0.022025612341471743
Ni 3.4765874528083853 1.2132358498289733 10.678336537535863 0.3030875541896522 0.25857430226862566 0.0013506004906234804
P 5.59253699441069 1.7840606793087845 9.696020274967747 -1.080999498227048 0.7137742330172223 -0.6753051304077466
Ni 6.8699639178057375 4.502025526692172 5.984238074833881 0.6318146633242796 0.1453884275715496 -0.4122285693933933
P 5.621526218082941 6.394029449590103 10.000875571916449 -0.55084111169369 0.6089796677076351 -0.3508491378446474
Ni 8.771818901022794 8.790929776120189 10.155387133520176 0.4958845529521524 -2.03433318297329 -0.5199320808196595
P 5.279640758106395 9.272549297613251 6.493808047064341 -0.3477519869765624 0.1443587007554546 0.9347196691894806
P 3.6380884463135086 4.573748158840181 0.313240977935038 -0.5286766597815089 -0.029335001518691412 0.10847895613970994
P 2.2125317747218434 7.667408615051624 9.78207560863454 0.1879828652033085 0.034239380798844254 0.29843051503361506
Ni 0.20490933150597726 7.042962363059129 13.384131732471461 -0.38625914191282507 -0.2798838623796792 -1.2666583432828702
Ni 8.773374331599497 5.940671464949783 2.166683866658581 -0.7213386756280417 0.04652771124789406 0.9736492563751425
Ni 0.17248906447973325 1.5142435027195145 2.579867171602247 0.020674754740532132 0.308515667183759 0.19573422701395324
Ni 1.1918600495058507 5.948193927446473 6.16198103815048 -0.18910386618162917 -0.7806023463853653 1.3095410015790092
Ni 2.6731393393015366 4.911758686502833 4.7188470914335365 1.081557427613047 -1.1081120381731238 0.4348445070206962
Ni 5.855777701368633 3.792885624993892 0.14334247853276236 0.9468663318543434 1.0912198904034756 -0.36877666885734556
Ni 6.49440475025634 4.89921518495152 2.481910520002358 -0.15240728209154397 0.6770120857965244 -0.02875984574151176
Ni 0.3310392879317418 0.7790969837004517 0.296611514892173 -0.2429363386210526 -0.13068737391594912 -0.7254758377248667
Ni 1.3952939959852704 3.8442239301103616 0.7638383007038397 1.593314943041714 -0.5194916508481311 -0.4457786374346968
Ni 7.818758377424575 6.004553271617566 9.036612309731867 0.38928558744397473 -0.5896249173301071 0.2646675596505571
Ni 1.6736978770447648 0.600969255978036 9.060588680826216 0.32361472760872656 -0.3065639427740269 -0.07367367553506667
Ni 4.002750503740736 7.845100640290857 11.48420148089201 -0.7656542097159653 0.7539613467590691 -0.3453122671868182
Ni 0.5798836207741932 7.367447011964129 8.258464957330878 1.1054699725645865 -0.6680834158483269 0.16666070668676458
Ni 8.657935913769391 8.350761115083499 3.872190753801201 1.0063729718604086 0.7684399999912186 -1.4232593517407877
Ni 5.599713805668113 5.6934307719358275 7.97049017537777 1.2620740663462975 -0.5710124444352424 1.7632373511988861
Ni 2.954108316399806 3.6129832510403945 7.053794890976068 -0.6497403945647648 0.5348647908700918 0.0757909789883856
Ni 1.195453003177184 6.6918989530715045 3.959417663247407 0.3810007217273632 -0.7162293794259342 -0.357714497505913
Ni 7.8171665625068965 3.340282615428814 3.7883721474958776 -0.8323720227584891 -0.5249596159412379 -0.17733232746799782
Ni 5.206317214955463 5.786711126111837 12.045039718382563 -2.432021135548347 0.3600151206146316 1.46247381715672
Ni 0.7913321279619973 8.198847395425426 5.813951172591691 -0.2507008130578198 0.737911235274742 0.5364082240978116
Ni 0.8265203337279545 3.506249786788684 5.980364052128511 -1.0275771167418497 1.4231793904324714 -0.3666652789412975
Ni 7.008015203552134 6.851371519567243 4.2817001499148635 -0.6446856057496768 -1.0663645219226927 -0.7828860002132195
Ni 7.810007943419961 1.7477854913561834 10.223230285311669 -1.5738018127094509 0.14859536454462152 -0.5492058900831123
Ni 4.357998112940545 4.0768563102226425 9.200894886104571 -0.3022174928798731 -1.8830343034545765 0.6607046068857525
Ni 5.214949399851906 3.266413307163249 7.131862042581685 0.752973014703871 -0.526141552064481 0.3149629654709995
P 6.006572602541708 7.156044894811068 2.390715898172771 0.5148685502538229 -0.20346347733741088 0.5664651913841922
Ni 7.733209695705865 8.134938300501911 1.4636219691202625 -0.2720126871617186 0.9813353121654905 0.6538551880640868
P 2.2153788494031783 2.845710268548465 9.460831894901936 0.6528182621591403 -0.5856109110747075 0.4988130394528571
Ni 6.543050614140621 4.410246026581403 10.897907848846454 -0.6911572669486549 -1.616217301561184 -0.18898148167115197
P 4.1232554410516835 0.49785694326191465 12.926748730110724 -1.2818785026667343 0.22399707851438844 -0.7508878500400681
P 8.604114377381343 4.49117389699622 7.634309780066187 1.0454953917831673 1.0362401917334862 -1.6361292099937632
P 2.0751626953687383 2.3156086127055135 4.326351922768556 -0.24777875431501842 -0.30902603116127425 -0.38132545205663354
Ni 7.82657191464907 2.7688847325786385 12.315268038024858 1.1683830671490394 0.7126702013197661 0.210695733419792
