# total energy = -340890.4484419864 ev
CRYSTAL
PRIMVEC
9.09024990191306 0.00000000000000 0.00000000000000

0.00000000000000 9.09024990191306 0.00000000000000

0.00000000000000 0.00000000000000 13.30449958798898

PRIMCOORD
 96 1
Ni 6.609111718697919 1.9234241794399738 11.28712526890012 -1.0784697898266586 0.9250854885338261 1.4665479872260938
Ni 4.7461104310531805 0.23833999200343353 5.771797882271063 -0.5718981894743055 -0.547247995025793 0.6869098045262105
Ni 3.080631185806318 2.034870644523408 4.854119872609043 -0.8067664063752428 -0.8021690168125475 -0.03579155577731256
Ni 3.433423788570437 4.5489156376555515 4.8183979171572995 -0.5895089605775331 0.25542367245478587 0.5330565340167595
Ni 4.683905850256612 4.811469328602112 2.6343444526972055 0.4032060541798088 0.3311274910460039 -0.20682210939699866
Ni 7.394291153285745 6.209758855398944 2.673339807176399 -1.1871636901906522 0.7414297899509618 0.2976969793017002
Ni 5.192159908637117 4.892418004912715 11.682694770146265 0.7356514927062879 -1.4137863792533458 -0.32758348244848745
Ni 5.572450517671821 7.843294962121892 12.438377252487006 0.09008297013102551 -0.10874866486132884 0.908169686615094
Ni 1.7278656310435687 6.3419401807479 0.330436950922382 0.08724884311634007 0.6683333270756039 1.4895794151242605
Ni 2.6141831872071113 1.7409737715533822 0.35572329936631264 0.28604731087791385 -0.81493865777339 -0.5400000552141281
Ni 0.6955113904706954 0.12668626921984383 4.583785836681656 0.09486625045228178 -0.7212808258069127 1.432173880621598
Ni 8.541017101394242 2.362346901018574 1.5358450079498123 0.17504687386793077 -0.37229213820977175 0.024340633627893564
Ni 6.9669675907158295 0.3941150612450547 4.469965907321446 0.41636316038705706 0.5817313735146433 2.7451601604367304
Ni 1.2070579374036652 7.619011223703982 2.654433905212245 0.13272368761968753 -0.3737985475519691 -0.772703660363579
Ni 7.7658551223139165 3.9252154041886174 3.750405351432746 -0.6733822023534209 -0.4816288143640866 -0.6589148619751813
Ni 7.501592464366077 3.6741881502506852 12.91799066017107 -0.07584265816192745 0.9024240423805684 -0.5136513900172702
Ni 8.145727579848309 8.761519295809322 6.9967563399881305 -0.4833098016109354 0.8656752648963091 -0.2339066243186165
Ni 6.693914661011408 0.8127165289334412 0.4154798758360495 0.93141168786217 -0.1405642667100289 -0.8769336114189478
Ni 1.7808617885832443 6.322750662983535 9.395211532083737 0.6376790925248566 0.741923955978561 0.21698747996577467
Ni -0.29416230827022494 4.763436447566153 1.5685071852492647 1.2768568810824268 -0.23307332978404374 -1.1916466656626703
Ni 6.409217121048268 1.8906447379154334 6.630909229189238 -0.21258626557428548 -0.04058563473184623 1.4346578233857161
Ni 3.26962657369781 4.225984506163789 0.5537516686895668 0.3108216896091163 0.6604019880436691 -1.3300239520237094
Ni 5.853830116382476 5.738338490046014 4.625549172287923 0.7235125433509089 0.22722689830559578 1.1321950472642566
Ni 5.601521137193585 2.8332854831211427 9.13506948446398 0.1883561893823272 -0.42383915704912817 -0.130535164608801
P 0.10829760248107713 5.257582437936096 12.529898798580524 0.3161713839568039 1.3947113648997658 0.5979342085267508
P 3.999464566244204 6.113084046576567 12.918243369121258 -0.37688412845582836 1.3255610311563493 1.0594775649948722
P 2.2332380801719163 8.803016287090388 1.1417217654797513 0.46067869447498083 0.04518610961833508 0.3890919833759299
P 6.530817395389304 7.8240599931074915 5.898177810065678 -0.6800716985584546 -0.6734091989366144 -0.3369392126317745
P 4.905526145422528 0.990673626241669 12.327297124478847 0.3538557858814551 1.23580639089902 0.7122025176547283
P 3.8389307511240203 6.03334437351687 8.42953154823578 0.9148198449417599 -0.3702365412323237 1.0051090175463204
P 4.64910837323056 1.1086196200799694 3.7323112087941994 0.24981172558464718 0.23861020044187295 -0.053330078881708154
P 0.3420342918810644 5.711222274275713 3.498870861544434 -0.6141786954100712 -0.7015154702545273 -0.08914143215336261
Ni 1.5952934249443185 1.3711824012765375 2.8068901241763817 -0.05270658636509633 -1.1571524885405426 -1.3220206221032587
Ni 1.9347415406984465 6.50755544562189 4.73427310749432 0.5309968232742532 0.9938833240338303 1.2552639854029992
Ni 6.125810396586096 5.6855604985065025 9.278305462846214 -0.9866505537308169 0.07748147931693107 -0.03404551962048331
Ni 8.633137694963208 2.1597797698669217 10.193042776631033 0.4977177495061493 0.47587957058513525 -0.7190478227113358
Ni 2.318968227986099 5.09585780006502 7.221350055931272 0.0049915396773204355 0.1975406840950727 -0.4720643106041031
Ni 0.5173624888873241 -0.028901540871637176 9.150062942825205 0.6097833945558531 0.24584091386235724 0.5619703888376322
Ni 1.2958424092201342 1.1481349368595526 11.437705260262852 0.5789049598094417 -0.5704118347367659 -0.24753424240438013
Ni 3.792325039339129 7.236275337417446 1.708777015054278 -0.006615191323672479 -1.118289492926758 -1.0585627664900867
Ni 5.82522309961106 7.805715868593758 8.139040791943303 -1.0491597280086318 0.4088493685085152 -1.127667077486916
Ni 5.324550309736231 3.2349836309218745 4.793026120363304 0.5878045762919167 -0.8855177535435329 -0.46672772888253816
Ni 0.7656926656482367 7.1870425433805885 7.150010682902864 0.8418696778362792 0.7807851518201326 -0.8432740143829737
Ni 5.4153619073042165 4.799052047092816 7.095994599312425 -1.2306143051751193 -0.7327381757142348 -0.05594077703167785
Ni 8.115647942575789 7.2673367216907 9.061003036433531 0.04607982507719806 -0.12446967514101145 0.5324111871232766
Ni 4.535671143395636 0.14001439377982194 10.117779142674687 -0.07619489929502361 -0.373160399747338 1.227084180534674
Ni 8.394473181034533 7.131873816089286 4.735523925895255 -0.4267630155641424 0.8705403062980943 0.7575344088223083
Ni 7.37022926151773 5.9993741092414385 7.019760126655352 0.3371011921309356 0.8867377419935633 -0.5207797735319353
Ni 2.237474136675088 5.112956560327821 2.525978673341077 0.15090627206598525 1.338800412664759 0.5025815053563537
Ni 2.4481497708328104 5.298906714467034 11.662006270155775 -0.8034021178887002 -1.2709621128645465 -1.261131757037686
Ni 0.9981185409972426 3.444350269078617 3.7856355243591207 0.17233590269467094 0.08360790392964311 1.4044769289269619
Ni 3.71862129228395 2.638126905725037 2.2558573492638505 0.70185665564403 -0.2517318254254955 1.7056302422083787
Ni 1.0131174535084715 3.2686720974470953 8.208263954770127 0.014857633838122799 -0.19888100017305102 0.3623249996947308
Ni 4.016654229007073 2.8243224966144322 7.102141426367027 -0.7020906260317069 -0.28047984409246535 -0.07000805375802137
Ni 3.955695012461436 6.940678587696148 6.511727870375013 0.38077343620790555 -0.2578677631199043 -1.404577201950252
Ni 0.874937472180023 7.45528673083141 11.731415783107737 0.29981633963754817 -0.6652320624424607 -1.2707559103910115
P 0.06743147455048265 5.500183030117719 8.202956157791153 0.9693390590355629 -0.8869004928236726 0.32368851826945544
P 8.338368157992528 1.6300090897203083 8.006448587294038 0.30541440255061597 0.1444144936940545 -0.1043245676517042
P 1.953412914212425 3.266499527695469 10.731476465034133 -0.38589841613929665 -1.010818152115956 -1.2778387853797217
P 3.939987060449676 6.539407681645735 3.8569212649124887 -0.2895733217533013 -1.2091579350735564 -0.2524149675354492
P 6.959777202960445 4.243174168926657 10.562229645282427 0.5862408313492227 -2.037464272403104 0.342414633924049
P 6.297016165214268 7.732712070789104 10.376392210243297 0.07813402529926544 0.2929988024950825 -0.7674223573599815
P 2.4444773098300607 8.507083198118838 5.956091792859035 -0.5469016674299677 0.06310746998344616 -0.5013743724221301
P 6.580168362676251 4.0428705100267 1.8800455064074983 0.5036919648117132 -0.517639685241057 -0.553232237633686
Ni 5.29697958146559 2.893853818916487 0.36789605315042584 0.029180478218698135 -0.17792368119509358 -0.00818407847268913
Ni 1.3084051347295391 0.9677934669745398 7.0623879450372655 0.03436099397837308 0.9908342527948614 -0.7890340220924863
Ni 6.770200039068518 0.6014854805003028 9.416765423874873 0.5304021271130478 0.07324430130713191 -2.204245820938449
Ni 2.879409411655673 1.601338441198844 9.19225170213179 -1.087748129804791 0.7587145451733385 0.5377711658836093
Ni 6.284580703204959 1.7604087260679322 2.6936692422916186 1.2243027611347947 1.8722449261485563 -1.3612433150493073
Ni 4.198604673143291 6.750656001553887 10.598976071909936 -0.6698273951226271 0.4876343971282183 -0.6731145505143311
Ni 8.214295335649643 7.098912569564609 0.47502919460563114 -0.2988712021154595 -1.561793732504981 -0.2998284238224062
Ni 7.705150432768471 3.839639790624551 8.4188741391278 -0.5846493184923867 -0.1639973009219885 -0.6654300373858798
Ni 3.2722718364497902 8.770055040565712 12.335147464384722 -1.3421382187887403 -0.9522648771620955 0.601229591448571
Ni 9.267055369437792 4.587185590184203 10.311439646869673 -0.21206715984602187 0.15781199804688303 0.8001779545244477
Ni 8.522609345130462 2.4038620727996545 5.750364890805018 1.1134079964647405 0.08198193829044591 -0.28566164540372097
Ni 3.9016625664209843 2.852365917885427 11.55978731785425 0.12864566089557197 -0.9958759289838268 0.5691643354829101
Ni 0.8815097229349433 3.16980653837308 12.717811537696205 -0.045736068584534134 1.1827804735212921 0.23525413948544646
Ni 2.9488771022076805 8.546980305398707 8.180377794824249 0.23283987361699898 -1.3695785743878799 -0.17357337464619785
Ni 5.6585624559862895 7.921343848680324 3.575823463952045 -0.8134409901819409 -0.16465216089716805 -0.9968892007396897
Ni 3.167733961371528 8.61728429895134 3.653841443660453 -0.23401872441644858 0.3412964611592057 0.8967534743583524
Ni 3.6189194302093086 3.9649670674683772 9.480268092372414 -0.5485165773255715 2.0268867539975735 -0.6826690269719856
Ni 7.5292631853867915 6.303361159719019 11.41792124014804 0.3132225857411251 -0.8681962315459499 0.579835184933195
Ni 0.2607629116952205 8.926880033683119 0.1071776836802387 1.3062990976029438 1.5550862385778186 0.9563822417645785
Ni 4.6493174489807165 0.3898717325418779 1.4399992299280573 -1.196005199741682 -0.1676878623996983 0.0730740942778548
Ni 6.053924699532278 5.748592292053691 0.5925343113186016 -0.5018238012547229 0.27552044320466096 -0.24974410557150536
Ni 8.085759200553413 8.862439251384876 11.193887483605316 0.11929378736702682 0.20826835492522194 0.7661146942921515
Ni 9.30214373446406 5.041052682773991 5.760635964287707 0.09837220672301122 -1.0901621385629225 0.06941798558250625
Ni 8.224330971657155 -0.4925061092687153 2.5482370595077404 -0.7850323571322609 0.5984605133438661 -0.6622338990460852
P 8.458386728832382 1.4823743393597812 3.5102591267529597 1.067361081508007 1.3529160261305346 0.6387779820159901
P 1.6594251387423304 3.2504097851834235 1.6829397974599347 -0.521284738192812 -0.5659823382105027 -0.8237025200089492
P 4.661125683739558 0.853496299488971 8.030795912912264 1.2283350222226392 1.3300434924077351 -0.32930046513959416
P 8.40281803054078 1.6074834502034443 12.704559771236285 0.33124139091604893 0.2670052066447982 -1.7109423984499115
P 6.41350771905148 8.00455599724262 1.3795036161327672 -0.40141888037239903 -1.4418342865294973 0.7291617712168862
P 1.8792637449069132 3.257581992438793 6.1461198331513005 -0.46194624833349474 -0.2023262784091741 -0.35267410686852807
P 7.106548379570326 4.175460896625964 5.743326310224748 -0.47498071291994975 -0.4887795664762549 1.4075535109697566
P 2.3692827617737664 8.393555065783845 10.332367220435339 -0.6549538204449042 0.41718771317088155 -0.07019985805385329
