# total energy = -340892.319142993 ev
CRYSTAL
PRIMVEC
9.06988175468429 0.00000000000000 0.00000000000000
0.00000000000000 9.06988175468429 0.00000000000000
0.00000000000000 0.00000000000000 13.27468874567696
PRIMCOORD
 96 1
Ni 6.534686324610052 1.9058451185511727 11.406461584259146 -0.31350874952297614 -0.5468921543482711 0.16889448111328975
Ni 4.625131624547107 0.4295595621937664 6.08428054689878 -0.6558668191774769 -0.5130785482329357 -1.0837840029507206
Ni 2.6635611543863122 1.5519474143754128 4.834057250664103 -0.42012057054696034 -0.8432542168886316 0.6359019460197758
Ni 3.2671164152688545 4.028369704868277 4.718395401489071 -0.5744605508848428 2.015216773858813 0.29655515238777314
Ni 4.850155383244167 4.434056432105714 2.5597581752030747 0.89547717874909 0.7111190547825623 0.035671999480312765
Ni 7.164861687539185 5.93482250547639 2.5027702960960467 -0.6872018818453326 0.6824072886701668 0.6713538590694825
Ni 5.1614427843824915 4.36104388645834 11.397739986259825 -0.9411451130998502 0.5091609583460844 -0.0789421230228576
Ni 5.660141145857669 7.884529570704668 12.376708524086414 -1.2565605927272359 -0.02445839015268046 1.4616536352482699
Ni 1.9420611551685592 6.438536511391692 0.4314433765702831 0.8899230817000802 0.11860550305075057 -0.2999050426966125
Ni 2.827898336322307 1.6393175823531951 0.33123569839258854 -0.414855208382963 -0.015326088834109087 1.1924089977499917
Ni 0.5586956272462805 -0.2295496295390528 4.598445312365956 -0.1260539889089958 0.36901912388545477 -0.03230334011839598
Ni 8.654625994714797 2.352890505186376 1.2809620314462948 0.3770209111440087 0.4630939887846928 0.35045370217844163
Ni 6.622437427608604 1.0677608632152407 4.683150749174645 0.8691899629177869 -1.3940760453086118 0.10334472023693814
Ni 0.7013693973464057 7.349932618462744 2.427967355851059 -0.15846171581574 0.1462479473583675 0.40869227410536063
Ni 7.56773675152809 4.048786008005201 3.8713637081057937 -0.37247597208580363 -1.0913127072275979 0.5410043281089264
Ni 7.654771333892337 3.736691387418105 12.527828167789874 0.1672165791902346 -0.11522347395239511 0.6564746279648048
Ni 8.25931521185259 8.963664065254294 6.646371030770628 -1.736294504061455 0.726082360960614 0.0223858238943679
Ni 7.066408124433316 0.46515884687276526 0.47257347495558855 -0.24197757425220906 0.812821097209755 -0.63758190482536
Ni 2.090389996350813 6.424369356571668 9.220040590136925 -1.0064027966570797 0.5270990308817438 -0.9047511478518483
Ni 9.090288680134169 5.059252430120509 1.3631242734972793 0.05229803807276799 -1.2471601253489424 -0.6676607264886114
Ni 6.555429143479064 2.088303923618031 7.161561157680665 -0.10907390941123152 0.20088723196980243 -0.9357231707533303
Ni 3.438972528924312 4.216705793112713 0.34399248664762344 -0.5047605152855436 0.8343844252028275 -0.23276608295627008
Ni 5.617567122346021 5.471415052711017 4.774547037526697 0.6699865464083107 -0.5585760184441024 0.15639994819070482
Ni 5.374711976724397 2.762241464528352 9.199226119204484 -0.1254649491747452 0.9775033400139101 0.8713504609042155
P 0.26148468211351267 5.785332719468936 12.476042772680774 -1.4974392774883114 -0.4526877058497043 -0.0764419823088232
P 3.9857321921865 6.177178807618436 12.523381204916468 1.3141918700874593 0.2520064192431208 1.5174938821463415
P 2.232170383128421 8.438817235567765 1.2274025675261868 1.426886921191046 0.18513048335617793 2.2985996505306865
P 6.256839576366372 8.066961166127186 5.797322195753565 0.6763698242268351 -0.5508017738153224 0.14267797061892204
P 4.732020177398573 0.9552489838667106 12.647884374525917 1.2117992293511453 0.06454214554744368 0.4365092963176289
P 4.1766441267618495 6.2515427656013935 8.30083531514011 -0.7347986577876894 -0.1511960353922622 -1.3982697716749855
P 4.460032572569574 1.0515801947140093 3.5674791442044125 1.3099575202911375 -0.2823158688599396 1.7294661682857118
P 0.09146521945104816 5.520156595606543 3.5869929941373724 0.3643777684587015 0.3694446414586476 0.01401379778058877
Ni 1.3931428601220137 0.9299168049855784 2.5181419311722166 0.33238167516807915 0.8991011486549226 -0.5426884006795686
Ni 1.6855739777322767 6.529833938035973 4.76848019382688 0.6806671660506084 0.14433838904048046 0.3935104241585997
Ni 6.1872735856688115 5.900257187282336 9.253426823742885 -0.6224010833198635 -1.5035140229274815 -0.0805493196089774
Ni 8.788043950798382 2.604706693677516 10.219943321331055 -0.16931511359047613 -0.838792324462536 0.04482589806543893
Ni 2.472948525898709 5.1805711643539585 7.085843066397688 0.28150262893002487 0.6659679121672207 -1.303736221971774
Ni 0.3602112486509319 9.206655259097621 9.361362947901466 0.12923727173298388 0.3576931573496743 -0.24415375596792147
Ni 1.4338394181741585 1.3086931939701263 11.528163974477797 0.3933502444316516 0.1343337124192848 -0.6171542330986274
Ni 4.406338874404052 6.645275389091845 1.6819560020231166 -1.670432097040691 0.5587559956653925 -0.4875408089731475
Ni 5.617349445191295 7.955183947175852 8.037492214318132 0.5125645847109948 -0.2328362740725732 -0.41740985648401663
Ni 5.178321833755132 2.878979908631128 4.9693127647288255 0.722537323921833 -0.08657367142618638 0.13126972878198037
Ni 0.9113779673081585 7.649293125498422 7.233669436147785 0.3667228716521103 -0.004898208632565757 0.24629625623222098
Ni 5.161760230233132 4.649330068247379 7.131946180780317 -0.39634455117328515 -0.3349414654754554 0.4487989123182593
Ni 8.149696624685614 7.179110471292232 9.03349217552567 0.26652158214016036 1.2288610699294384 1.0254389873529244
Ni 4.587936040733458 0.3221612820049864 10.436798744797056 0.2875195245480661 -0.7713281201722909 0.2341141123437323
Ni 7.940499809113357 7.011979765870597 4.893660883580411 0.06018104036527054 0.07650291745374567 -0.7383197835670704
Ni 7.286688335133659 6.052903292033304 7.097232116530534 -0.41893117822454945 0.40405786065714283 -1.2657867393111943
Ni 2.1775878365811048 5.164871199569411 2.4731008999070174 0.6106064046777806 0.2597724363417848 1.3414471062589868
Ni 2.376834992206136 5.4181385690920525 11.477985762361087 0.06686385170208484 -1.8324475916459602 -0.7436728203488675
Ni 0.9029012561079055 3.317481466943372 3.9214221977874066 0.3427874438824354 -0.5099263757571992 -0.7400838174460286
Ni 3.431208710405784 2.6792883288151996 2.7903662599069783 -0.9187582607642176 0.15699464435191027 -1.3695628906585962
Ni 1.3907756210643785 3.606629287469864 8.35696064852154 -1.3174458582483828 -0.7186770696354784 0.4778678046597577
Ni 3.9008562416066095 2.5692978765089016 7.084727470979722 -0.6297513530373476 1.1595693255121513 0.0006281205023021441
Ni 4.204615641144024 6.910215696036618 6.144773935185027 -0.4360112736352878 0.6141167318238844 -0.46382829584755597
Ni 1.0562239740148112 7.282661307771246 11.191690419549637 -0.4928596500828996 1.2871706043036089 -0.26806861491230605
P 0.2766758265488898 5.802139209790002 7.925081917641807 0.6259762022656316 -2.2085038248838544 0.6375860185904181
P 8.584388832790168 1.6825899867362537 7.988932976039689 0.32343809282154623 0.029021069822698406 0.879543538237969
P 1.9191687743966372 3.34206991554586 10.622671453240518 -0.18330140056723915 0.3175600367742144 -1.131662314689238
P 3.679043220941744 6.1236211576746165 3.9239717414621245 0.5633130189084558 -0.07196029238838575 -0.7066353079795958
P 6.981595663023554 4.002175887249691 10.366150717242883 0.3321477047804021 -0.5796847753982597 -0.6402566234440457
P 6.360091106757638 7.86406791816051 10.410847093013102 0.40298262531509316 -0.4874953004471927 -1.7531707109915033
P 2.3131916340933882 8.437746989557034 5.877022871979866 1.0868726691783732 1.2307891401900868 -0.45772064028792137
P 7.00270127715044 3.9678735956175957 1.4493969858199895 -0.026248392173567694 0.049717164719469215 0.5004202360389769
Ni 5.398148550383131 3.0578833201708098 0.2830909536962671 0.2940429274888807 -1.7552198802110484 -0.027827820845545623
Ni 1.882562732877035 1.2706178316561296 7.359208386218467 -2.1474159564335986 0.0829846685233474 -1.336253477873189
Ni 6.7953002981046655 0.6780851976959787 9.225058955541485 1.1288770386346172 -0.17415547240191295 0.21339024953281957
Ni 2.9530899099335737 1.7357394920149625 9.472605043847432 -0.48177048214827345 0.2565246188284485 -0.9898461778499792
Ni 6.211045744941081 2.349326041777753 2.673522605179419 0.2681735159212865 -0.7686438884719085 -0.6430902362380989
Ni 4.199209991801684 6.804179712041159 10.343398012645244 0.33112569127379105 1.0353881281458361 1.5893153349640177
Ni 8.108310755643506 7.250553927449294 0.5621848106388947 0.49105422144304456 -0.9723734749865124 -0.8709853642553129
Ni 7.933633908858069 4.025031988495826 8.347018244479472 -0.4615073610238632 -0.5425750150301559 -0.7229864956441098
Ni 3.014003233730811 8.526105774612526 12.531769938266686 1.157151202988962 -0.806242929771605 -1.3893081916063235
Ni 9.129289170355747 5.038600310065966 10.336574740832756 0.5323875329741928 0.23774039624240995 -0.15949709905878984
Ni 8.616768309555527 2.3506139649432094 5.837743029409723 0.5939137745134481 0.05386898210431368 -0.28927121713185017
Ni 3.785677817112697 2.5017181898482086 11.558895453784256 -0.089868025906742 0.801804177273961 -0.4123908060028704
Ni 0.9591581027703153 3.631789138603506 12.536084480870967 0.4222530435089309 -0.3752571343753666 1.0446703247787106
Ni 3.1571350328440038 8.544263677269177 8.135458724790302 0.4362670983998358 -1.029419055046595 0.32931486331729737
Ni 5.370684949361983 7.630182885289848 3.690071289793004 0.6317871525204538 1.0469840605135516 0.3895550390552775
Ni 2.9968611577962103 8.463197076896975 3.5647717845925193 0.057917184031758315 -0.8520034238361713 -0.1832736326530973
Ni 3.457810672689479 4.426546570267698 9.270418339645468 1.0420362295899732 -0.94384811385331 0.7229618130537613
Ni 7.0309902373832545 5.84854979315368 11.504853472171176 1.4684215500997226 1.9970123350356446 -0.020153849240055616
Ni 0.6747211786673314 -0.2509209911923331 -0.07905127271470529 -0.5476763408124632 0.35128314005827244 0.5522778441402165
Ni 4.9109780082269365 0.393583877434722 1.579966999129255 -0.6505186674916862 -0.5511308750199669 -0.39944247337231853
Ni 5.991119259617166 5.493681611663104 0.26237262350716206 -0.6499532819065194 0.6341224855218498 0.3538033353769649
Ni 8.093399870544838 8.42689034146512 11.585842978551078 -0.9104764803713997 0.7513125962823126 -0.831124266394317
Ni 9.160308164904071 4.926006801784414 5.74983864541472 -0.07147898187659302 -0.7477097094224026 0.9831497396664101
Ni 7.6948602098875405 8.663287731496567 2.736815865868317 0.1818726385405126 -0.39122497055853267 0.7327016660493446
P 8.56508812507121 1.3930249516632045 3.399488614021615 -0.765243604541108 1.7440170695166932 1.2786476544342624
P 1.773760435040278 3.323984571940784 1.4515737573672405 -0.8649764390570717 -0.976635592696976 -0.18260488872084682
P 4.824805064600141 0.9400841420875294 8.14305202953763 0.25820123519992305 0.6775718149547363 1.242810333020679
P 8.566412327762455 1.4551627094557702 12.456900787887138 -0.822622399570893 1.0300255782823422 -0.4675916195447301
P 6.280774993504684 7.693209491464209 1.4870306449075232 -1.1042623254097306 -0.4845318469434946 -0.16713610366128634
P 1.8473897326260393 3.2224291093800836 6.120587282330636 -0.5843112184266775 -0.3074509733646705 0.12747966561192883
P 6.938196280300239 4.020868912911708 6.044350393828897 0.39019832906623125 0.006903669098368756 -0.36591348837693755
P 2.2913967089765386 8.795299855955886 10.20345609083692 1.01225437034185 -0.600277769058263 0.14569593150963941
