# total energy = -340896.3739204186 ev
CRYSTAL
PRIMVEC
9.03879706137402 0.00000000000000 0.00000000000000

0.00000000000000 9.03879706137402 0.00000000000000

0.00000000000000 0.00000000000000 13.22919315493629

PRIMCOORD
 96 1
Ni 6.504670869173109 2.0591916271942043 11.44849062822454 -0.21754438091050923 0.014880773766574375 0.5735182415762315
Ni 4.672714599777763 0.29572865019314554 5.939126896045114 -0.9683669249302805 0.5094939162054709 -0.37929145234574035
Ni 2.7760315047182296 1.6521926736951213 4.905662477311261 0.6985746424586485 -0.07246062906357198 -0.37250219733804885
Ni 3.4764388492081126 4.574779233757451 5.081267322489479 0.43376310103105936 -0.8302935429629056 0.0003239589983220227
Ni 5.1563625522479795 4.662401332345443 2.672270634000171 -0.7647504669547732 -0.5981728069001182 0.2949294438588921
Ni 7.216015158091657 6.140027718643217 2.7107017912909104 0.5172874441079608 -0.2823076413298235 -0.8630478545757911
Ni 4.834057127093179 4.304835559904513 11.736980105861555 1.1297111045001385 1.0217545965228017 -1.2289513156503995
Ni 5.824392925710197 7.701127395683728 12.319831567577985 -0.9920933220129432 0.10249934151750735 0.34256221524550684
Ni 1.9988666956926304 6.298351287744441 0.39584236630214087 0.08600031542121964 1.0478831752890534 0.38371914909979077
Ni 2.6790361735909607 1.502528272166343 0.42026519592714146 0.14273350644720578 -0.8761766786482653 0.6302010389802566
Ni 0.4758962801214385 -0.019296927818805914 4.802725944884024 0.9771855516631751 1.4555022709348933 0.11916780331212382
Ni 8.69095702166603 2.199672610921724 1.4788122764705343 0.30805749660041787 0.6839491792359897 -0.739062832380682
Ni 6.822863641670849 0.6854454237355296 4.7803558260687335 0.030955824951566045 -0.10470072004420032 -0.700751081284677
Ni 0.5129472131028743 7.333194123028187 2.246965404838796 1.1570159629626784 -0.3050760453745907 0.6588385002112911
Ni 7.5786697732708825 3.782664254413661 3.8460171829264773 0.7266253779482776 0.17960209733878102 -0.7644378208103608
Ni 7.729870770297903 3.914088363498601 12.737146500148503 0.30725814062757406 -0.39496489721693917 -0.45411852475895986
Ni 7.812693267653151 8.870386181875462 6.880397392643851 0.2316437964263688 0.257529148833563 0.5672311230159393
Ni 6.744551504042794 0.597545834078149 0.29679342048545676 0.5218100145686626 0.3837194062101069 0.45520198763112574
Ni 1.727223727994577 6.459901707391974 9.258900795410398 1.1469922601780893 0.0026186685697696835 -0.8454273132805503
Ni 0.2274721742815277 4.765118222004402 1.4158281308772962 -0.5812482632306376 -0.3918019261079252 -0.01113699045342598
Ni 6.414355209064669 2.0111142656933247 6.7757281228224215 -0.7295968018717758 -0.14851771722915066 1.7657212939630043
Ni 3.520141432937527 4.408176126559816 0.6236788041047224 0.08970938884169066 -0.06898012671413928 -0.6518055046239097
Ni 5.988537480110645 5.684924287252108 4.778146744070085 -0.11476736025158298 -0.037149612467103764 0.7744635804774792
Ni 5.200363416279994 2.7373906473359653 9.587977183434216 -0.648461013631709 -0.27370061638710286 -1.1719473874615298
P 0.29596456279611094 5.504555092149634 12.482431391562848 -0.00496351465286242 -0.43794859986731666 -0.9155878334560361
P 4.032306790095707 6.225959562183142 12.489310819996449 -0.3433906246840731 -0.6538631584838869 1.0653566494834683
P 2.4391555387212756 8.34268313259094 1.5233816808368978 0.009028428750855418 0.39042664302695335 -0.40709099105651186
P 6.254856596347142 7.713872099522089 5.765957102791756 0.434448042913226 -0.05287139407773475 -1.0721065666127925
P 4.758836258055706 1.1991952820163092 12.703306147878687 0.30957933256158293 -1.4828127858243882 0.10865661936815481
P 4.123481135923753 6.186342514719642 7.8945739223559475 -0.4149847919822917 -0.48309408605570353 0.8385879217612138
P 4.819613129409704 1.1622627572762085 3.837643641340763 -0.5015108979999944 -0.6052379412770157 0.027568396536571872
P 0.18157949002726598 5.571351802337921 3.4544727646208897 0.401143001003193 -0.12084287702170154 1.2970500682008501
Ni 1.4150236779399812 0.9293781513220493 2.782469839855864 0.6480956598724902 0.2136267910236579 -1.2286782644946712
Ni 1.7755180206246206 6.5368218702745615 4.6602871577158025 -0.003456848200348885 0.34716500412484086 -0.14187141555722663
Ni 5.751431755934844 5.693818463547815 9.28111273527734 1.1371112536189514 0.16584643831558535 0.044438689929349275
Ni 8.541672249613288 2.4615988717926585 9.987087978749088 0.4166141000555986 -0.7413266887141943 0.5343744814972345
Ni 2.2805698445056453 5.21694960886396 7.1290266791767625 0.0979052943889217 1.3421505600839143 -0.8512783727446888
Ni 0.5312905478330653 0.09040604807892491 8.802903426991195 0.028903313297911508 -0.025180098810053408 0.9616314059786599
Ni 1.1262612286321017 0.9702787079664339 11.311105432486126 0.8037990962168028 0.13155743522572824 -0.1542746743175859
Ni 4.212070385795934 6.791074192451335 1.5919481874872787 -0.4928915317620995 0.5386836503955498 -0.48373609051507654
Ni 5.492931199145284 8.005761972608743 7.741009279900749 0.47498456957469165 -0.42651670388129126 1.8573515539764915
Ni 5.3954477729773975 3.0929950008173757 4.753658835106335 -0.6348547357021841 -0.219507418174151 -0.046742398361861434
Ni 0.7685128724907913 7.555711228767737 6.87486745660959 0.006314372253802028 -0.1996361331715207 0.17296350897634083
Ni 5.300522326374232 4.284154792257584 7.317384363110686 0.03866450644973341 0.7103474667238605 -0.3245328685476217
Ni 8.426590285592006 7.201797130334392 9.268689812613905 -1.7440080706556285 -0.21540162353589354 -0.09823645247609533
Ni 4.765298997945371 0.34097506045844067 10.468220434000713 -0.4429594228183469 0.1393082828157407 0.2933782973216883
Ni 8.243482334983842 7.293649385941075 4.825480212573875 -1.5417180448010286 -1.6839219039970097 -0.3669750968722325
Ni 7.240636841251724 6.209536067946049 7.04331538228482 -0.07670140661779694 -0.44188727280009055 0.15978403417158932
Ni 2.467175809571572 4.981678760489 2.748946749362451 -0.9009328025470227 0.1839313208417542 -0.37940329533325623
Ni 2.2704735082024903 5.327385631202322 11.314346745107711 0.2802870113553689 -0.7285017690353841 0.6446290414801285
Ni 1.104929667597682 3.1667244683418496 3.806118124995064 -0.5387268449286592 0.6157365268154944 -0.2699403780137222
Ni 3.7643606903904834 2.5839751450320674 2.5351629293311455 -0.27176123327254487 0.2573309167798278 0.306624106588001
Ni 1.2694809678653114 3.4452007666085565 8.159157589559134 -1.142899578165954 -0.5967041927743917 0.8025976197095339
Ni 3.5184511778894607 2.8296315712157325 7.253156479043577 0.27602283676237627 -0.8099622876047212 -0.15321666536671674
Ni 3.9207228405321874 6.917020790524894 5.824390214071083 0.36835217972541723 0.5391289654630844 0.30273916971129794
Ni 0.5937142880092972 7.413919619468187 11.366628954995544 0.8230193778989955 -0.42193782626135723 0.4379462858744716
P 0.19721570504143637 5.755752300924018 7.849025616269232 -0.0388892208660298 -1.418219732434351 0.934258927502978
P 8.592172008723162 1.7815288206618616 7.861554292858135 -1.1456599145199107 -0.3251774441101561 1.140497910702997
P 1.8583224403857714 3.1736481868809876 10.367189279991296 -0.4689216512100634 0.36432814616768866 -0.6766487889198346
P 3.9370017140165046 6.212401366610418 3.709941708880388 0.14308780446283098 0.3636699437583995 0.4526038878866463
P 6.843345555782711 3.966956287435177 10.35492634403562 0.31031569650697527 0.9486753600386244 0.38420405915600925
P 6.354925118470895 7.760900960565344 10.182919843962402 -0.07260075418586207 -0.8202220176595165 -0.7134590157696487
P 2.345947463557321 8.551804741104638 5.819270639422822 0.7794250382478125 0.6238565848194675 -0.49225518372968124
P 6.896457527239596 4.05552745971326 1.6210522101036884 2.149294147292918 -0.7338771744146845 0.892699616003953
Ni 5.444799604862114 3.038915878076303 0.5161803908071165 -0.6389739000768802 -1.076081234989824 -0.8069073028284812
Ni 1.5039473633029552 1.2496408083438915 6.992924992619233 0.4133562552399333 0.11174708536802046 -0.7000396570399493
Ni 6.879256696456333 0.6057503501590568 9.205414617755707 0.020700208661828867 0.5875865467438397 -1.0967696165771113
Ni 2.63626458595754 1.4037342204264263 9.252391957655785 0.5218971749658302 0.12672581816503983 0.26369259733179745
Ni 6.373978902649097 1.894558977753139 2.4726813408538035 0.5485073213541909 0.66845776846861 0.6682153134405008
Ni 4.0628760017136765 6.923673345152578 10.499653754616517 -0.17421177956114514 0.6078589238396305 -1.1360416747038564
Ni 8.25242170526479 7.132062811105349 0.2022466994786219 -1.3986099286232236 -0.040198169485440444 0.3233506753140625
Ni 7.713890177116185 3.955947032630125 8.23723652622334 -0.11208749942657469 0.05498895464136982 -0.656372812279618
Ni 2.9811489261394497 8.35352065025207 12.340799768971056 0.45607076338932423 0.18004689818568348 0.1909756292830453
Ni 0.22491329083710218 4.777429063584435 10.095925037889575 -0.5894621664999978 0.10196840871470181 0.4054747956093275
Ni 8.543498086617083 2.2868698860484376 5.783326959079825 1.044359478406511 1.038411488353192 -0.9573811153427381
Ni 3.487755423112813 2.481339604546545 11.610852731847025 -0.44344099044045565 -0.039189525715267993 -0.9485262360552698
Ni 1.241316076262239 3.2347233385375858 12.541142897791268 -0.8670919427381776 0.46783613145536845 0.19478754682996774
Ni 3.0736610139306713 8.309763833740366 8.009707407520406 -0.10956164768092745 -0.32827330942666044 -0.08146257545186615
Ni 5.544687351044897 7.826739558266493 3.540621539289979 0.2696164190154002 0.3693461682075703 0.4881774141158818
Ni 3.1564473560977246 8.453923607866617 3.670770274111378 0.1732635567152629 -0.07399892008496933 0.13623889986179763
Ni 3.5214610973066054 4.430664653616441 9.231780788746132 -0.35844186259024075 0.1843486108848309 0.381954086779568
Ni 7.386405521252606 6.039579567043427 11.281220457804727 -0.25794386777347833 -0.7368532263238728 0.11282489181323149
Ni 0.6311050797597559 -0.060436108705270504 0.4336968483411869 -0.06166430977901639 0.6768246523760666 -0.6382771311201718
Ni 4.690041973719703 0.27528560290859194 1.6783084700073025 -0.9757848146609066 -0.0673824432097162 -0.49985639311570695
Ni 6.00923632535167 5.540954327863873 0.40061846666255924 -0.11355585644198507 1.3646762519902562 -0.6480740626059355
Ni 7.85690202401728 8.926110365679358 11.347234408168616 0.09934639771082246 -0.4097978484647136 0.0997732008355959
Ni 0.025889826385969268 5.032883545768656 5.683685068176761 0.07389376196567274 -0.9345152664881583 0.10865636225783869
Ni 7.8154320231588414 8.817003046507123 2.582431318496186 -0.1445402206386414 -0.13483970552142585 -0.26640973915264443
P 8.517764631420052 1.575462325550551 3.597268584272526 -0.6524469948626506 0.41222265585612233 0.28194434445313377
P 1.8800517084903239 3.2151181877394266 1.513486005828219 -0.3560023999108127 -0.6551494813954781 0.5591835701211143
P 4.646004954499495 1.0257046114677304 8.16484660842145 0.3387518403604811 0.6176080328065944 0.0472123960197445
P 8.451754296574983 1.6654345113711486 12.448379531442098 0.13343408342315083 0.410042617485668 0.7026236157170416
P 6.28512752766251 7.680066998560763 1.3530419349394203 0.5543010452178324 -0.03505159228749447 -0.012518701292301022
P 1.7946712315703557 3.3866293617343874 5.922153842947472 -0.20172566871069772 -0.5285154516132963 -0.11005581370852657
P 7.010536184788497 4.051080371565406 6.011530372042575 -0.3103470639655429 0.23128435620442103 -0.26321462925411443
P 2.222983668509761 8.319742665681892 10.16244154536936 0.47533629648715553 1.3416152564057346 0.5895159025560686
