# total energy = -340865.11449027143 ev
CRYSTAL
PRIMVEC
9.27316756994317 0.00000000000000 0.00000000000000
0.00000000000000 9.27316756994317 0.00000000000000
0.00000000000000 0.00000000000000 13.57221808475658
PRIMCOORD
 96 1
Ni 9.213902703750337 3.367773339947429 12.771294700409367 -1.4626314257805069 1.471279331263492 2.6475708546263306
Ni 8.957119422027295 7.441707659508863 12.221076869667693 -1.8225125919204352 1.006643709023292 -1.1430425315017216
Ni 8.820831679024746 6.445426360946928 9.362305840114308 -1.8567715131033056 -0.9384202579695193 1.269535664830665
Ni 7.489074999187506 6.067563330949798 2.946379279673585 -0.09514367248338453 -0.29692024903667574 0.450659619676082
Ni 0.992238197524368 1.712577850272407 4.845553661363687 -2.0406364994834982 -0.5923767690436315 -0.9987082562262993
Ni 1.3742834260718249 7.521252890472724 0.03767595230625653 0.6649029612378161 0.8353622157350645 2.7930654687584413
Ni 6.01534612465958 4.034643908790406 3.03757068172249 0.046109392763552845 -0.7293337780183762 0.4398859260993456
Ni 2.2210163520813953 2.469444509871302 0.8581444859564259 0.4197842702534641 0.8273763693161105 -0.2596179130417916
Ni 6.270404597224394 5.563093744838238 5.253656490634908 -0.09761578817296092 -0.46930937356678526 -0.5190090547847578
Ni 3.337032789627401 7.245543073846761 4.700127211772787 2.6227329696470445 -1.8776018195850954 0.0920452360637189
Ni 5.632512676873147 8.741555369918888 9.286179626014095 -0.7670724302197306 -0.2573309167798278 2.0354300155818947
Ni 2.5480716972509447 7.558020999679031 2.457888288511176 0.449562015736529 0.011527798133941438 -1.0146704359825105
Ni 1.3102243848619453 4.909474532377558 1.2429299355052608 0.5266804552870865 0.765843700018952 -0.07545005070919909
Ni 5.155834773811096 1.9082416848885708 6.853752673555317 -0.5015988297281103 0.8583967289570248 0.8685510437822074
Ni 6.63384785173204 6.944879163431601 7.619063479495515 0.5822810753705263 0.35521024302682047 -2.979793892729359
Ni 4.915965749639707 9.27539307755791 2.1705369373839285 -0.6835807401529775 0.23969931974099368 0.5531674458340216
Ni 3.8975586733813654 4.4937677057421075 1.3434009962887816 -0.8381256374128147 -1.5517970263035856 -1.6964609170042848
Ni 7.405301203835732 0.09679981376340054 10.822730501205086 -0.03728973758939384 -1.6801698931537452 0.6315315848662221
Ni 3.9125719315919616 4.780086026007922 4.854809209862759 0.19508193814193497 -0.9300939974920112 0.7850277291465706
Ni 3.4142782750469576 0.533558585296748 8.897769295282727 0.4299501550428724 -1.831117302870311 0.10797681969231082
Ni 1.9650676554349145 2.1098959857209456 8.974086536633797 -1.3599683049916256 0.8656127870894899 -0.06589274603806716
Ni 7.449404388548266 2.3808115747404353 4.453913486386024 -0.31558311555350166 -1.321235664308118 -2.5367750774279862
Ni 6.381144763716632 7.656928604419126 1.2760045420894064 0.5612288826859173 -0.8257743149363134 -1.3986004155415268
Ni 0.1034783490093987 6.851934205405164 7.1330827347800545 -0.37385665448341415 -0.3293719418074779 0.06680883009443334
P 8.845238655930421 6.7327461833046165 1.3071197283771352 0.620318489759222 -0.506672644706592 0.18298361221650422
P 3.1173885438113604 7.650122099461388 9.362536741985489 2.1072332135671252 2.2615857923104987 0.8908419939699237
P 4.675410511072033 6.429986537030535 6.36106742872481 0.8011989395897943 -0.23126995802671782 0.9070204035019992
P 4.067721297324807 2.7874956093815006 8.719702223347493 -0.2844707104194133 -0.008272524421437366 -0.11206178839496185
P 4.732227208450859 0.17173998973814308 11.556540357088835 -0.25301352035139646 -0.3368757063836908 0.2498538916764923
P 6.101410392388139 7.784202828594806 3.3629781850242053 0.02006720306352028 -1.0417919747896511 1.4664016914562166
P 2.4708633045014574 5.481156036654899 3.368352912917264 -0.6893243275049741 0.4403412684692094 -0.9983022790371323
P 8.356922927634091 5.535552437311696 5.6779372879569046 1.2008064777850673 0.00939095429659673 -0.36340203480899347
Ni 9.326580962253702 3.4087329208715804 8.324329598444097 0.9324462997742716 1.5217814537781016 -0.11264208637846407
Ni 0.7859983153546621 0.9546818690790854 13.241693741745419 -0.3689692444841258 -0.8389067385532133 -1.1315414728406576
Ni 4.154583057459859 8.035700404832957 0.1741760508449519 -1.3602984346375346 0.9544402875468595 -0.747042508152049
Ni 6.986608417259693 6.181651110915801 10.8699485428867 -0.4363203202352744 -1.0624780423840927 0.07259406931764271
Ni 3.6993354445304116 1.8452676042782217 10.777575739296084 0.4266604285480071 0.72691411283329 0.7490194293727617
Ni 2.847047891177947 7.074759147679658 7.061475335211048 -2.102981380269307 -0.4194531121662905 1.320565377713971
Ni 6.829993891059106 0.6587630384825548 7.764502911520939 1.9813658867476394 -0.6529347331323465 -0.25195216896641764
Ni 2.262819791249626 3.2808095749696853 3.296257744736845 -0.009239002099764733 0.4052086864321344 -0.19476929199752263
Ni 4.225949354673414 6.231559298494199 11.517953779732371 0.6314950752013317 -0.7637994158954136 0.18004047042778026
Ni 8.078125146224851 3.7072083637526454 10.416894034075106 -1.9233977948732872 0.46063498572123895 1.2349049621306731
Ni 8.37833467143166 7.914082812842862 5.031425031081525 -0.6454494804988948 0.37364839512735004 0.11124340625872454
Ni 1.4962812179301308 5.664940943681333 5.558529491786195 0.267804562617642 -0.15194911150820284 -0.029385138030336492
Ni 0.4930960461515267 8.808442727221562 2.8911130559036597 -2.9502573167228223 1.0414937268229418 -1.0605296604084704
Ni 2.284815744600789 0.7205158429308687 2.894954001889348 2.1598528966453707 1.3037986997785935 0.30604997925208577
Ni 7.3220281595298955 0.21614918897875016 3.221813683224281 0.41465569077764713 0.7264957943489488 -0.7179571607503183
Ni 4.450805120634207 8.750958361781485 7.229689666659094 1.369892763194189 -0.4261297528555178 -1.6967488805583486
Ni 3.793940299542455 1.9853851654654369 5.009248250963774 0.7037970671998525 1.3548176140286217 -2.758130090333837
Ni 8.594807493956766 3.9053388609284254 1.9410983720360586 -0.8227409274266282 1.619901178170675 0.8675161747597898
Ni 8.589725798157255 1.6249371440658966 9.695761525504334 0.17164401883396893 -0.4200434374521217 -0.7246973076876293
Ni 0.4735176075721378 6.734248436442428 3.54700419440609 0.6701657522986523 -1.9350595474819317 -0.7763296871519404
Ni 2.48129561795848 7.660424588573168 11.652617791102632 -0.17388833478345536 0.7870167345521414 -1.5814009652129475
Ni 6.135071990476133 9.356255098309235 5.445608276293875 0.8235210001257623 -0.3010437842867461 -0.026271274991703144
Ni 6.063473864074646 2.0551379315309717 9.58244712770928 -0.8158999932453948 -0.6624938375756914 0.8035538129752161
Ni 5.273316533088449 4.233766634890543 10.280533960365924 0.3646690744468752 0.7591122948323894 -0.7395174034195974
P 8.190451024362556 0.7631232657228538 5.981317309137897 -0.37971645569830087 0.06520317617021029 -1.815137382502287
P 1.9857653653336482 3.376165556550634 5.579714970296341 0.6842140028616023 1.2468395087847302 0.8953967032201418
P 5.6852955463819255 3.2832205985241973 5.12055315335782 -1.0198352680129015 0.641750948601385 0.426406146445356
P 5.073693055942376 6.16157470324073 0.3911227322301945 -0.049902284147081796 -1.46718047860377 -0.27357617499409653
P 7.247954097401274 2.9316469984387648 8.051514864717053 0.023761621195971982 0.12299669013991077 -0.7163476501713534
P 1.2334332846507388 8.619010461177059 6.794700215488057 0.3834221866846622 -0.1056186038727794 -0.3128577462025386
P 0.5751635786801074 4.648954164145022 10.080466298495768 2.106068503835063 -0.016569988543539204 0.31795701510231694
P 6.576029652261339 4.276627215155752 12.076206810127834 -0.03509530104123633 0.16864456988601279 -0.9880582327116209
Ni 0.609822042276217 8.548265466187168 8.980179935009449 0.6790172891520112 0.4752740757906524 1.0841138754863135
Ni 7.269282382691187 2.0988980090453637 12.0461580381046 -0.9960911303184266 0.22154964541516037 -0.14733295289243015
Ni 6.037555360863641 7.814600271716691 12.172854543943949 0.017047185290273867 0.43014787287597533 0.760438984063613
Ni 2.5508258280035987 1.0668871960390658 6.5026260401442215 -0.24296127832171704 -0.9269978750651906 2.1746979320780033
Ni 6.3169744444965445 3.7676137769606877 0.638430691384005 -0.9014490800618088 1.1584146430824176 -0.5029388886957725
Ni 1.1500489623346941 2.7587487900777043 11.278241472092027 2.583008911584545 -1.4394094791380887 -2.6462037990754745
Ni 0.33951477304586575 1.1080878793186684 7.524573611760688 -0.6364596182954587 1.2535480311531573 -0.3327115477036722
Ni 8.475693657196357 3.131520851107808 6.153941959057196 1.1084018014994008 1.326448061746993 1.515473766392519
Ni 7.034828888349932 5.001093427449013 8.701067793221371 0.38326457806087544 -0.6009850795379327 0.01798178128940129
Ni 4.885707404030581 6.496224772606992 8.927560273248977 -1.408704336744748 -1.236872113159373 0.7403877218396926
Ni 8.085061475527832 2.219532645278619 0.708473707592833 0.0005365892297603662 -3.655557193720446 0.3044453537691273
Ni 2.7730201948869118 4.573822960919422 7.380083752089041 -0.7205146370648494 -0.5316036036203167 -0.16620150766215894
Ni 2.85505990791294 4.080416263656065 9.978498548474947 -0.3298681647176061 1.2164619249341373 0.6530679162761011
Ni 1.6996232352506637 6.287559957131498 9.209604590606043 0.9004964863405522 -1.617848152296388 -0.6542269695812087
Ni 4.59615274830121 5.970157979347515 2.7702391719484574 1.4107627619356737 2.61047215000182 0.7896595714916271
Ni 8.403798789434314 8.86938598414561 1.0229027078707533 1.958633992367762 -0.26261864754132835 0.8807226461477348
Ni 0.9695189371068514 5.477048023444712 12.239562001796786 -0.6929377558878453 1.9723305160182485 -1.6028835605667557
Ni 4.169818871690872 2.164069830357326 2.5192748028425545 0.8145103119867197 1.0260267415355941 -0.2254554082274698
Ni 5.1183804502085035 4.311373773843276 7.550984520166862 0.4755263010107746 0.18245422207559542 -0.9130139020812728
Ni 8.014047558679936 5.334315429017603 13.281148287581503 0.0025343363860795064 1.4498625561506127 0.4784085076545761
Ni 1.695125749004747 8.517858749897764 4.718693947776033 -1.2775526215978708 1.3706077869833428 1.448819459598079
Ni 4.570614444958418 3.4055151317430585 12.397433969512726 -1.287102470069835 1.7016092939744434 0.21719573932183883
Ni 0.23929779705232032 4.359714796111241 4.059097251533668 -1.0131609413165197 -0.5790345434087705 0.5826855098977965
Ni 4.668520547606638 1.5998254064289028 13.645236954548357 0.2668645673018759 -1.9451184743798307 0.6859081027345736
P 2.2981134668206744 4.143065783403306 12.777320404662143 2.734150439589788 -2.6213620574414467 1.4886725870392747
P 0.5347529692729832 2.100483720690831 2.2983870252624365 -0.10685761848620307 -0.02125762382719565 0.5235707060135112
P 0.6330986200615266 0.5507603110414392 10.949264726612881 0.4081677690604583 -0.4833452828345611 0.8961322958345859
P 2.582336051227567 9.522801186920908 0.8230168000839382 0.6647558941369907 -1.019787702604418 -0.6803578623403056
P 6.293624608687847 2.0771338848821346 1.9168314199598957 -0.7078229005297939 -1.0190171429869808 1.7632180679251763
P 4.299337202405751 -0.08624323986164502 4.412327966654451 -1.4123712440733742 0.40136720119885716 -0.5639169710410417
P 7.150131453260709 0.24332977028886574 13.213015543881252 -1.2939716863858426 0.18940494236181574 -2.2978856551827977
P 7.723343030178413 8.144354108633792 8.889599634699938 -0.17004170734385554 1.7252637001685898 0.8206025409273867
