# total energy = -340864.55524082173 ev
CRYSTAL
PRIMVEC
9.33478596346363 0.00000000000000 0.00000000000000
0.00000000000000 9.33478596346363 0.00000000000000
0.00000000000000 0.00000000000000 13.66240283214951
PRIMCOORD
 96 1
Ni 9.187520386388512 4.735854305227294 1.9423150541471652 -0.5880439459962324 0.09680049136051716 -0.8269549655079759
Ni 1.6578299838872457 3.304280863677245 1.1168642012769532 1.988587344196743 2.4926019824551973 -0.5312737310847238
Ni 7.546334325885506 4.022284596120109 10.58698216420228 0.18961731548293795 0.29746532290686833 -0.2046945215310346
Ni 8.463337025633608 4.8669800437457615 7.7027125274096075 0.5162245500610851 -0.467781109847717 0.05446702069962878
Ni 0.3931559811279149 4.621213798731581 12.90047817982574 0.7654804031422623 0.2654669156234009 0.7642030790917355
Ni 4.443264773788353 8.87944444502559 6.494668937214962 -1.1269158011431883 -0.482273389926621 1.1719502156750075
Ni 5.742498954643855 0.1892422490095517 4.814794856259918 -0.2705343028439792 1.909978436143588 -1.857118612030079
Ni 8.671829470270183 7.774803212497557 6.821213752619229 -0.814506455331978 1.6975816608722893 0.8807871808370832
Ni 1.314505890702175 6.605145195689526 3.5377289251256134 -0.3542908165363447 0.1961602588077783 -0.31465211909880003
Ni 0.6473935444097332 6.657672036341866 8.351881548110805 0.5370741398165847 0.3045302001734497 0.912712311680454
Ni 5.608040697534151 5.15859875744384 4.311253164081347 1.1367890943928423 -0.10447446296600717 -0.45821634897741725
Ni 2.9908000812377815 8.15691334138735 8.407214425425682 -1.5518265939899405 -0.46094300387996096 -0.40874652438206377
Ni 2.946861243677703 4.949704917010562 4.121645924940374 -0.12794580661506996 0.46520255048726333 -0.37980541586768135
Ni 1.7312760798980162 8.647661709394242 12.824515425517498 -1.0332250590562464 -0.577274109074238 0.6828271498164047
Ni 8.899971639373288 1.9980735977022661 9.957760647640052 -2.045636266690935 -1.1089805568210063 1.9379795493422045
Ni 5.5784120868658515 6.040119935720546 0.3793806374722089 -0.8016846209769614 -1.1573481494911164 0.44831245960014404
Ni 6.185117166190207 2.5244528437560727 12.282459339905927 0.7041742480336131 0.5206854140459162 -0.07520116792318662
Ni 4.08213924375878 8.274531644607444 12.309825198455135 0.5671966702335781 -0.9021946999785818 1.551956434699585
Ni 1.7019275128088116 8.319198595473171 6.250481204508284 -0.7944690770651285 0.7988232402687662 -0.08161812719312396
Ni 5.171200718503135 0.5924900672494702 11.00089870932714 0.5573614293107111 -0.7556503044257179 -0.7605546837058708
Ni 1.4288383492608836 2.8990298003681976 9.292893317373359 -0.047519128626885905 0.3671316770547548 -0.21280506645331093
Ni -0.04386135883652878 2.149530500063064 1.8231107707907923 0.9944080861890487 0.950562292648692 2.3277055667577073
Ni 6.370562024267225 2.679503638715262 5.445806784771164 -4.984008659050713 1.0646112866770117 -0.4403852343332674
Ni 1.5537284507514915 8.203055188436313 10.558551206573911 0.1361147155791075 0.30240621185191147 -0.4532808593490129
P 3.768854491824683 9.28266052499321 0.8437750377290252 -3.1616122809931677 2.990477854805766 -2.300130742463232
P 7.740301843552995 6.622610580239113 9.009862606767541 -0.1700154820916104 -1.1833839114332458 -0.19293403856099675
P 6.736719003934545 8.370661270524948 6.393294095061001 -1.8142876329074817 -0.0670685115137232 -0.1308794353220972
P 6.0056559059198635 6.799243400360594 12.080651535502362 -0.7832706372461478 0.9484794419777343 0.4177250737315903
P 2.8806309372216257 7.247714522710042 4.969452656729777 1.727429340361341 -0.8928073452264107 -1.6545473074896342
P 4.500795059720531 6.0019406611038635 8.39163933503499 -1.260781572787119 -0.9328093395406452 -0.5339067978321965
P 0.6587735819855759 0.8119191471283189 5.285737608874585 -0.283902239510453 0.40687733238380897 0.15453872661224996
P 6.727608252827973 1.9060046036816471 3.349201720721352 -0.8431336321503672 -0.8472785075566762 1.0519239210173303
Ni 0.6213364228534971 9.267575510865935 3.076294585499836 0.3129716460725836 0.5185616828346941 -0.007167978503348945
Ni 2.822241850980221 6.089519623072985 6.88483965378972 -1.185733385502029 -0.752153347016053 0.6668739689212578
Ni 4.545023275645675 1.0682355672456225 2.6557522092935786 0.5264724530413385 -1.3247691313826733 -0.4088141443952056
Ni 3.457240666579189 6.855354798825355 0.6294567531686686 0.3768445334671445 0.33452700364585614 -0.30915664320186753
Ni 8.002329285726653 9.37044485225367 4.745171355103801 1.5095162632575034 -0.18123860450093948 0.1078806604340787
Ni 8.55830913809085 8.40820577969568 9.858298503131312 0.42019204721484404 1.086094139141136 -1.1983868125999813
Ni 7.0979472166097874 7.858769612296347 0.2800323773523016 2.0706641561938404 -1.2846262406152005 -0.5416910697633057
Ni 4.977233200835646 6.315608139262725 6.140006812990913 1.3891019891327883 2.1748326578836545 1.2808516040641167
Ni 2.308343213768102 6.10591150723604 12.039582211149414 -0.02108587413602175 0.08128079845836324 1.4149572596329953
Ni 5.025624731303342 7.413771030327683 4.036311045518405 -1.3986600651348686 0.5684138304701307 -1.2789338182161136
Ni 5.2023508992845215 8.195297981295369 1.4140856535141344 2.3175787627363507 -2.0714858807641874 2.690335499287367
Ni 3.175871547876005 3.7138632676763033 10.839559069060062 -0.8661514332017792 2.0919163807043972 1.3899355407776772
Ni 3.256384076865951 1.148440048298564 12.377781506837037 -0.5814094713988504 0.6088811944565579 -0.8849670232463855
Ni 3.2556746331322426 3.654550037623884 8.254468389122449 0.360761768972669 2.107237841552816 -0.7227180724740715
Ni 6.818762437823548 0.3358161248295213 8.79910647653328 0.4581273888080368 2.523557036075815 0.26738830101582983
Ni 0.38492830077409007 4.165825599978475 4.1662951397127586 -1.108134663880943 1.0519917981407885 1.3724744078784363
Ni 7.334658719233214 6.964758490391983 4.743927961612617 0.04591167493044997 0.12224464246523462 -0.3571383132874688
Ni -0.3569734172301837 1.296163036271422 7.778360699430666 0.7067183546117055 0.3650056318506875 -0.9488735920923593
Ni 2.6673030734526697 0.8556778233191794 4.548268980727391 -0.42429424230867574 -0.36483079683572006 -1.4491858417985621
Ni 8.377793047005913 2.3614114720066928 5.5102112070915386 4.868978017835415 0.08656981477144446 -0.04777958137712416
Ni 5.973264198604489 0.3606755933458258 13.305828191866068 -0.5278274244073361 0.7962652497336029 0.09499531983097834
Ni 6.091330571551136 3.7722896930615875 1.2482746507675004 -1.1206294539138442 1.9207909533780596 0.21045096439883754
Ni 1.7733199559062156 2.897573573756901 6.071202906042948 -0.39120465884355854 1.0077282003367225 -0.818273378573578
Ni 7.130600297932318 8.983919369600137 2.480982612451681 0.5330544771342304 0.06689650471223317 0.5101428626433795
P 5.416808272155828 3.3400050895838573 10.29615037296146 -0.7452571341168519 0.21552657914953205 0.26615082906430293
P 4.550857516876831 9.498518115759994 8.732666137392881 0.31164958482705035 1.6316688602295641 1.0253749668842083
P 7.689137881652254 4.869089705374948 5.242619299001254 0.6435810598315883 -0.26356069973962354 1.4725882798829024
P 1.315234004007823 4.619094802316425 7.778975861826079 0.29366574665512 -0.3072943931821482 -0.6275474034074934
P 1.893850712348904 3.1495194470831214 3.349488298650627 1.896384499509237 -1.6348511146122877 -0.8133926534425089
P 4.505378439631727 5.44326305559438 2.5092502113255772 0.4015410077725601 0.35291219102126314 -0.9313183568174155
P 1.0554469104669297 1.0785691753142455 11.329082713147711 1.1528906279403952 -1.074331085067937 0.42291638812454263
P -0.08320934865663564 6.821002786456312 13.436522663272727 0.4143602710244154 0.10114565570309034 -0.21601611719144087
Ni 8.895658968255217 6.323813416130221 11.036420370378206 0.8135116955188764 -0.8941471470837569 -0.0777244485656726
Ni 4.939782039524612 4.616658423178294 12.171383788172097 -0.5309813966552855 -0.22883897998772199 0.9230486606094556
Ni 4.931828801878302 2.2700985956496313 7.757376100570446 1.3792726617471922 -1.1975897706199825 -0.09249980710263424
Ni 9.205620536384048 9.640780253940493 0.7067627831779717 -1.2121519847048736 -2.493108232667655 -0.8745471134646422
Ni 4.353734841551533 2.3533368821427736 0.47241484836211045 -0.48364533057348325 0.06319797281472342 -0.20548307887060097
Ni 1.9945450486056633 1.1649066107493773 0.733916742085665 0.25344546568249254 -0.9366148293296643 0.7877201883770691
Ni 6.22016928750699 4.607753037363059 7.498869739664616 -1.1738474326977202 -0.4548448614020231 0.05977274918325835
Ni 7.207920330120576 1.8033219580133097 1.312511980419015 -1.7167654328895916 -1.9807331382596467 -1.131968018855115
Ni 5.69336064129857 5.7679642507696025 10.20783676333651 1.8513850519804116 -1.4857024486673573 -0.8156945621028081
Ni 7.450690108838435 4.119095661413412 3.2323880760518575 -0.5935785026612165 -1.6670963477992387 0.34985257825933297
Ni 4.214123782586473 7.486470343460865 10.242198110491525 -0.5266321185476543 0.7449216051543042 0.5247492997026447
Ni 5.7722675871017035 7.750122038393276 8.429005549793697 0.9140590555163355 -1.853977752408252 -1.0833497436267794
Ni 2.8485659474151945 8.305961868967925 2.583301201467194 0.24582291614022825 0.09485493759837213 0.6378284736185272
Ni 7.4299575491994005 5.133805565907921 12.800155368050579 -0.5257785122981073 0.7780456414017826 -0.22195048039800483
Ni 8.417428548233891 8.517096058033967 12.182108523772857 1.230889413213377 0.44391535897371287 -0.08389946702813292
Ni 1.62358998894984 5.890595334055506 1.1882193052304777 -1.1332908514315965 -0.08002995677039765 -0.5834573550668144
Ni 0.4381244455804677 6.140776932833426 5.824405167179099 0.4704388591855382 -1.785867429893576 -0.707001433069763
Ni 3.628982058852468 1.837524613806836 9.941953121078711 -0.11574257968065872 -1.4526809994360144 -1.6043861132542112
Ni 2.3272274857851065 1.1235721784748867 7.378366987579836 0.616151502865726 -0.5360526405306059 0.8002237201607186
Ni 4.305819385168298 4.218156410125448 5.942052408235702 -0.9209871500947363 -2.720046138977922 1.0163550227737852
Ni 2.4588946418898243 5.906063074407546 9.8085804995773 0.047447651959002156 -0.9657791095984464 -1.8066964508237853
Ni 7.0949320807415255 6.325885738615528 2.1038600597055783 0.14080697884845428 0.013982687432337208 1.6336887188730702
Ni 8.811627224954638 2.248217857336306 12.675034697346518 0.7933606744922982 -1.8945477034108147 -1.7333500767211503
Ni 4.609610659771059 3.1408100917732527 3.583511382914737 -0.5044792365996988 0.14530280983627877 0.0625780798425374
P 3.06315400729008 4.5358471810373135 13.5278010009217 0.2539653427417045 0.2589152305478121 -0.5357302241941806
P 7.268120364840131 0.7986012079851357 11.297905461487014 0.6165366541192866 0.24188218632492536 -0.47375969602865503
P 7.328992504149515 2.61233051887623 7.488062857947321 -1.0202525580559785 0.48148663235926753 0.6368411700045935
P 4.1027037772503565 1.6457974447721104 5.775343399078769 1.4227728990226722 1.533203065351482 0.5991238579594779
P 8.041077982287495 3.521930733350241 0.3826198082037464 0.15093969640708196 1.5747248387443524 1.4045664033169745
P 8.760565945699565 7.494040854882413 3.068275070873139 -1.2087650705105117 0.02002529408199132 -0.11189749490295568
P 0.8038716281437124 8.923336608655818 8.166537505722264 0.894303470155963 -0.8791871833398148 1.4807258213883725
P 0.7338588664126521 4.272064799101325 10.865121446959897 -0.03163768150993906 0.4219038876996282 -0.9450177086813789
