# total energy = -381176.2015611401 ev
CRYSTAL
PRIMVEC
9.14561587252116 0.00000000000000 0.00000000000000

0.00000000000000 9.14561587252116 0.00000000000000

0.00000000000000 0.00000000000000 13.38553328246137

PRIMCOORD
 96 1
Ni 0.40181262584130006 5.754329943168035 9.451792623858315 -0.5991372276959166 0.050722723165848124 -0.45515905020833225
Ni 2.282809698381003 2.0784966436115795 11.52941494660884 -0.9900549514266757 1.2600089562871526 -0.12502657608574597
Ni 6.090065495566672 6.159599611744466 6.0603532192759415 1.2824968529770235 -0.11519493470730484 0.7523050421025689
Ni 0.12036819193092302 7.460627464579469 11.416414462686971 -0.4470112242902173 0.6990852635464798 0.4210091437995007
Ni 6.872390608280695 1.312359270689045 3.05273152708078 -0.8305699365527437 0.3732413894969185 -1.3892040619282915
Ni 4.722567307813846 6.887361981183898 2.393788086671292 -1.3005449687279862 0.22342449384037008 -1.6388298967543777
Ni 4.277331298622267 8.28182144402447 11.121584505636015 -0.3341472517089342 -0.7263574689988718 -0.206280892181548
Ni 6.820324618092587 5.967011236304246 1.881229371178519 1.3795526548814563 -1.2233640513706092 -0.7876633669972047
Ni 0.8386209501640326 6.764673546549528 0.39386142755049713 1.7136816517579454 -1.498674178336677 0.5415162347483384
Ni 5.6265199637408765 3.1978925686166457 9.012091541289228 0.6383918023211651 0.1543500076402116 -0.18265476812217576
Ni 8.176939523160739 7.946204784629952 0.36307819966113253 -1.842140393453692 1.0135016124853902 -0.4340024707353751
Ni 8.096787347153612 4.292147196058546 6.286314860972165 -1.3902325031928056 1.4155576122211557 -0.2980299371610867
Ni 9.128449380735084 6.384124477213999 5.940325244249111 0.2515791018977151 0.3360930625813954 0.31865918337566407
Ni 6.682390442083973 2.2177203514340924 6.456524829352614 1.746095549312277 0.8358085592438638 1.0658778120942611
Ni 4.819748620256993 1.7423038104278719 1.6087403241629594 -0.31836530628432913 0.46530050951770824 0.351460289066085
Ni 7.671388178418384 7.344496436403007 8.044558565006017 -0.8283315341405282 0.8817621431558427 -0.6212186329759882
Ni 2.784318680983337 0.25853741026306387 8.47361780914495 0.8906710156096984 0.6603490233185466 -0.7964912497014799
Ni 2.262579596449492 6.852242816890496 11.380768510929167 0.5144301771648238 -0.4852910937070223 0.057626392264216876
Ni 9.116047925843977 2.890673045974995 3.987710684274832 -1.3929696996183107 -0.5508825064545868 -0.10599527048590777
Ni 3.0997326752934486 2.936172484089493 0.1357657505258112 -0.347159347697886 0.7386717675898504 0.016551219490461816
Ni 7.128376391763067 6.831637744715228 10.49496715848472 -0.28166357998792135 -0.2602871711946743 -0.3803759436591707
Ni 5.971163345832684 0.31709221479131977 5.613196630787067 -0.49104367992008335 -1.6268691248480756 -0.7342096180534387
Ni 0.15959007942797546 2.363977037730987 12.696472333280218 0.8231821287291049 -0.0566084925226638 0.5297338974014296
Ni 4.899077690850993 4.1780922226463035 0.8157038663394478 1.895256042331749 0.4652755698170438 0.21940688804054473
P 8.529905415540826 0.42965645284423254 12.137225249631765 -0.14843904147241532 0.016165039795636677 0.5769907735058644
Ni 7.3760030824943525 3.3903894878998524 0.5892511050800586 0.055221125256833925 0.28825614560377455 0.5606892081323634
P 3.2700331852693414 0.2572039794937988 6.026889411424495 0.6263433557970632 -0.6547522459570595 -0.4404114595855125
Ni 6.0840476804351455 4.397852222335404 12.205853035293549 -0.32564487066487785 -0.7969890152735049 -1.8219736886978297
P 0.6201925521210576 0.37529582767664166 3.09207139302038 1.4513553386460551 -0.5447421978848038 1.256734913521571
P 9.001974661200332 2.5210164049398402 6.470793818969948 1.819932232787769 -2.3548245344616863 -0.3006766307553144
P 5.961496430036298 8.455761909049523 9.525734012242618 0.3158564238195463 -0.6147255690524768 0.30850435432984935
Ni 6.529045903618488 7.342200886861955 4.065855397635501 1.2032685661723148 0.9320110120090658 -0.10582326368441775
Ni 2.1737756679888336 2.3235899987935755 3.733934481545921 -0.5649518400634593 -0.41709489634675906 0.8467205781706773
Ni 6.974172165421649 5.097775337579754 8.31751586754549 -0.024638110263654343 0.19469473000584533 0.4701460105354677
Ni 5.130955631344457 8.677881477589585 0.5692359251175303 -0.4355106798497854 -1.3013314691850233 -0.23497980277813724
Ni 2.3711837829036955 1.2984670804386083 1.5722511466374873 -0.6603027434616434 -0.02270284091415445 0.5223064945891069
Ni 5.373936349299429 5.26010087066402 3.8767176629994213 -0.38978463856758033 -1.5072508642620945 0.6242018839740282
Ni 4.340664687354508 1.5897183580656038 4.486415621103115 -0.014859433610335697 0.8456795385006727 0.23506387785151128
Ni 1.9315174536742734 9.063789877726139 10.660345498090114 0.10340488405091222 -0.025653438902046143 0.36298140233180715
Ni 3.4244569063875923 0.5856907168875011 12.703285816977766 -1.1279103038459735 -0.7632201463531758 0.5432113630625741
Ni 0.9377822884065339 3.3691350770097834 1.4276873138069228 1.4017914116749988 -0.43711941909780205 0.0922403827936605
Ni 2.74213910136845 5.0811394626188955 9.610290716771543 -1.627571550231739 -0.1816378968218872 0.40166699182746307
Ni 0.7674598289529578 1.2565435780633603 9.094800831446468 0.3241885978343256 1.3018510891339192 -0.2081331148989383
Ni 2.9343067784864054 5.587504767158675 0.9677405817596315 -0.32050497833515124 -0.2187592271542168 0.7853982251121118
Ni 3.7973510953810448 3.758134695253413 5.483691054208869 0.33241587084012425 0.1711961326632729 -1.0547652471208673
Ni 1.0764206768241569 8.467075035672163 5.118975789337185 0.870749594095423 -0.11519519181762096 -1.2566312980641712
Ni 0.6124324971984141 7.99625873936375 8.830235545874608 1.2633771014284372 -0.5094484076795163 1.0938041061908839
Ni 1.2685060434008002 4.2799469447128695 5.406162755346475 -1.5246598037671613 -3.323420544683638 1.0594623954862206
Ni 6.943195965040986 0.8926175798267074 8.24045582420701 -1.2545942130294843 -2.1056401580483928 0.5653465043987167
Ni 3.3675620311091414 7.398729937512348 9.148034716759646 0.05118346485235056 -0.8380649593782082 1.0057955020903842
Ni 8.159828076183407 0.5447412225844529 4.678297040449617 1.2946437727522027 0.7753506110681228 0.2906048483416092
Ni 2.9786995971010337 2.321879768657413 9.393310984255672 0.9548547493764588 0.5176206590776633 0.15832621867914023
Ni 5.259835647808679 1.2742220532141795 10.171546177628025 -0.5473500678212961 -0.3448965198056383 0.22509082579919942
Ni 0.020564831466182935 0.21751840928068503 7.020310882073676 -0.7314662509803468 0.8106963375572683 -0.010125004249143851
Ni 3.699428988066084 3.8892462419487788 7.808959273483652 -0.21476141884873334 -0.7127272798099468 -0.2643898805091382
Ni 4.642104180872869 1.629675553065049 7.280953613071204 -1.4823152773626793 -0.12448407331871464 0.3444522331793681
P 5.742650991917339 4.1167617237526715 6.695631464496469 -1.0517444580166726 0.2208240801030455 0.25919496657176005
Ni 2.0830237233837754 1.9281518670961557 6.825470856047769 -0.30658194049615584 0.3659805941694471 -0.6570374424468104
P 3.947750745590677 6.897861148009112 12.894110003149185 0.17514174757458223 1.9153548699641532 0.9492363747484168
Ni 5.19397806914285 1.8867130823530824 12.523759209882293 1.0278154580049008 1.5715796082471516 -0.42833061716157844
P 4.3274401270502745 3.3508346999912693 10.903413099394248 0.4450957524350592 -0.8784135383985838 -0.4656794901236819
P 6.375006298359696 3.6687637386192673 2.610459611938027 -1.1219049781921582 0.2710670354189977 -2.647044549809215
P 6.753186653228561 8.178759500685318 1.9937213588673908 0.3105517237771813 0.858710917763334 0.010575461523001142
Ni 2.1063267521909594 7.694261363287602 7.137393968844654 0.2121998287691442 -0.6311631457832096 -1.1604674118463885
Ni 5.160797775378147 8.344871318669966 7.551528482720459 -0.7255437148483247 -0.7914254051427982 -0.2455141266505578
Ni 8.254997353172245 0.057336608516828556 10.022738779112009 -1.2248262377384325 -0.12744546993988373 0.7449701990040525
Ni 6.692935336987695 3.1315319810872393 4.496950455829565 -0.2544829058080714 0.7295682626266854 0.6458264042223393
Ni 2.389456723075106 6.028670977363128 5.321365521124603 1.5639699142206938 2.7964179301704415 -1.2345123546779448
Ni 4.1058601498365945 6.0832154294063185 7.412506893004947 0.3035328692571869 0.24423294594528905 -0.5442315767969724
Ni 0.422253991495514 3.7020171973095817 10.663879363997138 0.06358569517144533 -0.6497697051408036 -0.34247531195865527
Ni 3.0096483606345936 8.935220812195764 3.4257592420634726 -2.827885404651104 1.565900298474187 1.3051747541905134
Ni 6.842475299321395 0.9713558436463976 0.5468657491118897 1.2477648488124768 0.1907794541118392 -0.6338509770280181
Ni 1.4661245074767946 4.714391127376788 12.48341515533868 -1.182730594119963 -0.5322733759938317 0.6331033002287161
Ni 1.2245156318770345 8.99468560548631 13.33457474462934 -1.504882621140234 1.7027084405758934 -1.593570510695946
Ni 8.111767865672515 2.6998314831337424 8.527775401643968 0.5880367469073808 2.058584085100855 0.6187017800914054
Ni 7.529914649133325 2.397102457801482 11.173868161477815 -0.9243198140123953 -0.04567230522613425 -0.46581164482617193
Ni 8.83701519079406 7.3246230134838495 2.8963479005177173 -2.1814067115567464 0.9438913083864195 -0.3543530372328478
Ni 1.8105849772545737 7.133543664634362 2.969794511092574 1.366263651082034 0.9569699959472486 -0.6502121919948608
Ni 4.343792487924389 7.39327915055431 5.086596651507925 -0.909777397421846 1.0937490845832325 0.13288001069189376
Ni 6.106362982746578 6.581523446513159 12.998517266558013 -0.4124453133898897 0.6992562419067054 -0.1546623966743078
Ni 1.2650764375127728 3.5580926430165456 8.396637332663069 -0.8027801680339852 0.8401555233586498 -0.9001730415628626
Ni 8.175796321198064 5.517714573741242 12.439216223776922 0.6129587069600411 -0.22063304713816195 -0.10720831695740246
Ni 8.809212519061784 1.4529914033295745 1.6258874390415268 0.6929179583935033 -0.07613242148820437 -0.5754069739585123
Ni 5.0453435227635905 8.956136835304882 3.2044033324344774 2.5260507490319464 0.8494251215860338 -0.39849656451928145
Ni 4.891788635136972 5.4272187063758235 9.948315416780243 1.7642948459291228 0.3550760314418014 -0.10263612420568777
Ni 0.9062399744139525 5.0636804822449095 3.115027802992481 0.4137141527999843 -0.8313461525971358 -0.004532854873347033
Ni 6.423395751035839 8.84779787170602 11.750262360004836 1.0593207277020338 0.5037832389739388 0.5507953460574191
Ni 7.917624735563056 5.374914930179479 3.9928779571461273 -0.20184805322117497 -1.0314491981027463 0.7954697504155009
P 7.626217982469137 4.6891949561194135 10.402835140470318 -0.2315936599147237 -0.9311643477380542 -0.29927229420862006
Ni 3.620301121017514 5.044419815577748 11.998791723005851 0.8905920827426468 -1.4458102404581101 0.34388556204262066
P 3.2333501206909996 5.687036502837085 3.3324757910322655 0.4854769844655833 -1.8380243144027895 0.4503377175602889
Ni 3.666843159321972 3.6285961944586895 2.6636944118127746 -0.2588041588912446 0.2881090785029489 0.6738797108151298
P 7.67961923254965 8.012327586151121 5.853506828957228 -0.08458158069682208 -0.688534227503511 1.1433577487492954
P 1.8608401355338031 5.4748216361016455 7.325085781638341 -0.2111330780675267 -0.3660451288587954 1.3870250519991014
P 8.912539685256277 5.015583689271212 1.065406611834953 -0.5719408697867827 0.7545277607855005 0.3596636508124838
Ni 2.8942398360985435 8.21037589416508 1.1192578262079753 0.8266425764738795 -1.659814726536161 0.21056846381330835
