# total energy = -381165.3605221342 ev
CRYSTAL
PRIMVEC
9.33403617485236 0.00000000000000 0.00000000000000

0.00000000000000 9.33403617485236 0.00000000000000

0.00000000000000 0.00000000000000 13.66130544073089

PRIMCOORD
 96 1
Ni -0.05373137895784885 7.076347469757882 5.571244411921301 0.7871249779952314 -0.7744818353099243 -1.0112238721948068
Ni 1.9282998551453276 0.060815912377289005 5.180366714697945 0.10816476733340082 -0.47224634470792215 0.7284158941897971
Ni 3.9990184334972665 1.9510375671476414 3.209901284758178 -0.2293472870827082 -0.5408446626026105 -1.0877746121673524
Ni 4.046510009305055 8.882464792017213 5.718048265299788 1.2427393705734275 -1.9096099970605755 -0.7505170969642107
Ni 0.22463104659494462 7.270570093462376 9.368513254982272 -0.13794534102994307 0.745229109092394 0.1673983561837375
Ni 0.8376812052977249 5.825717305413865 11.185576601406265 -0.5062085605859798 0.571599427286964 0.34141935989031524
Ni 7.62256592980033 4.054490610192567 2.253036572381658 -1.5348974223347696 -0.17806252076580303 1.3785254991685227
Ni 0.31772498929867105 0.3622147390884202 2.6737085129183917 0.6684467127250165 0.03444686882396003 1.1733182996671276
Ni 2.0268299404886876 2.944683048877658 4.33792888459054 3.1492555592000278 1.6559233619015545 -1.3506172027940286
Ni 0.5840539754781546 3.1314384436815565 7.197977427705235 -0.2811023081678126 0.34243931651439735 0.04463717909340054
Ni 6.423702329809692 1.569564844724585 10.86946733376096 0.28377239880080807 2.8141078912510373 -0.2218594633460953
Ni 4.375870808038079 1.0294041741277442 11.216477861404154 -2.9233291248734106 0.8229440445763699 0.17516797282682733
Ni 2.4443320423571184 4.605413424442391 6.448559801416163 -1.0258290237024914 -0.16925880643124397 0.12847596808692713
Ni 8.056159909949544 7.508709357138498 11.741113229713044 0.1392946559689859 0.9098499025309944 -0.8660254491468763
Ni 9.172062596854564 2.86830263126069 11.18042608027208 0.15502775043352657 0.5729227740840779 1.6817380089718135
Ni 0.8307385492273961 0.732370876112624 8.17772546304763 -0.3620663467167055 -0.12774783167165096 -1.3774533491502665
Ni 7.064903941467719 0.8461490428710003 4.6749529269828 -2.5279145417135624 -0.509164300780194 -0.1635054488872345
Ni 0.47718859587450463 5.790135959702526 7.569674614093798 -0.2474069727978965 0.5957780814156965 -1.0290326182414538
Ni 3.207174812805848 3.1215723674966442 9.945471496197637 2.4331303094521255 0.6531522484597913 -2.2233249490570866
Ni 0.5834584639733321 4.468175091285568 3.392197810504808 -0.11575466386551678 2.7353853404381536 0.7299161328844075
Ni 6.424729073783524 5.232025937635878 4.438531125953816 -0.7578092597502498 -0.40776564852603325 0.6336031226832701
Ni 2.051817155197306 8.581031429372416 1.1327310206361247 -0.7693540271650556 0.5751606622756611 -2.3355975679112744
Ni 2.2255142334612876 4.040050856306039 11.902835673031309 -1.9878026435119187 -0.6809386745444401 -0.47259292941406345
Ni 8.614447278702581 2.7698938883869646 4.001327674034775 -1.010776243134427 -1.5692879839994973 1.4614299492732379
P 6.113560311459576 7.696314149229838 7.71438857678373 -1.2345457790190415 1.6030571100301425 0.10477451070492924
Ni 3.7748428878652582 7.888744637998189 7.8411111848412895 0.08817675424724813 -0.39238736629775 -1.4877457043496314
P 3.7743481839505937 5.0718538777181 8.469421559206049 -0.2035452384179398 1.0384192016626763 0.7704657721719956
Ni -0.06261924815678287 5.378458296376559 1.382578899228381 0.3927483491815945 -0.0884919714948218 -1.2986870895836409
P 2.790512774188734 0.08393165284269553 12.43275783940182 0.515710329428828 -0.5266825121696156 0.13807543884990411
P 5.439773579686576 5.958755322314102 0.16653040532663477 -1.0453462677998127 2.154655925825463 -0.028635404348505523
P 3.6262076965989007 1.037384775015256 8.874506592816402 0.3395889915497958 0.1538887517330769 0.2454349366731902
Ni 9.001520422801084 9.21067750430677 4.907878198079082 -0.06595650939646705 0.2637267930038426 -0.08735914344195922
Ni 8.767282786225524 4.729593441059298 5.638334663382316 -0.35511999730585936 -0.3250069799705628 -0.6719878931090556
Ni 5.968154696692727 4.053090504773705 0.5145042054980064 -0.6616955100441121 -1.4838841645116962 1.1749260104738797
Ni 8.40082852792879 2.581383694791427 9.093498014784172 -0.7372666597122077 -0.28248221923447475 -1.0864952312342966
Ni 1.7365694190864074 6.12024348132561 13.599515155330733 -0.41782046165887393 -0.5281207872780389 0.15975266671302166
Ni 2.2710549957187953 8.649552588571508 9.466724116290132 -1.0528364055292707 0.7209864344949454 0.4351697515705989
Ni 7.400313195610225 6.199452111888679 7.13277265154162 0.5301187915446741 -1.4245330762468884 -0.026509102034122087
Ni 8.394285368604644 8.448217429339195 7.23386586320511 -0.3099565133953436 0.5321214237969997 0.9347530935305771
Ni 8.916104658214396 0.4064011327040826 0.5989062937614396 -1.2120802509266737 2.320234969412275 -1.8779221790389915
Ni 6.633018089929515 6.650995443507699 9.614525778130462 0.07450105653236846 1.4983270794099033 0.03445483924376001
Ni 6.559045853632989 3.070776542900342 5.840536021167096 -0.8632142049503263 0.33331164318151624 0.512989073842923
Ni 1.6828147050382443 4.79607044634685 9.158484374502443 0.5544532545249806 -0.30340431409912266 0.6637174255701473
Ni 2.687829042769418 6.673723821473887 5.593484619798113 -1.638490511137088 1.3219802557836264 -0.1239053179971092
Ni 8.055245174409222 1.4729575708231282 6.652795979076356 1.6857144771210582 0.47711190033033957 0.8761198572684008
Ni 8.020205202793177 3.152216008097464 0.1807816116834216 2.5953448074420784 -0.41330354762512694 -0.4819864548138215
Ni 5.866871070692272 4.514294563782872 9.166202688974822 -0.013768000318369836 -0.40949163007820444 -0.3629986287229877
Ni 5.919104336851938 0.5458170964890419 7.114575948114481 -0.04037840381704659 -3.3466314355824625 -1.0965621285519953
Ni 3.989861744057911 2.1341713559347504 0.12382719005135316 -1.6145224303572645 0.3866666617638889 0.5086485374860401
Ni 3.6550965384080802 6.699943128951104 1.5018688143190095 -0.05206252502319421 -0.0874874414897074 -0.3266218898661665
Ni 4.510775632163466 1.6576034734626082 5.571476829420832 0.45649705229346543 1.3819208980033169 -1.0038455774528647
Ni 6.202551011882425 1.715866526959506 13.47618080238682 0.8132275886195544 -1.0156695666709863 0.05043707360462926
Ni 2.4090960559824324 4.037213309323813 1.9151649995091797 -0.6233552197030169 -0.42267856108212365 -1.3192615713008826
Ni 1.881835023311371 1.6729299607810808 10.71024454531717 -0.8852932962375527 -2.2304721016248297 0.4754609949904779
Ni 7.626215537925496 8.09345871830802 3.009408055584409 1.2934440960171467 0.8532331824782144 0.9617620180192533
Ni 4.877127216062816 6.255764351835295 6.160592652689978 0.43793523013087804 -0.4556794414881765 1.2131133201768785
P 0.7821156882411673 1.8644083778646057 5.286119477195405 -3.172933362432942 -2.121292776983985 3.2911580851055064
Ni 3.698546476573422 4.573845714265123 13.50519752049092 0.747380608217758 1.274393764253915 1.499361948432321
P 7.998858262173599 5.948777237695682 3.362484773305725 1.9372465278309217 0.8882577781825153 -0.5404469129435595
Ni 5.089467203887381 8.644465538882976 9.737273020202066 3.622104056268323 4.528905916001613 -1.3889940028000143
P 6.089702515122172 2.589924337846483 3.7968861475798166 -1.0067365258474146 1.3412123645403613 -0.46188685585046907
P 2.5859387044207898 5.384609426183426 3.593524569104606 -0.4971510783694018 -0.30928005615360926 0.5311505752432982
P 7.6738657923474225 4.068220977333537 7.433088730062165 0.3785707721296319 -1.100406184888434 1.7619114332986108
Ni 6.683767244345189 8.921891760612358 1.0228040771832305 0.009695887131525237 -0.8065332073185142 -0.7394155877344104
Ni 4.089175888435833 3.352412414922434 7.296994749734358 2.526983288148545 0.022025612341471743 0.6074570604155216
Ni 0.39459917742669115 2.6210813504342183 1.9454110101710427 -1.8586409622118762 0.8374036716451255 -1.0247211353502932
Ni 5.258506598124615 8.974955755987216 3.0452283526205663 0.30725685507599343 -0.4272427834140384 0.6279783202973249
Ni 4.370130375820747 9.27963736320377 0.8360496157829448 -0.3594764745023422 -0.6766791279371378 -0.4757772406793161
Ni 7.5920996358859005 5.7497849215309325 13.219389334320622 0.2751432623709003 -0.37535586473676 0.027727033601623215
Ni 5.676783424991482 6.677998810019479 11.777302221176168 1.0155451252779801 -0.26960124950674863 0.4091833548091663
Ni 5.8520952915052185 8.926362763916588 12.287893598730264 -0.2645552024424089 -0.5431301162026776 0.31275155964197754
Ni 6.022385446583303 6.6715863272010925 2.195808663491105 -0.030604355149418255 -0.7707833034124145 -0.5126987962960138
Ni 7.312517251811472 9.475726794133413 9.629567577347098 0.13009859129201465 -1.8523641280642291 -2.858712931554922
Ni 0.7027530460820237 7.372208412835608 2.7045836376151295 -0.19219818883623674 -1.2659955128878908 1.1529585050638531
Ni 7.129392797060488 1.4557642762795067 2.3651271454084997 0.645905594199707 0.16845199425923246 -1.3591697203497302
Ni 3.5572945078825287 7.380861064324173 12.631174245537611 -0.11517076633758876 0.17113545462866656 0.201064380977615
Ni 6.046149902559449 2.255616499966814 8.28683847855036 0.5093913291893356 1.424558273057869 1.5973050380377136
Ni 9.380519625650818 0.2385172921392149 10.185991872489437 0.5357528499019999 -0.1091387012108959 2.5198484768759766
Ni 6.681387065133124 3.5400545431582784 11.994312027274443 -0.6948809956571452 1.3837895757809395 -1.3931607325831943
Ni 8.398168327632952 5.186839868751149 9.594403463050583 0.2035524375067914 -1.0967019965639693 -0.4236805199840768
Ni 0.9866076184912054 8.062413714153793 12.414069232270855 1.2676908983124426 0.9411304578118308 -1.5710892988742942
Ni 9.08852297352915 7.618729640952649 0.5180380715752133 -1.1134925857587468 -1.8585753990812637 0.8148484120524289
Ni 4.498473372549735 4.420730185658408 2.6526565278403873 1.7942417700002002 0.4160661979719286 -1.2810657769574518
Ni 1.4123610082947944 1.4979634536039979 13.06754416803062 -0.48731198079179294 0.9629164433386707 1.1149663420907958
Ni 4.208931571929138 5.171270696493407 10.93053339830642 -0.0544492800878159 -1.2792474928017903 -0.04373369344252468
Ni 4.314704869306075 4.027683258439429 4.829899793477387 -0.3553349415301429 -0.12264136368302103 1.3788096060678448
Ni 3.930879969779331 7.152513204543958 10.032124953974598 -3.5709118496652246 -4.566369203054394 1.1880805455779666
Ni 2.5695294689117305 1.8212291267469112 7.001364357348937 -0.35784228133302887 -1.1572054532656653 -0.602825218070465
P 0.27132736252481976 4.525280724302873 12.832282587692065 -0.8276378505076134 -0.1790210280243304 0.5967337604607464
Ni 4.221457848409886 6.596456670424973 3.8752071113073274 1.5498072495670663 1.3703172523261176 -0.12058988047063104
P 1.5101070346035919 7.952449434556396 7.036856096313468 -0.5159895512321436 0.20864476442803423 0.6918905455702535
Ni 6.701184555755828 7.672475020964686 5.383647087058861 -0.06843479573363052 0.8001193333723703 -0.5303491623879254
P 2.125126674928904 1.6301707412890447 1.7476087836123257 2.364103131550135 -1.4906903888002523 -0.3429306543285191
P 4.266158547416078 3.220195793201262 11.90742615199795 1.5019780458989296 -0.7443384789573245 -0.31246848118391995
P 7.764200593972379 0.5054315223837826 12.03301467466623 1.9436776281682462 -0.9466580724982793 0.9142045799552643
Ni 2.8315731991058852 8.669928789434007 3.1654610053598957 0.9780067620128898 0.33715698506953545 1.0102733353560795
