# total energy = -381174.0604382987 ev
CRYSTAL
PRIMVEC
9.22940468797681 0.00000000000000 0.00000000000000

0.00000000000000 9.22940468797681 0.00000000000000

0.00000000000000 0.00000000000000 13.50816668337845

PRIMCOORD
 96 1
Ni 6.4377311878599714 6.737945259459958 4.641216514537808 0.34910130191560523 -1.9305904559669849 -0.0603677024547799
Ni 5.937940472006477 0.45618547105881657 1.7119576375444459 -0.11312571088310196 -0.6304247249552885 1.5120171753024862
Ni 6.770026669718244 2.9255458875379796 2.2846763394272576 0.32164474836654927 0.865411212601645 -0.5346346771371566
Ni 0.3353513377088256 7.045450560664101 1.6740533959478527 0.04599857821730143 -0.07469363215914879 1.84092451876872
Ni 3.1263685014073874 7.438318624664243 11.83547737966091 1.1955313454290573 -0.264411477775693 -0.0697458012355702
Ni 5.426640688663889 8.189721367693059 6.50502000770177 2.0255122422475504 -0.037255541917348735 -0.04455876044698132
Ni 3.800428834204775 0.7914786635189001 5.615952389163294 1.70091818144469 0.8871874279364721 -0.3801232042184163
Ni 0.7507751435185847 3.8633826027236977 9.747141855247644 -0.8500360156971555 -0.15501695180024916 1.2951893608430274
Ni 5.899536919623066 4.356509688483268 12.66898490567526 0.9905041231489521 -0.34091825188418057 -0.8677851121504603
Ni 4.517295145361753 5.4326398016293345 5.406940524625825 0.12054874282005047 1.191004918313613 0.09304925184820104
Ni 6.453282734547316 9.003321068066695 4.19852720177033 0.747026824422765 0.910391376856761 -0.17379037575301037
Ni 6.182741198614877 2.123612154530993 9.304465463646554 -0.8469563483305672 -1.17017949692783 -0.32676175787814044
Ni 0.16461196800998287 3.2797612052315324 7.643920224215971 -0.06825944649803084 -0.1317456399771344 -1.996469060937665
Ni 5.473553752053669 2.163363199980487 4.034443155701306 0.09592374518251867 -0.9306789234612035 0.8880325495455869
Ni 4.301696254788226 2.1532477725802908 1.991927933177653 -0.39669627808574903 0.7372108667736078 -1.3107252516950976
Ni 3.905487146336559 9.231065855044108 7.7459475998895195 -0.5711708243899776 0.16303570833966757 1.546533721022117
Ni 2.5254235115519292 6.192699726137515 6.012268558707882 -2.261566766147105 -0.10713581184825421 -1.036565436283389
Ni 5.1864546643366 9.039472645736922 11.82033469559567 -0.4421058165687999 -0.20569313799887803 -1.4702699161623711
Ni 0.013938246769869034 0.8499100238023333 6.9965550211743555 -0.5703642693282822 -0.5320422338196321 -0.8157554972477306
Ni 8.942776174138512 3.8265111314976177 4.5814570429378705 0.1293077199596031 -0.2893622341837597 0.8536486727490782
Ni 2.1519833441552665 0.5487425547110689 11.800571771606581 0.8426754615670262 -0.6019749542550278 0.5446894902699974
Ni 5.8531776205070205 8.878521059576316 9.050336577847114 1.0836935001194434 1.0822526539078587 0.17096370493749263
Ni 3.8244529742802413 1.305573110562928 9.919073664015926 0.2557933970893788 -0.5486986114293905 -0.7236992054404181
Ni 0.16340107013141922 6.267836308678572 4.3913156189683225 -1.221711860479167 0.3408100084410905 0.06555927395804839
P 8.943459150076118 0.05960534054374798 10.532385133044306 0.9934488075995729 0.07856365663751631 -0.44507724049229797
Ni 4.390750779409115 4.76602759831366 7.833899210665223 0.2935302495185203 -1.9223007051543668 -0.22100817108939358
P 3.3550916052683957 5.9672992079189076 2.6185583559297774 0.49575908311788164 1.2160970853955508 0.8900675776977446
Ni 6.5221894690088735 5.912605756483174 7.320400060215459 -2.1513708273162884 0.7078614670772132 -0.5180945133902883
P 3.1652150652097837 3.327311097536105 9.182122322650638 -0.11869626299234395 0.14958858169582623 0.21066385174059202
P 4.031653106702146 8.079014659969195 9.937607231317324 -0.21788273808653447 -0.3257194326565552 -0.3558944135780387
P 8.198009372989935 8.43386680657754 2.7012824319614372 -0.7258255077548016 0.6189097823371534 0.4000243140177175
Ni 3.75946873675763 0.5153644131117898 0.07753069008449731 0.7957384306958554 1.630019240441283 -0.41401214365637734
Ni 0.6837733581586711 4.0298072257897015 13.347689474848359 1.4759330279854195 0.35729900723504915 0.2118846115215706
Ni 3.7410191570377465 3.2279288692100883 5.266010285782049 -0.40178037747687584 -0.32230680743058043 0.5686439442030659
Ni 3.5698967670495714 8.4843516495329 1.9594671943918587 0.693521139195141 -1.8949824769553878 0.6032869881982319
Ni 8.281987725101601 8.147395318370705 8.655101171576762 -0.83799245426906 1.2804250580496594 -0.7467172636021463
Ni 8.568431525094752 1.697389022442977 9.086673666549043 -1.3992218511756096 -0.27507744212997143 0.8708760923709583
Ni 8.693074633707571 1.6745370167469134 1.0871537139551857 -0.729255359371957 -0.17438121525947387 0.43427423633952306
Ni 9.139971632014968 2.1546506420737486 11.863965782723122 1.1635126264306155 1.4557598954716542 -0.9349556964596866
Ni 1.4534004834360523 1.6946478892879968 5.210019180064868 -0.07927688065445702 0.9515850774862514 -1.3013062723740427
Ni 2.3983438401346824 2.7747189581821323 11.572730075881267 0.7924921558444158 1.8397546668303346 0.8161532469067814
Ni 6.9860501129016335 3.5362186698020204 7.67231448735165 1.2767769197741108 1.6444097048350004 0.38712380390596557
Ni 5.4824693568607765 4.326467976633232 10.055411351149539 -1.2683300745583383 0.32221733304056766 -0.29096505989450533
Ni 3.0076968175463255 5.780339159701957 9.706090386695333 1.1189968034064277 0.7273470866056505 1.933458007322767
Ni 7.098251984164578 0.9276013055262132 11.099674176223163 0.42710600072585797 -0.5412179867816292 0.4014525618238118
Ni 5.219929714683783 2.2641759860136483 7.156072357865992 -1.5061026095902643 -0.9217728792208255 -1.0179174821648984
Ni 1.548777150182064 8.77224446604232 8.270523881694864 -0.19736739174200205 -1.0132144202622744 0.5140383410430437
Ni 2.463023507306741 1.7115284702323026 7.422088716741574 -0.4903870201726909 1.527476704390666 0.5036989067902486
Ni 0.037412314333426774 0.19393378630416505 12.767878898499935 0.16843039699267767 -2.0877691913052434 0.6038783419253277
Ni 2.706153711689379 4.163919703483362 1.6828204073415083 -0.6482013322124192 -0.7611370385719021 -1.349207981151328
Ni 5.090071992493307 6.424182421962628 11.531448795155356 1.2899664218811913 -0.6156519375214882 -0.31531957747946987
Ni 7.911833225729088 7.677111008902637 6.115390541762512 0.6738946232134653 1.274975604899314 0.6336247199498248
Ni 6.45566392092437 4.269541009293441 5.303238934964688 0.4583649587401396 -0.6577203274464479 -0.6403424982896327
Ni 1.4986614834091934 1.6515188817687292 9.85219462973669 -0.41172514739441346 -1.088469838462164 -1.557060845805686
Ni 1.716429284054843 1.8348794622064117 0.5089232116678145 0.9341280583520686 0.11653833610907671 -0.19478214751332906
Ni 9.28330428486629 9.070123498288064 4.587022373888891 -0.8274571019553749 -1.6427623990395646 -0.0475641229322084
P 6.9994419789214195 0.8041570965660256 7.40746011051045 -0.01386775912102773 -0.36875584292173913 0.42297475216630376
Ni 8.986385110695016 6.978666589251856 13.049429268194194 -0.05193551252702668 0.3789057868715474 -0.9336287501181468
P 8.011907659397272 3.303637674834003 13.309866452011914 -1.9489769288939727 1.1950382078427224 -0.021389007198737355
Ni 4.860435177580639 4.439122088719725 3.163477168330717 0.20739957916702348 -0.13546088404519252 1.025436673360079
P 6.680953686288231 6.694114817193961 12.976336075823212 0.301601456562429 -0.5990115007513297 -0.031145572364868944
P 4.256527548860707 3.0452420353054483 13.30463891726787 -1.0221122369725364 -0.3351139864975777 1.2443907901339215
P 7.655809543173025 5.0389964676459655 9.366630118075406 -0.20504162045780816 0.10345116390781539 0.01597143572759185
Ni 1.169310181606269 5.351310288627026 11.423140809677212 1.3953132601498228 0.9700268291312066 0.8342944365921825
Ni 7.5253795978996925 7.608638056455504 11.01909778263313 -0.17719888721392707 0.6836241917964033 0.052045555742329726
Ni 0.35403072960230847 6.453495010852247 9.427795227990169 -0.20844627526398293 -1.9077464614892756 -1.2666416311123219
Ni 8.540715623194396 1.705095575252433 3.546244571977963 -0.7553142612425379 0.01635273032641055 -0.4347113238769416
Ni 3.4195589961355224 4.871335104368623 12.28512381758739 -0.37685713187263487 0.4785527465419242 0.7292898121543182
Ni 5.17171530525073 2.236727736845597 11.527261414305475 -0.7862024661809621 0.7513701889931254 0.09459319929655322
Ni 4.818718268959391 7.637359963453142 0.1279361601606215 0.01901382209834145 -0.4189468619538333 0.9166486706203827
Ni 7.391100990923911 5.3002347637796845 0.9706214060716467 0.17592670536972282 -0.5042532366318219 0.04361413714552489
Ni 7.363062059863878 3.370117075895694 10.905642558230637 0.6458731982998748 -0.9856113138330252 -0.2901590190534422
Ni 8.123020460921873 5.3589430061999845 11.625222314328909 -0.8246947087188894 0.035469910771835686 -0.1859897460326797
Ni 1.9880414309165009 8.700162816411359 5.7597880445632565 -0.029968778447948388 -1.256688890774984 1.4028357937791132
Ni 1.9856233269211985 7.456159063683019 3.7005491409728553 1.0967189658448337 -0.14542596567770438 -1.0155536099184124
Ni 7.093452693792222 8.74379944118155 13.447852510800338 0.487433851081638 -0.2106239996415921 0.003623455685200211
Ni 1.9913732459634634 4.560507217522081 3.9829098523876776 0.2572882364673505 -0.004206324771863723 0.1648298241256129
Ni 1.2161217215458635 7.80479982102099 10.97210257754275 -2.031342475776082 0.40688864523771867 -0.3971750174943805
Ni 1.862346170183587 4.912922801326 8.049583934701179 -0.04548975690168294 -0.12492218929739775 -2.357413121124469
Ni 3.7923531052128303 6.905458952264304 7.659170892314587 0.5344356737524731 1.041476243321445 1.2320083573091685
Ni 7.354755595757877 2.1044703694689426 5.676158563944042 0.30588748553229256 -0.8275252361891492 -0.010959841445613384
Ni 4.306578609801642 7.910956432295678 4.5671653099732685 -0.9791056515040235 -0.727137798808322 -1.0448855261133103
Ni 6.205177881105641 7.145331176836477 2.31231471432929 0.18369992155723844 0.3405570118900199 -0.2794246633550736
Ni 3.0494137261675727 0.7305479804800169 3.462251452818997 -0.13009139220316304 1.5468517664831682 1.1574101130773036
Ni 4.871695051146551 5.308762733595178 0.9974808192286279 -0.6729852240253185 0.5776906277863664 0.30469577921703656
Ni 1.1521896361433455 0.1388877716141552 2.3223240035770214 -1.0721842139282631 -0.32274698029179255 -0.6457988934185136
Ni 6.5105142722376605 1.8414600276592767 13.460672153737265 -0.9926517656195742 0.39114192392642316 -0.2093795857115297
Ni 0.031880209238830365 4.5390580813194745 2.212650989164126 1.1870703591458975 -0.6452229663103856 0.3115377418395344
P 7.477119041443828 4.946508604527929 3.334234073898228 -1.227524610506202 0.6725244823388159 0.26436622636005436
Ni 5.987640815574046 6.616320166138984 9.36858859772351 -0.23610131797709014 -0.561210370743156 0.16268012477246177
P 1.6954969945077214 5.995190468505945 0.1390668220626623 0.26795728614542236 -0.9730761574804919 -0.4629340661680608
Ni 8.374254082510143 5.368495439921885 6.442747369239539 2.122915400189073 -1.4353738756161343 -0.45848451503713944
P 0.602161425376759 6.851217741652119 7.028204495299131 0.469306802463624 1.2301584485846233 0.5795374511871181
P 1.1348475849709287 2.4468997375365373 2.6699163005567224 0.9581591311593434 0.33799053671442436 -0.2825768358308101
P 1.6340660777415659 3.691069619546996 6.05517052287492 0.38107836904283404 0.8019175629233737 0.034358679985527926
Ni 2.0412766364314026 8.103786381814201 0.1891658759073207 -0.811899356726434 0.6482460694074256 0.6988268676787706
