# total energy = -340857.40861167386 ev
CRYSTAL
PRIMVEC
9.38349605314917 0.00000000000000 0.00000000000000

0.00000000000000 9.38349605314917 0.00000000000000

0.00000000000000 0.00000000000000 13.73369497210239

PRIMCOORD
 96 1
Ni 1.0387905636237653 7.535379091593892 3.4824256311371267 -0.033018621017865714 -0.4937423097981691 0.6729060340479509
Ni 0.8529476062804194 4.6415182461772355 10.290974120463757 1.3203303788850294 -0.7891103838563766 -0.5598183754916358
Ni 4.60244536798919 3.794207306065778 2.594817266583172 -1.2233069728804287 -0.4947473540239157 2.0517832601289374
Ni 8.18870501470692 1.6817946409138227 12.69531767432755 0.7675568260553168 0.8668697994250426 1.418851452481079
Ni 9.04492089271474 3.8713584118443825 4.9408893090281945 3.196819682132236 0.005486219925551841 1.1473288175819016
Ni 5.972492114560691 8.490759757471853 9.44192911025404 0.3997615472746341 1.220611942546769 -1.1288140466071657
Ni 8.145418946723863 0.7158218845222545 3.5209345612033895 0.5459729849681113 1.2143446214808182 -1.9887647503148715
Ni 5.557309941576001 4.880440826490398 12.639366701519707 -0.47570576401143233 -0.18578611466230585 -0.9540875321931309
Ni 2.11051719891901 4.892038827796934 4.066629906172202 -0.6562118612217215 -0.1465014581300703 -0.5880647719318388
Ni 7.902827419395444 6.321886595668247 9.380237314469385 0.41894506218162036 0.11963960074221977 -0.18975589794333128
Ni 4.197003264062903 5.976630236386082 3.8452422652130256 -0.6030334774265292 1.1221659451630288 -1.7472049803263716
Ni 9.253103139467855 0.9898368639342763 6.781932202347669 -0.6463090002857128 -0.308355744567127 0.026234765326812886
Ni 1.1631781892867643 2.416775747982751 3.401781049722257 -0.8305259706886858 0.7827625872614776 -1.2041013464862553
Ni 4.036085687682791 9.256884688437545 12.501878776808118 0.6579445276421121 -0.24876888614242962 1.2509517311808909
Ni 7.927346494973101 8.270069310280537 7.438210173366066 -0.1145912396850349 -0.08390358079319098 1.2697238695820714
Ni 7.944668428963285 3.770804866536243 10.309129308916742 -0.7527529282732649 0.15808710608514065 0.45436663621402396
Ni 7.336805544952343 4.327809201128549 3.7191946990717693 -1.771277190784227 1.5927670409580441 1.3108844029807811
Ni 7.680720064277521 4.32739632729563 13.412835156613632 1.0037471042017874 -0.269568082275968 0.4986713716686702
Ni 1.3150313083350678 0.506415091514687 13.211430609167726 0.6789383562849597 0.34978418691524277 -0.693816816058689
Ni 4.201103851903484 4.797772224944604 7.775345116684795 0.026904537700327857 0.7661424622062935 -0.8606592997389565
Ni 3.799349461984858 8.714396622470815 3.3730093736655364 -0.6274129347121582 -1.406127062935875 0.39733031212532216
Ni 2.7637492870700107 8.781010062013786 10.808280636020918 -1.1351854973511482 -1.5879464796409493 -0.3651580982681518
Ni 8.778945692849192 2.899284506221818 1.4946652062410866 -1.9854575403185095 -3.5875851965558474 0.09274354768232415
Ni 7.340953050273936 2.4351674005400445 8.327686792013978 0.7867089735037355 0.20876174962187272 -0.6872841571464937
P 7.842547839789296 6.759955115891324 0.27935325040173825 -0.7364978998669832 -0.32753771681221655 -1.950965162968595
P 4.348781315141585 7.415298490687933 10.081589847847075 0.5758268351047502 -0.12434317686547616 1.3662623655304535
P 3.971949491137332 1.5594526174230126 2.970351353062591 -0.3460092932538428 0.8717898624344791 1.3892097183552463
P 1.606323180955502 7.642960875557854 12.66533740395992 0.21043013846323114 0.6370147194679804 0.545784523106389
P 0.6538495222011388 6.3020592681919405 8.572462797258385 0.8438424852919338 -1.2258888746749919 -0.016388725770668546
P 4.733373290505471 0.6759457790592581 7.857637440032859 -0.0035640632021745073 1.3740610356392657 -0.09291298338065289
P 9.360300200087506 3.4029155144131638 11.881487048667328 0.526623376796906 0.030977679328436973 0.7193666395033353
P 3.313171756730535 1.5466441451063262 13.54330516451522 0.789247166544557 1.2913884990396984 -3.057847699609992
Ni 5.820929883894672 6.7927598186159655 7.679799543300037 -0.5100369331931345 -1.8025006675748827 1.7163741109884443
Ni 5.087853626554891 2.9088369053561673 9.031346727107913 -0.542867349459594 -1.312201836240624 -0.2606988048107962
Ni 7.033493413696249 6.683085514998801 5.792035284037696 1.6218012234068648 -1.1712403340921764 -2.185407090965391
Ni 1.8402631247850303 4.392883747294277 6.455619245199515 0.8176789395226886 -0.7713877697656328 -0.7834475291436442
Ni 3.5643210325958163 2.542965004916669 7.203969019308431 -0.25046504289793 -0.7221750554864079 -0.2786114234251589
Ni 0.9079330173290043 8.377500958305255 9.01336888673316 1.1218844093668678 0.48047875992004346 -0.8491831807785568
Ni 4.405598384648937 0.34434146840240193 1.2429294618631368 2.085815410012982 0.26059904600813827 -0.1813962131247263
Ni 7.279087659809531 1.1199765727695308 10.7555435106625 -0.4922240733814297 -0.7331791199063954 -1.7548995207571518
Ni 0.12065111747508356 4.593859468963719 2.4836566171674996 0.835653007502606 2.32880651313137 1.5446205631598044
Ni 5.249850304998314 2.761844437340862 0.7609565012572443 0.4258266197928021 -0.5756003209162409 -2.4339633468763826
Ni 0.9346797349051821 0.2008893935043762 4.952782890465117 -0.5921345711258382 -2.416462618988458 -1.6016741136396866
Ni 8.019792699562107 8.811609643130794 5.259057391472404 -0.1489121244540919 -0.695424526865441 -0.28001575997185324
Ni 5.827122991388454 7.924137339271777 11.829847792364626 0.3127453889943904 -1.2557617509750245 -0.2707775292030369
Ni 2.3357304912800263 2.6673526305796678 11.726268069531114 -0.9365778054441418 -0.9423509604824932 1.8330595141983463
Ni 7.895639661304176 2.0013402206005884 5.39559758306752 -1.9744370208382898 0.3598901650009931 -0.2131807046251748
Ni 0.15941527863805993 7.666138111178524 1.25725618386542 0.9098265054922267 1.1129482832195026 -1.5270642994435957
Ni 3.9212786116427494 8.169938022301519 7.483572809058782 -1.0206261393453133 -0.27081738130203686 0.8060971482223601
Ni 8.800602802085026 8.382464827796484 12.450377457899595 -1.0201245171185462 -0.5347205519827436 1.3141008530355498
Ni 2.5604558418385026 8.540041879528435 1.0281102682458516 -1.3897483644675357 -1.8382742256300661 -0.16340980384963472
Ni 3.269810620777856 3.966675966271415 13.79934230355249 2.2339034959038817 -0.6911081588782743 -0.34612782110957807
Ni 0.6155432756528542 7.665922290765862 6.467595401403022 -1.9266281288851275 1.272190585955009 -1.184079909059006
Ni 5.872970753834848 8.55016667193115 6.351147151877129 -0.5037953231587968 3.161879675721942 -1.5998617430212962
Ni 1.7774218507155444 6.097789939355352 1.5443264215442591 1.4301997876143628 0.7783279485288918 0.815226364217138
Ni 8.019332908248174 6.516584758378082 2.349753188005342 -0.6219511402666386 -1.5024557568662962 2.2314429501785313
P 6.286942455809391 2.8732453042593233 12.198075888700622 0.5847822445258252 0.7862469462656524 -0.30508812955944875
P 6.829073948920416 4.9062548245440265 8.21684236642034 -0.1261401208648989 -1.6627169877846204 1.066793381929995
P 5.774706781600169 7.9162176684766985 4.002740495576874 1.2063549184071225 -1.0027497732855248 1.0848268423929384
P 5.098973069555091 5.723857615677733 5.619375200509524 -0.1145318472020092 -1.2311202982772604 2.669557386199751
P 2.210291914042325 4.091542150240751 1.8731663542197998 -0.13404446331364012 -0.8442849721459911 1.887087133367711
P 6.416978946186415 0.21933547033964504 13.009970699094227 0.21208104380309278 0.12795326281423772 0.7906635872761093
P 8.134130600792014 8.50545431252528 9.535345568350406 -0.8020957403724509 -0.4901934161046461 2.853736047165621
P 0.6641554160805648 0.2849336155934843 2.786223698825099 0.9617638177914662 -0.5329400630435531 -2.058506952006016
Ni 2.783604765034925 6.299647709667847 9.537584470544369 -1.986508093070211 -0.8558346246568035 -1.5232351555054928
Ni 7.623433819960034 6.191925173260844 11.763157408152793 -0.13407608788252393 -0.29840711799484737 0.8061992210178632
Ni 4.121287833203312 6.644819617484187 13.51258265959796 -1.3290664732064466 0.5872463897956015 -1.9399299882003558
Ni 5.466177426455373 5.294084106097844 1.1477029273492705 1.702462128893042 0.7243172986403912 0.41291248283429527
Ni 4.830877199547733 1.737382472418621 11.16200560062602 0.22049292201587187 -0.06943752596653202 0.646537571356751
Ni 0.5741348452599567 0.3287123171271838 11.021276616326018 -0.6070690809484836 1.1755057942367497 -1.6096887564140474
Ni 5.7846345205826255 4.705138350431545 10.114770828769444 -0.49561047335515934 1.5097967706123998 0.8628995019233848
Ni 8.871682785820482 0.4263588553117266 0.8923977010158133 -0.09088823964114025 0.4949952083686636 1.1094145590346314
Ni 0.5632894003488754 6.858144020156383 10.869560496322272 -0.14753915536596524 0.7039544187133231 0.4676247867755108
Ni 6.226925614096917 7.8899907965901495 1.7463624782846054 0.5364786723244309 0.9818361630613092 -0.5426369786163429
Ni 9.037339027782958 5.377531537828461 6.911234903321643 -0.708608886766199 0.06660674138595625 0.05665040150419277
Ni 0.9651301184325657 3.3635142138580236 0.12472636987591641 0.18829885378183056 -0.5428519228406264 -1.8234039933864532
Ni 2.3423083221181193 6.586651324523647 7.012465937055617 1.8076503300966222 -1.719004863743072 0.7501748831334435
Ni 4.008207320464567 3.465719254497839 4.868581025639804 0.16575362149146292 0.23577273099307783 0.9768022001818275
Ni 2.086532982624907 0.4252544178086688 7.326610376328109 0.37549470430746945 -0.3466816367305191 1.127431564437342
Ni 3.5449065789524288 5.268204423570796 11.451155221063377 0.20319916793243067 -0.7720066342965543 -0.22558782004027603
Ni 3.124131842230929 0.7352795022481745 5.335196956360357 2.207395165200708 0.5788861907563644 -0.7901583655049166
Ni 5.854485266315529 0.6624494964709139 3.6897492879876945 -0.9384410839051257 -0.9357630228523304 0.6195931815574233
Ni 2.3281673933406495 1.7325593553704328 1.5154993828599428 -1.5387409644505756 -0.08607667718510982 1.6417213593695597
Ni 1.2216186036371834 2.7019214305904162 7.829648347559443 -0.35316724445486275 -0.33562255070288005 1.1828318955845178
Ni 6.681781209026625 1.0838407288929308 1.5526214321874465 0.9472476264531622 0.019757642242901455 -1.1118658487886013
Ni 1.8020910622324442 5.47551400517706 13.084777807521396 -1.156623612620266 1.4120735103272972 -1.7873152180836958
Ni 3.2665826980841266 1.1969963096012972 9.568073326406186 -0.621888148239187 0.6773946659469237 -1.4343768018101877
Ni 6.687833564077367 4.270851379178157 6.252223519859398 -0.1807452098042887 -1.2201216331739115 -0.9183520264647345
P 6.915261361542221 3.638732157483232 1.923541653583998 -1.401586494753044 -0.4453628900535169 -2.805242470440607
P 2.779053769376615 3.378706094210196 9.905784416391757 1.1302818894019437 1.2232591503616288 -2.6107107483751877
P 9.060610098365656 0.8847595351068149 8.792545193895766 0.5781979064400881 2.58916567521456 1.3157936673569404
P 2.6163064112369767 7.731259574825267 5.122763985827419 -0.29397890702016466 0.7050628212861535 -0.046549822735081126
P 8.985720415171903 6.0607908138281035 4.604729310964927 0.1255294838640935 0.10687972997339014 -0.18108330986999782
P 1.3120567400388117 2.1333378616839775 5.383072492336155 0.7662432494502158 2.9252183714763236 4.162512402664463
P 4.283763069953073 7.054230940304217 1.7663455717978767 -1.6651240545642163 0.17817719196679635 1.1591702903015197
P 6.010532808166439 2.602306234902547 4.400893499652903 0.23322142532613382 1.7288668441388162 1.1889194965394942
