# total energy = -340895.5552470231 ev
CRYSTAL
PRIMVEC
9.03303983699419 0.00000000000000 0.00000000000000

0.00000000000000 9.03303983699419 0.00000000000000

0.00000000000000 0.00000000000000 13.22076687510640

PRIMCOORD
 96 1
Ni 6.402049387308319 2.227529499393226 11.482288670058164 -0.04610785010165608 -0.5294708735480301 0.8374075282998674
Ni 4.489827168208607 0.3854063775049319 5.935211964413197 0.4003809260261879 -0.5434237361836963 0.2786607886058555
Ni 2.675369536704629 1.5649199125413833 4.624068976318902 -0.5982049456896343 -0.15187917750221583 1.16736028231148
Ni 3.363325832675351 4.277035854340667 4.799666749631965 0.32616911859946407 0.28567887179490153 -0.4161219909105285
Ni 5.178162851842547 4.606136586104077 2.647947938389525 -0.6258985549501608 -0.778610255656001 -0.0033084955479426893
Ni 7.214309341220914 6.228172408039143 2.519005814612817 0.9508258307227238 -0.8563778987547832 -0.1708757732093767
Ni 5.010545769016488 4.425249968104947 11.524475674904174 0.7491592973847356 -0.2178320873542571 -0.3345542573393658
Ni 5.527967310370203 7.847164095628855 12.423686764706797 -0.2466055599425237 0.2791061036733903 -0.15306779849367833
Ni 1.9965546768095683 6.376675579070638 0.36624278399256466 -0.4771610084007202 1.2862563200194557 -0.15085099334801763
Ni 2.9022794914680814 1.6557471257239673 0.48470929174462385 -1.0838624215971397 -0.2971233661864173 0.1434618999727981
Ni 0.3472363653692454 -0.009457592461677334 4.6068953614305155 0.2882399476538584 -0.05351339853710784 0.3970433770125227
Ni 8.598694924307585 2.4901289936180797 1.3318729106733813 0.34872437819216073 -0.09124510875992672 1.0540715634879525
Ni 6.856248684498443 0.7961423013535022 4.76390494585376 -1.087733474516772 -0.43710707780262786 0.7819028103643437
Ni 0.8783601244928918 7.418239243240807 2.4766065333361973 -0.5171401198968191 -0.04440603691920094 -0.14729567189659148
Ni 7.403352793979256 3.637541815826391 3.9590647306689783 1.1885407730438369 0.6639511388475082 -0.7968661165423954
Ni 7.688869109670466 4.029277644179363 12.858465026755942 -0.0011168872132625925 -0.12550711526659028 -1.3005444545073535
Ni 8.025512429500257 8.605903289908749 7.063023090688519 -0.5203365153469297 1.4783550071633507 -0.5319666433866903
Ni 6.860575510467061 0.9172238740698934 0.4935878663679119 -0.182027418950822 -0.7676079910082264 -1.4014669384560443
Ni 2.0570399099742214 6.3419345087672845 9.394544555178033 -0.5402389106978115 -0.5463095423719236 -0.4095021716011657
Ni 0.17691388718284906 5.131290409355781 1.4505029164422085 -0.3659895930305116 -0.8627305804456885 -0.23303527745725672
Ni 6.217161132766187 2.162898101051964 7.161239330264276 1.001000908915218 0.18897762501641002 -1.005353786567275
Ni 3.391418585832769 4.307422999556601 0.4750502624998563 -0.42296729596713606 -0.6754812509742948 -0.1342115850191237
Ni 6.1392872983706575 5.673896065115568 4.66941573841715 -1.198692002545226 -0.6244142570951505 1.1653378525648124
Ni 5.288844686066934 2.7550770781390517 9.385607265797342 0.46907925983385024 -0.3790600530612246 0.21725924556992263
P 0.21874860348444047 5.6430211357612095 12.327558060582707 0.22485634119089015 -0.309661350752428 -0.0467627100768356
P 3.9565887745144934 6.075008188573813 12.609729441709867 0.4010126460729158 0.9868194752085133 0.017068525446512536
P 2.4796326016023498 8.432803152045214 1.3418815185506863 -0.7132787814380426 0.8504918722876514 0.1456277972758653
P 6.371662242092385 7.84270177406623 5.729880134647313 -1.3079016662033733 0.10959327224981125 1.2187764319999268
P 4.764422539022866 1.2154948416769473 12.668350255500986 0.8360173328205601 -0.40560797875308213 0.7570168457559414
P 4.0421858577684135 6.083020494699417 8.164299663137502 -0.2615786363125882 1.1063354058886754 0.42122074558967454
P 4.56081782642859 1.001700860413357 3.81207549707452 1.361928256931474 0.06941798558250625 -0.9015670936969118
P 0.31878590384364947 5.609111105101099 3.6138833818088365 -0.43462287792819343 -0.6745381703347351 -0.3286782581745629
Ni 1.407257239355026 1.0742452014446184 2.667818818902608 -0.351854182070394 0.09787572670256693 -1.3594193744666911
Ni 1.8524686621426962 6.44804562495384 4.818704783893885 0.8370349754517971 0.06749582885912891 -0.2347270633373828
Ni 6.163179688113863 5.651268300916426 8.907782053532227 -1.187609005258187 -0.5080502417804089 1.895513923978826
Ni 8.436759623390213 2.2843202193612924 10.158030611767968 0.8305578523678858 0.1308940906101165 -0.36550596852587375
Ni 2.414115965380243 5.208324171068471 6.944656849676025 -0.5824183722793389 -0.12010908417947058 0.48109428201685533
Ni 0.6244612540111973 8.979934360644828 9.183395447909456 -0.19425584269621382 0.2821178939165206 -0.25075737732736814
Ni 1.2163439473993902 1.0389802148444385 11.330011495081598 1.0301507910062968 0.32028720589739035 -0.2732301045085875
Ni 4.080269152723936 6.86055744438786 1.6902352709185082 1.0690806353022748 0.2677351428322873 -1.4129523133878246
Ni 5.6593348052796335 7.965054295454405 7.993169631210824 -0.73571577028532 -0.49092309518181904 -0.6611278104661
Ni 5.34126341486838 2.8501136877754485 4.797525015942697 -0.6882827736143372 -0.10212987399323056 0.5705290770409206
Ni 0.79867245574559 7.179902493382778 6.826582375842626 0.1103484052482809 0.5182441515942752 0.36951688945747974
Ni 4.915003309162466 4.649431944909062 6.912345667025194 0.8836261929477751 -1.4258762205383442 -0.8672120132558097
Ni 8.02933340525125 7.335297873629421 9.125079047552871 0.6612059720022032 -0.7738025498547125 0.2230321434979578
Ni 4.696873468890657 0.3956091957336469 10.680620858381063 -0.3150043602318962 -0.3635334181805352 -1.194533243181846
Ni 8.004953231369619 7.0540090204712245 4.737331549957139 2.1568058822889307 0.3106196009006393 -0.4813501067814032
Ni 7.2754720523556005 6.105738589294564 7.017516443789342 0.48246210889865937 -0.09409723349674118 -1.236624258814625
Ni 2.521274914160452 5.176446574318462 2.489761348906341 -1.0141284474361114 -0.1175428661141911 1.3551256321873435
Ni 2.3297383424723845 5.083063010928948 11.573684061431615 -0.4677556559264202 -0.014099929736491846 -1.6733893798968016
Ni 1.0730257410985569 3.363614889942565 3.74431957033546 -0.4989662772012697 0.36897901467613875 0.1445060249665963
Ni 3.6567550910565605 2.6518655676642426 2.569878990338625 -0.16263718734966828 0.3811601301233629 0.34973636439644284
Ni 1.2059107866608638 3.340544506803001 8.264842813714337 0.2917117082525427 -0.32214174260762585 -0.842811215813942
Ni 3.559731212708064 2.31914258702105 7.15299035850114 0.13510041538198023 1.189244741089397 -0.3207510329076863
Ni 4.214987905325136 6.924321670927478 5.962301146871004 -0.10364656774807311 0.04598546559117887 -0.2924228753869545
Ni 0.6788103433752604 7.576985881179219 11.249471107396014 0.009488141996093337 -0.7870331896123736 0.2649786631330727
P 0.27617795935225903 5.57111814054158 8.116056908543348 0.41439626646867334 0.20914124444847854 -0.021209029977447343
P 8.494516878595528 1.6609049913358278 7.930635704664788 -0.3130932592521124 -0.7860631123896205 0.7384365116505929
P 1.9226373137590378 3.2006136903523386 10.290515493675974 -1.206080581699813 0.1157369232537039 0.17440461229824158
P 4.159163720594318 6.134779811610029 3.7345494347036072 -0.6340854616363273 0.2540568740142463 1.4213657342625003
P 6.9175830233855375 4.004563247832515 10.343147402211992 -0.3474843351374725 0.7794515206103737 -0.1805516057362439
P 6.217242430122591 7.741513664461922 10.147758239134328 0.3413432552367412 -0.05037382446686164 1.1094585248986895
P 2.235478574241627 8.566636666765568 5.6079322934332385 0.8513123113064177 -0.7129332251731657 0.6218493245814517
P 7.01768716823779 4.1837335883075575 1.6835454017904103 0.21441971923859848 -0.5974441562642099 -0.12580716300551237
Ni 5.294797459163634 3.1041046952610674 0.5559402288179789 0.9162462929756413 -0.6273687117377841 -0.6910073716343519
Ni 1.384972730660701 0.954882616164194 7.06185963518798 0.48969462209135667 0.1724955682009868 -0.2607139743194478
Ni 6.844794790285064 0.7583408372335143 9.203728820050083 0.03837242913061133 -0.5051209839487558 -0.36610452134182114
Ni 2.66706817331181 1.3785592725443774 9.275491803155905 0.9264165486404239 -0.1171453735654563 0.06567497360030625
Ni 6.171426853269079 2.0084692560425697 2.475932668582003 0.9550632658428391 0.33590048695461505 1.4852609902545646
Ni 4.347656157937031 6.540814941650523 10.481582347304817 -0.1741369604591517 0.9860160054706115 -0.3839577474731581
Ni 8.15652763586527 7.266854532576767 0.14175549044995456 0.0033360063517684484 -0.07476922259209058 0.2211585806243288
Ni 7.888535416998944 3.885056133918483 8.19600292222322 -1.2596490018445725 -0.48970079273894374 -0.6593396082174258
Ni 2.927671365784963 8.567720631517622 12.407874428886199 0.6846834862988531 -0.33027722723056663 0.007086217422820055
Ni 0.06958511725815204 4.622540586018505 10.149952364453279 0.7773334458261064 1.1710487869066606 1.3413087809089093
Ni 8.738128923580224 2.1333148963604707 5.799315303448098 -0.18433446981744384 1.376143114979275 -0.3191402367771407
Ni 3.4580282198465304 2.6262478673573497 11.551406779168973 0.6258183365315287 -0.10692498138902876 0.050727865372170694
Ni 1.09468697006045 3.2852171392502085 12.586513626632735 0.03026342687023175 0.25404299005717534 0.02272083863628345
Ni 2.937679973662268 8.166328483831764 8.066901816949546 0.8597619847356676 0.2764578674172658 -1.1283535620309795
Ni 5.881538546411248 7.913936324355426 3.477974074588297 -1.8697023622323607 0.5504580173226584 0.3292367017811943
Ni 3.046220977501346 8.081128854320264 3.4763472241562554 0.7014018274947984 1.2697786340794066 0.9355645336882791
Ni 3.6422480294582287 4.200643438439611 9.275173840161969 -1.120607085316341 1.0045654863380247 -0.209719999770084
Ni 7.1670033128333275 6.0402129200328565 11.360194493602563 0.17458561796079608 -0.17274625075921216 -0.35883035627791104
Ni 0.5174974188863587 0.09034394556395976 0.28384159014928584 0.5592205940066369 0.38377237093522937 0.6148242994138703
Ni 4.663225396378958 0.33889615990614447 1.624078192188729 -0.3360508964895503 -0.7478228379614992 -0.15997635268805355
Ni 5.876696837185404 5.658061146695968 0.3561266829440141 0.3133159167858798 0.2358328948070519 0.21771021706441215
Ni 7.783977983623666 9.07748215529015 11.316698601318446 0.007478567765232282 -0.7806956774301199 0.22979080237803004
Ni 0.08179598019004833 4.876450296147721 5.759877955856468 0.24427176960302444 -0.705031710937902 0.1134239588498111
Ni 7.905047813388577 8.818396513469875 2.4726274793921963 0.3689157655383711 0.42265310716082694 -0.07439949795749767
P 8.307785883974903 1.7123210527416228 3.540125000255274 1.3582289537030157 -0.44361556834510696 -0.8346559336966592
P 1.6847612489206318 3.2523820403025514 1.5626020345799063 0.6430642680961699 -0.2023568745367934 0.25482177720472887
P 4.816190888973078 0.9298972286293329 8.301900858675207 -1.2614845123914145 -0.29248201075966407 -0.1480376922689386
P 8.547305962020593 1.8063730610615698 12.400722068130559 -1.3763680865058878 -0.34732749784463407 0.6563375881663084
P 6.340525354589614 7.758667406663189 1.2254609942681303 -0.26393325258769385 0.524022191728633 0.592616138747947
P 1.88305453422984 3.2085446991215387 5.9992399557091485 -0.7558444227143951 -0.07080972372371032 -0.026481848340612457
P 7.008771558152141 3.9857925915427677 6.076568194512812 -0.9590790718704515 0.5619472489091806 0.16487764664441282
P 2.5606770328976403 8.322247780375234 10.242762329828164 -0.5467792829194905 0.48311414066036146 0.25622508531015875
