# total energy = -340869.82378909964 ev
CRYSTAL
PRIMVEC
9.22147538579186 0.00000000000000 0.00000000000000
0.00000000000000 9.22147538579186 0.00000000000000
0.00000000000000 0.00000000000000 13.49656134812291
PRIMCOORD
 96 1
Ni 6.834671679198994 2.7185831541047394 8.031250323331252 0.4070650229145828 -0.9572065374380869 -0.031072295924772293
Ni 5.146228760256544 7.224518771980555 7.650646837461515 1.5716618835483127 0.347893140540117 -0.21317504819821995
Ni 1.2360096728183672 2.5549480736475343 0.3873711266444654 0.12089789862935307 1.1325514021624108 0.6290494418743166
Ni 4.697437996903981 6.392631035817953 10.302087507242954 0.7822023438826335 0.5695093775271546 0.5651739833765944
Ni 3.6839794106877086 5.976179986591251 6.152772162092154 1.2272381896140347 -1.0147971913683618 0.40035495788425884
Ni 6.579365912079345 8.096695134038763 10.621685400648747 -1.7657500903184105 -0.7210304003590033 -0.1142873352913709
Ni 1.537579581873987 0.4793304454860199 10.589091173802649 0.7371370761128788 -0.7093735328463654 -0.7344248193880384
Ni 8.743286544097838 8.269404146260966 10.356289495178224 1.6807823299267632 -0.9918583231840015 -0.22149153848371533
Ni 7.069920737386865 6.249928704452766 9.128480480407227 -1.5545079974768452 -0.03127695573641066 -1.2084650227715898
Ni 1.2537886773335258 5.5659718761906705 3.938471843679642 -0.13382103444892435 0.16857952097603227 -0.2749416878830555
Ni 6.922616889811581 3.029245437876099 11.436486665096547 2.337442848650129 2.955141384288001 2.2565086348979073
Ni 6.868901795775898 9.188010636811821 2.8387316010076984 0.18028498233841853 -0.03604043856332503 -0.5837985404563172
Ni 7.805729921659717 5.704377000033002 11.284515828836037 -1.0908421953490826 0.4837761997243926 -0.14812536688673847
Ni 8.179485539919 3.400105512868909 0.691478785722166 0.11329591791237907 3.2459136114454097 -0.014579697586387793
Ni 0.4753347802077947 0.01862922454435872 12.734005422934112 0.029463042456123453 0.6890877860141358 0.2655880145822974
Ni 1.7175643381638561 8.079312652964555 3.238405097944526 -2.052942056323729 1.6328623663170327 1.1966400051122037
Ni 2.3566586887463634 2.2401453474346256 11.889134771596774 -1.003010226035763 -0.31234558245281047 0.22728706211956987
Ni 5.881558427810108 3.077160223903467 0.5434160107238555 -0.8894255732383715 0.420745862835785 -1.029722702329943
Ni 5.546975636926548 8.037198174945503 0.28624473913666637 0.14438106935295777 0.9863065401278368 -0.1883281643578692
Ni 6.907410676924913 5.970628658417949 13.463413981152 -1.2821898632595659 -1.4353646196447538 1.2232326679990677
Ni 6.791173979874304 9.169327927710311 6.132068105589335 -0.612244454501836 -0.9287675653711037 0.730370961033639
Ni 5.300494821736881 0.35425311999729686 8.143379775251649 1.056416152460729 2.0377890027323744 0.1654052370131087
Ni 8.885555466120593 0.7648937175927745 6.574040510052631 0.27271896920012384 0.6515620211545359 1.617000459584112
Ni 8.898032122297465 1.2164601450319894 9.463640535649008 -1.0438285456037053 0.6408659748932705 0.056020224119361584
P 6.710762714639769 0.7520961540729936 0.6845553020136695 0.5621033148710707 0.5042043856717575 0.6378881232118692
P 4.7750920410026065 9.182348650934069 10.894950913200825 -1.3317255080958483 -0.18946870572021562 -0.14132042814976306
P 4.565995086966702 8.913763959280276 3.1995485671740256 -0.2824127994491201 0.9495796170204484 0.7249608457616612
P 7.816998564562996 4.148271474138811 9.573704377086315 -1.0182596959956658 -0.03472403374474665 -0.7214723729924284
P 3.3768950593602707 7.97913976601011 0.9167022558867578 0.12983145367355706 0.019411571757392374 -0.24826777813629497
P 3.423057765067161 5.1752948506257255 4.210320015467207 -0.19267332870044238 -0.01768070510921471 -1.5788314047135583
P 5.564653205212626 4.982934874388064 12.141560671958082 0.2707291924636047 -0.042479252210133295 -1.1451449225567052
P 4.443875088629437 2.5272283186825097 8.019211687234499 0.5620776038394577 -0.07351195314622179 -0.8405633003200297
Ni 2.1091358468397816 6.528555582785504 1.88494333762166 -0.2926586455468444 -2.423212793228098 -1.9752960264044757
Ni 1.2094057163732257 7.107959323291962 5.756877625762335 -0.1868364103036911 0.04246408270148171 0.3745806771336323
Ni 6.723838766715751 2.4397810677399527 2.717060688520998 -0.5749994541074485 1.581496353140231 -0.9928942206476836
Ni 2.3156784521979374 3.522963229235849 7.439007522665845 1.5844322958401036 -0.2825529245714102 -0.10952873756046297
Ni 0.06344928343724117 5.72452592371849 13.221542059352727 -0.5043036302537831 -0.806940984279894 1.57416382403456
Ni 2.4757540431619627 7.407279192357075 10.721979088930551 -0.2276164204345306 -0.8449141210895577 0.833867376357093
Ni 9.091185145417027 2.871963953949467 5.8148179998129805 0.3823307533926964 1.735132879653186 2.124906976697805
Ni 5.681203432425848 7.764491483800905 4.547693224798012 0.8335454742413 -0.5192918761324993 0.5557740302189331
Ni 8.052275287176979 5.562836574564553 4.619603211888084 0.07581180492399202 0.6749364342144182 -0.11472339438752499
Ni 4.491439458592709 6.071613035205036 1.642463720595441 -1.537459783745307 -1.3051202468034941 -0.579057683337222
Ni 1.6000550775120577 1.0633928753498736 7.806897360441677 1.0384138023460374 -0.2511199028731095 0.7083538333325995
Ni 2.049648109221893 0.5228133904501171 1.4916400358710733 -0.27968845853942154 -0.0026528642418147856 -0.7244648799618492
Ni 7.573514728868883 0.5921588852395328 11.944726435870443 -0.9515966474504772 0.31243299996029417 0.008752549381649443
Ni 7.9998235352671125 7.824062214697132 0.9856143413337397 1.2004748054772616 1.8192382920445378 0.22350522647963442
Ni 5.686800867976004 1.3373813515710329 4.512008881555112 -1.6846035034450664 -0.7767171523983462 0.3530242911190952
Ni 2.695252821416279 4.807477862505323 0.06336536801136568 -0.4749791702580529 -1.068253254304973 0.39435323177486925
Ni 5.278280287568304 4.094150635186805 6.629875621276094 0.028609436206576532 0.8831934762857305 2.2129760017225952
Ni 3.4487026880737255 8.649753119410466 9.051347449667059 -1.0409730784327813 -0.09300965685951723 -0.19431909183398147
Ni 7.701047733248886 4.858657050814001 7.019507853681511 0.7296767631800918 -0.29940419180079403 0.297128765503056
Ni 4.507364946558311 0.950024057139624 1.343342113250804 0.16719729591652494 -0.6144571458824385 1.1149131202553573
Ni 4.358475005219227 3.2872807617055444 11.776033376172283 1.1681470398788334 0.9963919493882968 1.4427323728637347
Ni 2.049777209877086 5.950903922599523 7.68585996331296 -0.7174018024674805 0.8381775736966726 2.364577242973076
Ni 5.58979094707379 5.45734289632108 4.025969812736738 0.05215379918541986 -0.878479615749829 -0.0783080889832845
Ni 0.07117964624069426 5.915714772584043 9.28427085176638 1.3358444153602285 -0.457315948650335 0.03198658020892556
P 0.792220637706997 0.9100498835541668 3.3061174694457494 -0.00153109193254575 0.7878785683318044 -0.5741250219222951
P 0.46604967665680225 4.767594981526038 1.912233371834399 0.708338920934264 -0.4925387764083711 -0.5771866915667543
P 6.886321162751591 3.1604854753552165 5.460196020800847 0.016794445849519467 0.23249431735212214 -0.16508384911794796
P 6.395425142855347 4.667458980473078 1.8769123547211144 -0.4857019559921957 0.1433539136400241 0.9082712451899647
P 3.3898420107810607 2.5216954334599504 0.31414154642881276 0.8910296845006976 0.6436689915597044 0.3436413072422985
P 6.783197403678447 6.616482350447351 6.161477234842314 0.06756833396827719 0.8331346119561264 0.09511487612797813
P 8.58000187970473 7.549870866017811 2.9708356907290727 0.28111902033836106 -0.9196470911270742 1.5750421128744552
P 1.6606125062729742 5.717434609158244 11.813877388947052 1.0954568113029586 -1.2521285250978114 -1.2838261133114084
Ni 8.749252838662834 8.480732697336636 4.920468600225364 -0.5993519148098839 -1.220526581921814 -1.221644240466025
Ni 1.6832604497839856 7.359382849280449 13.017487408049647 0.39629801420606586 0.08306462983166339 1.8821560146146812
Ni 9.02271569078785 3.4877187503681433 3.6822669827113264 -0.9183527977956828 0.6447323998272122 -1.9011011882586162
Ni 1.6188945516948736 0.5172666730145009 5.1677793481984144 0.2377943894087969 -0.13024617261347246 0.9459571897765128
Ni 3.408349511850523 1.6771558330884282 6.1021868367973635 0.9942641044120166 -0.1817793074957579 0.8407761876617842
Ni 4.517905092907287 3.3715097177436464 4.732218635560527 -0.3627903693669236 -0.757491985620147 -0.9761041456735381
Ni 1.8441198661545397 2.9975420055508315 2.6985292116155715 -1.2106921123298957 0.6975019782197601 -2.7239812123662697
Ni 0.2082384346788705 3.2296373191618426 8.275578846169344 -1.1584843199780888 0.953981602742886 -0.07437327270525255
Ni 8.640559308465646 7.78362604519559 7.674468674787246 -0.32553919832494904 -0.3146297505012968 -0.14009838281720388
Ni 4.211853546821393 3.3616611820474898 2.3641253173542074 0.33147793240688717 1.0016205447770878 -0.9220852682549217
Ni 5.399100057878267 4.044317782282284 9.597337174166942 -0.1878962190267732 0.7914665427933788 -0.5204229044131489
Ni 6.376060044576387 6.885352907837642 2.2781387481104063 1.942469466792758 -0.14458830026775746 1.3737985260064987
Ni 5.264577175167098 1.321289877048755 12.654051542877976 -0.34929130643922424 -1.3090396364625585 -1.4594671691199124
Ni 7.962614882145398 1.4795211729385933 4.373304059763225 1.419949313530948 -0.927010730580997 0.23880354739960163
Ni 0.33912621179881847 4.161882371786308 11.105172887231985 -0.06318871684334279 -1.184020002355348 0.7402941336846218
Ni 8.749796905709717 1.4930951846846066 1.5977902831609565 -0.30021434640691524 -2.5356070252618137 0.8558672776669518
Ni 4.100633332372571 6.47641736103825 12.648936390489718 -0.27231196356969234 0.46133663977395384 -0.10167838827810874
Ni 2.9025792521809644 4.452755369411646 10.35472368866024 -1.1471028176140246 0.8575696050700392 -0.5711682532868163
Ni 3.6202129084977073 2.0167182206722916 9.908770373279312 -1.1960000575353598 -0.8160552878763364 -1.1115483175481826
Ni 3.248559786622997 1.5526105867286077 3.5299715505177574 1.0249448213253252 -2.155128494586508 0.9949459609703898
Ni 3.2921404792260263 7.702301853899333 4.791724816129158 0.6986823716811065 1.3985651914282171 -0.04537020060468316
Ni 5.914276222426178 1.7218062168344852 10.214211457695649 -0.412721964090044 -2.852896581983461 -1.890362975905506
Ni 3.025077331008437 9.141479072090094 12.529411315321834 1.3996437692043768 1.0192212885779868 -0.3614899053879452
Ni 2.0213474013084998 3.4029180628570432 4.833793186771354 0.5533800760654598 -0.07412053326449815 1.8875879842635297
P 4.093947762728646 5.625146083645947 8.450291684989649 -0.5091874407086456 -2.1027972892829596 -0.2719476382517381
P 1.3403322236897317 2.6511557261924774 9.999507846634216 1.6839980086505837 -0.9929669828671479 -1.2138216590978128
P 8.913680966001937 2.160923652522941 12.49673593949247 -0.34182585130011456 0.6558177111070963 -0.24420055004545688
P 7.895169011282396 7.617842360976958 12.468798557708693 0.8790624848364924 0.5270859182556212 -2.746346210325031
P 1.2494914698106712 7.754476961548071 8.973229565357276 0.3259783427448967 1.2191687823423392 -0.6418725617809139
P 7.441481644507866 0.4037881192473373 8.227463031978889 -0.40272011568232585 -0.5061165150928058 -0.3843125597094155
P 3.8394995928184925 8.737919645431957 6.780078700707998 -1.413034845799302 0.5438749647885021 -0.9757048533525905
P 0.9680889273912817 4.902874025217625 6.220308403413792 -1.3459277677381596 -0.8260777051093451 -0.6874055132157064
