# total energy = -340870.237807584 ev
CRYSTAL
PRIMVEC
9.23590139288726 0.00000000000000 0.00000000000000
0.00000000000000 9.23590139288726 0.00000000000000
0.00000000000000 0.00000000000000 13.51767526771168
PRIMCOORD
 96 1
Ni 2.6093637706342854 8.150590512476995 12.187400691710154 -0.5670984540928169 0.0866798579867475 -0.03459393592478559
Ni 8.76452857765154 6.52440690392296 10.65902435402387 1.3891824646617366 0.23714981384626252 -0.14605254351810976
Ni 6.263566580232749 1.9747280507118565 1.3756394676005206 -1.956236181559547 -1.4618014736800438 0.33291183663993634
Ni 2.105896320559898 7.707451969503538 7.335514836607008 -0.47371418750270033 -0.27169541303161593 -1.1878398903220704
Ni 5.649065125080686 0.33669108646686513 9.987534617260527 -1.6889306700655105 -0.9586324712513361 -2.0113308085408454
Ni 6.062778086605342 1.1950979167389837 11.999167482270288 1.3723347969767785 -1.4911027937473225 3.156479330641977
Ni 2.291362453979031 6.7271811163235915 9.461426278810878 0.4746930064762018 0.3251846431990077 0.8902982056513119
Ni 4.122777024671731 7.434826635791772 1.2247959572752727 -3.115509830208151 2.0998932282622866 0.29452063845624765
Ni 3.9534183030688905 5.90993315647471 3.233481646189516 0.40436896413965845 1.1831172880354206 0.9912787965314477
Ni 5.908483119975193 1.6257218134904936 5.073831951361725 -0.2505043807762976 0.34791268092414274 -0.2593158084203405
Ni 0.6266928448295324 4.558877810876831 12.82336638141558 -0.34986466244419095 -0.32544098218418793 -0.8912911656922005
Ni 3.358496958610944 4.41972972233081 8.295958980528907 -0.7514336952412091 0.5848334094787347 -1.6832840133026947
Ni 4.218322423318259 4.120089377401926 1.7122437365954404 0.25867406107128355 0.4618719434521336 0.4746901782627245
Ni 4.644550031064863 2.8003345012108207 13.201104583900305 -1.1624052522990496 -0.14525370176589822 -0.7039135381730587
Ni 7.444210311482915 3.478360485303514 4.42042888005701 0.2709605917481204 -0.8709920491235322 0.03980530492239596
Ni 7.690541034276684 8.090372436191315 11.851905654457859 -1.407012550864622 0.6572130487927262 0.7298130316476399
Ni 4.12242606042344 2.2307472339387058 6.7057944633409035 -0.7052412558455466 0.12783987716482498 -0.15244482019769875
Ni 8.257117397734516 7.445374035043037 3.4061163419731124 0.8925702895149402 -2.3582816397723514 0.5542023148564391
Ni 6.9743430702317335 8.750240638385597 5.0127189162429024 -0.08514439517882756 0.6884069578970272 -0.9939614855699332
Ni 5.645592426202861 4.733768837340887 12.284106119556297 -0.9716646218449457 0.7592925291639956 -1.7018067546972304
Ni 0.5890796369041592 0.6350439467585987 7.666522149431817 -1.1596860535956737 -1.2680950757293965 1.0714432219971806
Ni 4.997167505683112 0.4281579111122036 3.21955852502377 0.11444262992231259 -1.6498604435369262 -0.4661710850481197
Ni 1.7111539002454847 2.2253165239914696 11.994368507969975 -1.034224189744722 0.5081134909181765 -0.15748649638666426
Ni 4.116348837387247 5.436223780294872 10.339710615798033 0.0834909187358046 -0.2295861425663917 0.8738662853475337
P 2.526480792630038 -0.15282461114783663 2.1539738046250987 0.39763601629119905 -0.3782028472672519 1.774926614611356
P 5.72153000645146 7.380990567284221 2.7293270450605807 0.11734334850887533 -0.9094878912058852 0.5942390190633507
P 5.456866019635132 3.0358407477152016 3.3124522964154486 -0.4833573670194192 -0.7704030372548604 0.5224435343876035
P 0.8626987535926639 7.613809166518796 5.106882624059318 -0.9793010553442811 2.2022331613837944 0.7601466496341748
P 7.205619273954084 5.182375033866664 6.478778780874779 -0.2653769270127559 0.1749630559048729 0.10715638067354448
P 3.612022448494675 3.4399760796220287 11.226537237870561 -0.5838029113316913 0.20823518769444135 1.3267907897983924
P 7.749179771445057 -0.022175398951214478 6.8585710478021324 0.6026930633679749 0.0538772096344298 0.9558006582294959
P 6.6323284102723745 4.583094344008894 10.380722635391065 1.9769754709894272 1.843884372727992 -0.26032136686671936
Ni 8.985700705383623 3.3938335168730625 7.904690182682445 0.7999406417026611 -0.3630559643234844 0.01940745799233432
Ni 1.2757550425369661 5.42570408874742 7.738950087197508 -1.2908771066209188 -0.46354213206570494 -0.22510188154279298
Ni 8.58436385156185 1.778548271818584 5.857505562910958 -1.1242809346235023 -0.2881360750861425 1.1382217130743109
Ni 8.069499299319284 0.835980214806338 0.2887078085946267 1.1800203942776517 0.8042032736337569 -0.4234264949917418
Ni 7.234573824438073 1.4287108034828482 8.376538524756214 4.068971041671192 -1.2629778091074892 0.4791618408808328
Ni 6.095039089744281 6.791629235391302 10.230433279142066 -0.5252655772174308 -1.3129451421645517 0.5736200572614185
Ni 9.36714342786807 5.512964883954032 1.7253153076640175 -0.5763156018157106 -0.31640304035163574 0.9013711756360219
Ni 7.396072794059454 8.096856038883423 9.041675808625493 2.879386400743873 1.28835202620622 0.07589716554894671
Ni 6.409235215075962 5.066168924077333 2.989988192266139 0.33273340208054303 0.6792669432689721 -1.3487824635781351
Ni 0.41402144062710206 0.12805946548028704 11.690761343445278 -0.32252303720644454 0.5748744984938099 0.03016109696441257
Ni 1.878582318482726 0.10276787344030133 9.87939329646087 -0.48048595900889507 0.0017622341067453523 -0.6931295601836772
Ni 3.6633832954616485 1.2473361743266844 11.315577791252057 0.6225964871601214 -1.4044581598738846 0.9780782386807737
Ni 1.1414927457632031 2.17434358487787 4.478635377045908 0.648364854373477 0.696984158043077 1.2123599869506216
Ni 2.0177211711274765 5.945048053106329 5.368626218893814 1.5103307887389987 -1.834988098679627 0.48995404640033036
Ni 5.688779500545168 6.096784675084464 0.6699076268756518 0.29649961655948937 -0.4081034914814262 0.9957936536826657
Ni 2.134509142696867 0.4022853808822839 5.966039409514626 -0.6726589510341513 1.6704621789476777 0.5458572853258535
Ni 2.347701451730971 3.40737334813607 0.479174258961776 -0.5092347490068133 0.06117862839184947 0.9167422587754536
Ni 6.275453185168281 8.477809258600518 0.40661609498816664 -1.068627092704624 -0.35055423231204785 -1.77777745379659
Ni 1.711865064643337 6.956065221616802 3.213381554253852 -0.9670127248952315 1.4504999326242956 -0.09424095816345705
Ni 7.962806167838889 5.3697068193424995 8.71784571467823 0.05264590833048998 0.682815836962495 -0.9431500593450208
Ni 1.3768604537485216 0.118114246991879 0.4095669654441904 -0.7715916582463228 0.4450425305996206 -0.22746883911307275
Ni 0.958381767168127 6.724853669203347 13.369062219280364 -0.1617398723463795 1.7707205469498086 0.03232159495084111
Ni 5.658559631587078 4.719296180049527 8.384270821300136 0.179854065448587 0.04555917668703767 -0.06556158795089355
Ni 3.3912474645172357 2.2415440025242828 9.115279476622957 0.5024285247182573 -0.3768072524713059 1.3558000325465487
P 2.3115983136633753 5.803997368898521 1.6775435319308807 1.5361734608337156 -1.7659357239666553 -3.1248578470819535
P 0.2259831087040486 2.652957224632508 0.12327988657264295 0.1469925388338759 -1.4632340923615124 0.4029576856144286
P 8.7847274937308 5.0998337842094354 3.978954646492553 0.08973715675583255 1.1742050731474551 -2.156155650299442
P 8.485401169445124 7.964773414809572 0.6574982699281916 0.097264061260497 -0.5460778859770918 -0.13815848548201365
P 7.644306112515011 0.7662925689476964 10.521117570608645 2.001700227429617 -0.2410167530008365 0.9246028924704528
P 1.6794839947878777 5.964157132835635 11.403821286353883 0.004278572770695857 0.6005875869891979 0.9834582720457643
P 1.7404132354714104 2.3769330792530843 7.886454819213357 -0.9252050448308261 0.8011840271914589 -0.42621202815667886
P 0.356213010982976 7.404422048808266 8.643282436538728 -0.377073361648499 -0.07113059739823878 0.530454320507222
Ni 6.695852939213005 3.187004743814547 6.767867108601764 -0.26991929496779965 -0.3853296881200203 0.37780226939472356
Ni 3.3747059653412155 1.6380147980819415 4.228747908672749 -0.12795814791024415 1.0232512356729861 1.468975879941296
Ni 4.355549444399951 6.468308039604062 6.102175670656235 -1.1872945593415618 0.8127179959729873 1.3524120899109224
Ni 8.795986057379917 4.14899774837956 10.639775812185375 -0.8035224455166484 -0.5865899871585253 0.34378606035027887
Ni 7.523842252239837 3.132088074858311 12.631429575566118 0.14653719646401217 0.04659790236419717 0.16469895497470344
Ni 0.849231885949696 2.17833349422686 2.2692664837787455 1.1492016091245822 -0.003934559167715805 -1.9240925069474668
Ni 6.298949318001221 6.574179175871355 4.887734082295668 0.4988775741422054 -0.48171443209935744 -0.29345645885779137
Ni 4.934086300003481 7.626046735702619 12.191942907955138 0.4050477353742379 -0.32955808967635497 -0.5392150974189874
Ni 2.003220806132305 4.245152716509962 3.2251554811938807 -0.339799307788389 -0.3766583855982674 0.591610066080936
Ni 0.26292209583665266 2.001853892744225 9.843098051646841 -0.20722500126237217 -0.5097427989914834 0.3850661500459885
Ni 3.0753796410555387 8.268939351361153 4.564797100001293 1.6267130588861853 -1.1887066091977398 -1.2831915650512031
Ni 6.01041052639985 7.862624346754415 7.259924526246192 -1.5627257574009474 0.5897704417690359 -1.205376356543937
Ni 0.4496036738630241 4.159203419283805 5.68675037303597 -0.12801111263536663 0.03352769944380032 0.0022849393794347746
Ni 0.48006459984428207 0.18365959113056243 3.3330261900863047 3.019592769893851 -3.625773277589794 -0.5406402599012883
Ni 7.601312992099391 5.6360240324863025 13.108576554198951 2.015333759052652 0.9276072265144154 -0.35962328449285164
Ni 7.014528476661027 9.028111964019182 2.3247160642383067 2.163557084969835 1.8297124521029842 2.0678688528368903
Ni 8.332066736547137 7.040499831034545 6.846540362806775 0.878459561145171 0.21437806736738563 -0.8833354011802336
Ni 4.988938317650821 4.582872682378395 5.000485041419587 -0.2925177490936059 -2.10858638516091 0.3792202327881727
Ni 3.3431838343039413 5.470156481563827 13.012059538738734 -0.5679556598867895 0.43174092839470807 -0.019495903941082554
Ni 8.112603250550153 3.23049660289879 1.8498531239897449 -0.2327501421166701 1.2644834471187383 0.2967533844415083
Ni 5.551423176845684 2.833897766428944 10.570226704845796 -0.43607143744926186 0.009278339978132408 -0.9898276659072179
Ni 3.747032853271373 -0.04040060292890358 8.239631065858491 0.9763977656545573 -0.3020747966544217 -0.5959760563591155
Ni 1.879247303374224 4.154733243068733 10.229608513158583 -0.3758433458961398 -0.24736814914016106 -0.881418643773495
Ni 3.5511486232187672 1.8369653473564564 1.9535473583275083 -0.1532655163267812 -0.45129673903944856 -1.2149987101250495
P 3.7305190617991655 8.400236923826986 10.357242203590285 1.1235800519017358 -0.2334062876434303 0.08990145024783872
P 6.204918607163107 3.9962913567679896 0.7676622531061574 1.2733200715737618 0.939511434151169 0.005456652239197054
P 4.466121654414088 6.73104172305479 8.378011651008908 -0.7351359865224502 -0.6265459587261726 -0.022857364214147732
P 4.451362684183334 0.011280729812167167 5.959321214930238 0.42313081812819386 0.4792376884240908 -0.084039592150423
P 8.21885305876955 1.3176213829975474 3.803536250065934 -2.952991427824534 1.96211680871004 -0.16488587417452893
P 2.8198407246947714 3.603959506685258 5.499382567545178 -0.33232562511916314 0.6706786873793288 -0.9188947863420819
P 4.1431606587764085 0.7084693618615371 13.57512533612353 0.5856206812667204 -1.087019993389515 -0.5515489363939919
P 5.4817844812637775 2.23239122436491 8.44631668244731 -3.1219399021042102 1.5694975289071422 -0.7961593202833579
