# total energy = -340887.16667847865 ev
CRYSTAL
PRIMVEC
9.10465224719611 0.00000000000000 0.00000000000000

0.00000000000000 9.10465224719611 0.00000000000000

0.00000000000000 0.00000000000000 13.32557887612423

PRIMCOORD
 96 1
Ni 5.272941050766787 3.4138075118399933 9.667294100073267 0.3263724928595218 -0.9140685685980321 -0.0032467890720718276
Ni 4.432536139257072 0.4463710468025928 6.891909345370124 -0.8088492570462005 0.30702211335736806 -0.726534103786052
Ni 3.691608656523211 3.0846743386524498 3.0828861849812457 -0.9096046192894075 -2.0440838346021506 0.5879022782120455
Ni 4.742422077918516 5.062987773485881 3.0869231877195955 1.9853130443208453 0.6299722107989021 0.771100320432201
Ni 4.969091496443471 4.896673093690118 12.04932146571985 -0.4781123165703958 0.23835488989795728 0.30399026850957966
Ni 5.804525267910021 5.91491917454623 5.252542988216043 -0.05484960085002811 0.48187666870883467 -0.0656556903265966
Ni 3.8023030166785126 2.902808913080633 7.31638188295693 -0.37920069240414694 0.06198775455670615 0.24260209521008538
Ni 5.417176949235309 8.089629059693037 13.016785439058097 -0.32550680242511687 -0.341356882083496 0.06449406591832763
Ni 2.4284201203900726 5.35864314092486 11.967555316661887 -0.13589282937628855 0.63770608910805 -0.039801448267654034
Ni 8.04819378801457 7.552017562863767 9.682445151622405 0.2545844643829422 0.9964878515362128 0.655445158259026
Ni 7.818128334258665 9.32525781393852 7.479074732149817 0.11699265003767595 -0.6506335958029956 -0.5922533560918897
Ni 8.588272645561235 2.7828824357023114 1.4873077416066445 0.033456994106864965 -1.9677637225831723 0.9905601731978682
Ni 1.283655794039794 1.2261963346764027 3.154257552743822 1.1769191296445087 -0.08898742307400158 -1.2620360140195104
Ni 1.5641154971343745 6.963938979479076 0.9842875494770007 0.09100779593814004 -1.4786170025754857 -0.8116358186524022
Ni 7.555404493442627 4.260166865818993 4.435765559354711 0.2501703944756466 -0.6010976938563971 -0.3168036182241641
Ni 7.627750058979231 4.229302095221323 13.18865850895707 -0.9784387073439859 0.07945994319954057 -0.5438813925464053
Ni 4.0981313725072726 0.5765721240686638 11.276997500706045 0.4808662251664492 -0.2871063482700475 -2.080226603071295
Ni 0.6321460099834478 0.22553497887407775 0.9166864181464283 -0.8325810534455016 -0.039039630400965024 -0.48286500076403294
Ni 3.2097631537679034 4.4304693832318005 9.804707882727973 -0.14305103768762462 1.9669900776419413 -0.2332926448837014
Ni -0.047619151380511454 5.040471968858141 1.9633371926044911 0.30851823828692027 0.703330411976079 0.1672075803291701
Ni 6.144119686353235 2.178260699463352 7.140617484753107 0.28549915168392764 -0.13199657964567588 2.185857548239248
Ni 3.615812427843092 4.361264922667527 1.1540947738159106 -1.7498593872300832 0.9177509025456257 -1.5653853065109815
Ni 0.4401644054703121 0.16359512021537304 5.32727306213599 -0.7019900958981007 -0.22017821898893047 0.10747828278933748
Ni 6.57545257929265 0.8617817241605317 0.6439256088622872 1.5688467826970205 0.26857615067634394 0.9138032307517876
P -0.1469190394405375 6.014496754495114 13.060413110960727 0.8502116220430713 -0.6316485700600606 0.4356909141813916
P 3.7509436742179054 6.328051867950323 13.455236349004373 0.7427122562078111 -0.38934780814047787 -0.38393846419944844
P 2.5615847619126457 8.839114915394983 1.8456859677843873 -0.8580992523212642 -0.37914772767902444 1.0266052397468837
P 6.111024275992606 8.258065123426634 6.44575589975257 0.608947528918119 0.08460060686021559 -1.614785454210664
P 4.60907534335407 1.3506569287973909 -0.20773538403087868 1.1742906908827262 -0.6983321874305392 0.649224888380927
P 3.958120032610231 6.2948198878082895 8.785034192423566 -0.12873102152052668 0.03445278236123099 0.4673851599608789
P 4.781262523750275 1.4686076966713777 4.125332431102434 -1.1415582336467114 -0.08951347078080069 1.794297048718168
P 9.186685009072285 5.696835442945643 4.15996561720169 0.5398807560274445 0.8738614002515273 -0.015378796448915452
Ni 2.794381611296665 1.6745822409873332 5.356456203491951 0.5363801990733538 0.2801833958979691 -0.01056106334529794
Ni 1.78094278674603 6.843138455499758 5.355522976652346 -1.5260577125559527 -2.752081827257228 -0.32433077983914466
Ni 6.932227476236691 0.9141799074250304 9.791528898822332 -0.9389306219470345 0.5406986239430495 -1.0949446475532303
Ni 8.55236389770365 2.453749262514768 10.871686613915658 1.4207396706427273 0.6445449664067545 -0.949520481647739
Ni 3.0719915582859145 4.354354491728402 5.224732828395813 0.5575028399845818 0.4343079177909359 0.9094110152213628
Ni 1.7506607138823571 6.410576434527693 9.553866523359435 -0.5435684892916768 0.6862032653774892 0.7344453882133287
Ni 1.4487595551070942 0.9711386109232675 11.992887190182211 0.00024734012411570304 1.0120648800388634 -1.0520568470507687
Ni 4.304697719209319 7.285925000773059 2.1597300010570284 0.09743349695882575 0.6906204206085783 -1.3703745879266143
Ni 5.548529764991233 7.854146337941373 8.44628468569465 -0.6929146159593937 1.321139505049886 1.0152422493255806
Ni 6.732343944171426 1.1622088397618233 5.150589094070702 0.2300635964234425 -0.9628711919230322 1.1185859411212542
Ni 7.652223363807118 7.865736560056664 4.834893476908262 1.6251845380568009 -0.7795430518829155 0.844530512497894
Ni 5.095700788458574 4.913006839546229 7.556189314453104 0.7286004993967775 -0.216320278695421 -0.6207897729686856
Ni 0.38972281194075115 7.501322860006002 7.59639272670329 1.0742981749474725 -0.40373955808577566 -0.718242553201221
Ni 6.481893174377707 2.1836870721112023 11.899475280631185 -1.480257623502702 0.9839465245360924 0.11491494157304079
Ni 0.8530093918682441 7.466770705310379 3.0923204254807457 -1.022519242602968 0.5065080941042697 0.6601903862534952
Ni 7.3259217374207175 6.637336899573583 7.232737444172035 -0.34005436122198857 -1.1795614523633622 -0.3931615254596132
Ni 2.371197381981118 5.2540944209328115 3.258290949427367 -1.9302934935518565 0.5700431385434377 -1.2040882338601326
Ni 1.7866969268692532 1.4673694639866335 7.892153708106558 -0.7776203809389058 0.10571193491753407 -2.5485394170527655
Ni 1.0601912130518254 3.142416042230746 4.4645216925274775 0.5203797098800392 2.653244250862024 0.07173223553797968
Ni 0.5625045261186755 7.731615930064251 11.870958599808482 0.34473762563027077 -0.6969911000216125 -0.2157654346332155
Ni 2.491661033832968 5.338530964449859 7.42537185224029 -1.3813259447317952 -0.9959988277149363 0.4792407737478844
Ni 6.521307213291369 2.1757569201375824 3.076143279640646 0.6283097354948147 0.919280708926591 -1.2172386551991616
Ni 3.8602905458633385 6.856658863858915 6.465290841284831 1.4181901647479962 1.751930410826499 -0.1266859660660399
Ni 7.775837225283391 7.674593494001358 0.44726876549903244 0.6189617186210113 0.05755800092012668 1.3891822075514204
P 8.680002015405343 5.742804831366774 8.793829286346089 0.7584846885507195 -0.742388040099173 -0.3720514829538754
P 8.73283631150513 1.7753161117521183 8.64828687030212 0.3342536953798115 -1.2841148481964206 0.42423819225975967
P 1.593086500096553 3.388451055759017 10.92544230080733 0.4316331991722502 0.0027276833438082053 0.6215068536403684
P 3.8170161344619444 6.767988657118293 4.138205498697728 -0.024928902031195778 -1.6528102701938696 1.9711904888765341
P 6.736550293438719 4.35982638763672 10.992150265767508 0.46697686877886674 -0.7143889837830858 0.21602100228744733
P 6.162028537021558 8.257054507044232 10.762923350469432 -0.7350524256697083 -1.10370979534037 0.11645683213886396
P 2.0098883682944106 8.558946561167401 6.518593116502234 1.8782065430486299 1.2833761702581832 1.8682982827959824
P 6.797296532207938 4.164294879272248 2.229569055872234 0.3259210071444 0.609877496931556 -0.3866334945331083
Ni 2.693702368444442 1.6185704213068417 0.7301166188377926 -0.03569873895319013 0.6343153182589463 0.13837137282376813
Ni 0.6714598977240789 3.684497923238025 8.831087343643961 2.622434464570019 1.1424951436386839 -0.178294434270951
Ni 0.8016901098768497 -0.047240397853413205 9.328305140994285 -0.636797975471484 0.20900009088492394 1.3405955568919685
Ni 3.024337809227447 2.245799008694478 9.57404152193388 -0.21362627680302565 -1.5563519926641196 1.3009658583154886
Ni 5.429741369124625 3.035090403350116 0.7696162414811352 0.6750714171303858 0.6093540203279184 0.42613026707615004
Ni 4.072920590859795 7.226972378466299 10.981170055342496 1.3195783312103533 -1.5988829240477949 -0.6516435251247487
Ni 6.974391120082652 6.479607906702186 11.87193097665209 0.29718867220671397 -0.4918114113240433 -0.3106944200026327
Ni 7.539790015101918 3.5561496426730237 8.869238567312225 -1.7761509739367602 1.0961844334976025 -0.24881773710249408
Ni 2.9592941746699974 8.302541348904397 12.995837455520894 0.10802849886585267 0.7584018990289262 -0.14145052596972413
Ni 8.919563621294987 4.960068786218606 11.059551094752019 0.5048368770494338 0.7187596020469557 -0.8877008772377808
Ni 8.609349915158168 2.4794881139836806 6.459240799968561 0.5283871535655481 0.034586993946250116 0.2036953908425589
Ni 3.693638993940108 2.9001503546692704 11.915332853182798 -0.8378495009332924 0.5534093866414985 -0.06984710270012486
Ni 0.9353118049345267 3.8735833379201523 13.050138511072978 0.5192499671509702 -1.0537607171157528 0.7198595199793538
Ni 3.1064435618085056 8.473208052400953 8.655495933829918 0.006052891062299253 -0.1516547201962356 -0.17360294233255263
Ni 5.5322870656560585 8.300957139440092 4.227446567124625 -2.1964949733484365 0.43256753806106146 -0.4599261325796724
Ni 2.6960058454241502 8.626730696005056 4.337622872575795 1.4439621315057778 1.0508432863586419 -1.4263603592636145
Ni 5.2496513507110825 3.4764202042884227 5.303993377197588 0.4594689904375958 -0.6340762056649466 -0.5611707757544723
Ni 6.320558739277202 5.963046365513571 9.460374492869985 -0.3741950116594394 -1.6220305658088519 0.9468516765663241
Ni 8.120939958243298 0.2654934759829433 2.7647113710536892 0.5719310995947698 -0.06005222809689013 0.3653707284995901
Ni 4.613654983357205 0.6738453165726304 2.1103181436792657 -0.1845080192808306 -0.31166269745317293 -0.2370472268301272
Ni 5.88979943941969 5.717985549759326 0.9459788153275149 -0.30296568389980727 0.35306748565220486 -0.5474197447169669
Ni 7.7328086394885265 9.1781266361042 11.935627122699671 0.6843312451657569 -0.7506819046768491 -0.3195603550336948
Ni 9.209992918432178 5.041318701502856 6.332714360287511 -0.3400260790872144 -0.16297940118043544 0.2810344310443547
Ni 7.096211365096465 6.382825454946071 3.0209354007400284 0.3513001093391369 -0.6856178251876643 0.15024087056784446
P 8.64119798818196 1.821158035043938 4.273313072977098 -2.5916632448254333 -0.3712385001342768 -0.643054497904157
P 1.7147974892852416 3.165978881849262 1.9255856631631403 -0.20700131528734028 1.3229719302729346 0.47423792121665426
P 4.8293715054134285 1.2845571545970709 8.989355331919304 0.6300591140857537 -0.013353024268138294 -0.9535787108775124
P 8.64574120957672 1.7542024235468097 12.854706243416326 -0.4526684225759946 0.2352644238980916 1.9114007704124116
P 6.48342275592945 8.230651015972478 2.1068674805357506 -1.5616260965788653 -0.010974239623316583 -0.5669411025793462
P 1.6925730335245004 3.414026023490242 6.650782649785571 0.46981716644113924 -0.41776081206553206 0.1686959919492385
P 7.060075000936538 4.078155765813676 6.687188511647472 -1.0262046618743552 1.4985983307934192 -0.8981071601727694
P 2.3807390573753238 8.41252554619639 10.73847098634136 -2.2254671922110707 0.3441105335692332 0.27164219119617733
