# total energy = -340898.20915029786 ev
CRYSTAL
PRIMVEC
9.00595361774542 0.00000000000000 0.00000000000000
0.00000000000000 9.00595361774542 0.00000000000000
0.00000000000000 0.00000000000000 13.18112345531644
PRIMCOORD
 96 1
Ni 6.287344444086124 1.9896313074966956 11.392853799424817 0.8505214399740062 -0.1808799356099401 0.29238765127364486
Ni 4.629474457702406 0.502289053760629 5.890169279122451 -0.5833133732897825 -1.4436960223285846 0.08076092139915123
Ni 2.7869644092779073 1.8272089331475851 4.696184258285504 -0.4481006006996541 -0.6833403420073973 0.3715462611826827
Ni 3.30653588812176 4.288644141248728 4.884674365518092 0.3869289142863401 0.10448089072391038 -0.1673237941920602
Ni 5.034643307139175 4.536992319516045 2.693325006045588 0.45649165297682676 -0.1613701477117866 -0.2523049243201461
Ni 7.213390635648179 6.088682112188868 2.6506583999620648 -0.02679835113976675 -0.4746351566550729 -0.12343712011143902
Ni 5.084986588126785 4.507272672421392 11.604898077872967 0.3333954611445742 0.5602714038686544 0.0006224640753473151
Ni 5.60882688900787 7.9878396091665085 12.221497900313295 -0.5364748156696889 -1.0117728027197415 -0.14837167856958963
Ni 2.002761987940333 6.465194017063459 0.49991958735135533 -1.3335417353689807 0.20240649682780626 -0.28206287230886906
Ni 2.6689593984048052 1.4947271357414047 0.3773134347507811 0.36142511358828083 0.8679530051868923 0.28213794852117857
Ni 0.6553542422517564 0.08135348124246301 4.633652319607621 0.08105299871827332 0.007929539259721828 0.5198099534194983
Ni 8.627226295570138 2.3768242734180327 1.3019195743217942 -0.706263526462474 0.3111366497463739 0.18079611764688217
Ni 6.880575617956392 0.6540015480112664 4.875631487443018 -0.8067610070586041 0.019273246407315196 -1.0029174092116404
Ni 0.9462375396790879 7.478868137786415 2.6801042660653 -0.44029961659799655 0.15486397116215264 -0.6879739841246668
Ni 7.506246236928155 3.779195354324387 3.7443747350738517 0.1642490119214784 0.05773849236204895 -0.053978768209300594
Ni 7.725694309884339 3.8821514166231963 12.53145220522173 -0.8979158700975697 -0.1959928799919786 -0.21629456766380814
Ni 8.026240995594266 8.793224033524272 6.824197447417835 -0.026203654978561326 0.374202210748291 0.5133487711751868
Ni 6.755744094205184 0.5389108637441734 0.28522485673958287 1.2318708032900398 0.7072228050519497 0.23335537980083684
Ni 1.794157083196865 6.476982810411005 9.12244477510834 0.41951661841437426 -0.6490875914721144 0.3494010925442112
Ni 0.04964892196003392 4.9815261924227325 1.3580906079260546 -0.0011150874410496925 -0.7036448578927044 -0.1974614941177051
Ni 6.162855146574189 2.12561220188523 6.954782874965641 1.5312585400306016 -0.3756181172592111 0.2936672893170168
Ni 3.518725162423917 4.381837749774627 0.5997451801561948 -0.16141874156153493 -0.36471946806883637 -0.3900301789194831
Ni 5.8473405658729565 5.50199826663309 4.837327365314843 0.29614686120576095 1.2441460211129671 -0.052762122193380105
Ni 5.320636371726386 2.774464145590823 9.249273819382454 -0.6792054939034173 0.3950602851442228 -0.129757405902512
P 0.20293025333912248 5.549495666262544 12.327514185667487 0.295237204907298 -0.28270590520950667 0.5744615793261073
P 3.9329269833867277 6.173887439813871 12.61429527120039 0.8486468486591127 0.07533177996377993 -0.3241618583614482
P 2.4309950847132864 8.5479558914104 1.4218608652328812 0.2054774224436461 -0.33351527455189006 0.4141882642229254
P 6.431385667004877 7.733403406221619 5.800801399713463 -1.003582296489149 -0.8084592206966336 -0.39785558850117286
P 4.60983247275894 1.0920619414235182 12.46998837264852 0.022927298220134704 -1.1469225832824184 -0.1435475177080689
P 4.054597417401504 6.191187876804426 8.171624105609109 -0.8957355746167993 -0.621102419113098 -0.02816206425651279
P 4.775334883261497 1.0816690708940546 3.62192258428095 -0.49188263088161094 -1.1645526376593558 0.12175279043048062
P 0.1773965735079831 5.577918456029431 3.496016650257503 0.30870927125180375 -0.4636418908683628 0.5035623812123844
Ni 1.343742322546903 1.2693981750419454 2.5309071346733103 0.5435124392427607 -0.2992715228776717 0.48618403783493697
Ni 1.7823052481736639 6.4158684088400015 4.81585537058664 0.31009663851763364 -0.12930000665011923 -0.17029033301955188
Ni 5.84327888077002 5.532681550769903 9.322784916173395 -0.0704500263914464 0.7892777626721762 -0.510359863750192
Ni 8.463930343715518 2.188554812050239 10.054771718756395 1.020943413475416 0.6911420974400032 0.5429941048454454
Ni 2.376743219835047 5.2500837307144135 7.001971370384384 -0.4382404200761226 -0.3347092948599913 0.1995605427385789
Ni 0.6175292368585619 9.026036941719383 8.915132224715805 0.1595680615060413 0.008356342384495286 0.9844553458517109
Ni 1.4128540109724683 1.1226461600700155 11.457520149121315 -0.08639780796995443 -0.3456755640635079 -1.0135520061073513
Ni 4.099672215495061 6.689325185925467 1.635618976663489 0.5958734693429804 1.1608893298751557 0.4254638371367446
Ni 5.613455949191703 7.772498251081585 7.923041772546499 -0.06382686464797395 0.8031617197431199 0.22193428244808874
Ni 5.236367663282548 2.7640172393393696 4.824739743877207 0.1952601155910121 0.9978160834293333 -0.3440344289156591
Ni 0.6381024374109937 7.19035340617299 7.068219165544464 0.898756106610678 0.18878967737532001 -0.935786419891098
Ni 5.027069300106871 4.505300368568747 7.092221833252546 -0.0377021425364641 0.17819159014449956 0.13888790744887047
Ni 8.362415234003116 7.08034568215445 9.208135523635887 -0.9946124888903709 -0.1480628890799192 0.11454213161465435
Ni 4.6693888443458915 0.41763579109529303 10.294418344592547 -0.2653900396388784 -1.2713359512641975 0.5460940839270079
Ni 8.242221776389407 7.187939810590757 4.6098739001458 -0.5729739390369873 0.08931960960243973 0.8249929566855985
Ni 7.273244203706077 6.1050099061835965 7.096426713018756 -0.5202958919169814 -0.31031569650697527 -0.7553032054989444
Ni 2.3390623097004934 5.188690144579793 2.622964191846681 -0.3635305899670578 0.13602344141688189 0.22849805170853552
Ni 2.310126180574699 5.066839591491717 11.522714247702586 -0.16319691650788024 0.06910045434208745 -0.5545584126442772
Ni 1.030037938532344 3.4695166315981036 3.8339011192673444 -0.3198424050504879 -0.16430043398470415 -0.4523210665389048
Ni 3.619555819657776 2.679397298702594 2.5793879844429872 -0.10457319332740055 -0.19834723915676808 -0.3140970179262784
Ni 1.268155353436169 3.318792991059888 8.219761828544147 -0.7859813513090915 0.001086548195959419 0.16045509209668493
Ni 3.686100811288803 2.542200600569278 6.913815692338711 -0.9296275993785539 0.37634651078480347 0.532511974367199
Ni 3.9758583645080035 6.905756264403862 5.889668548098674 1.1248270369349596 0.24030404320452806 0.4745431111618989
Ni 1.00888295337315 7.295353819953766 11.415432625858456 -0.7815652245192668 0.5390315206532716 0.22803653869108473
P 0.12185595666027589 5.313737811218962 8.036992303079598 0.9985030821940288 0.6811664742845301 0.06918272964324858
P 8.518749583674655 1.6537182417441325 7.813795952208022 -0.5349907749249947 0.2303908978558742 0.911472782846398
P 1.8218503907168824 3.146346990281581 10.461976814316833 -0.9948747414128222 0.039000035412281225 -0.7690084709001788
P 3.9686175777613064 6.132153850530046 3.819098933823474 -0.5370597416388815 0.17272619615455415 -0.11039905598055826
P 6.8071770955862645 3.8606181814100706 10.390996390505771 0.9583169968934464 0.7771755800920034 0.2568498633783512
P 6.2844535329596445 7.745129157893509 10.119042707086999 0.30903862956676453 -0.30284587049249134 -0.23245652213565127
P 2.3159080028276593 8.304732100778493 5.824237592936013 -0.41336139744625583 0.8307828238944982 0.7173202984972677
P 6.863401264317148 4.0018225289243325 1.5605660606050924 0.3333201278219485 -0.38875259775864013 -0.25742141961110504
Ni 5.240087122146212 2.781785985920506 0.4191487913110208 0.39246552783385313 0.5358541513665546 0.37786783252533634
Ni 1.5201509429378304 1.0438890952691853 6.97766520203779 0.25880004512618654 0.7812093838417448 -1.0168972684305002
Ni 6.9238852491316 0.7118593967369901 9.213908339935184 -0.9801533760422474 -0.7266346339196582 -1.5300490931035327
Ni 2.796961017846109 1.5411348149773882 9.252805954409885 -0.5695343172278191 -0.17195666497838127 -0.22590869371480446
Ni 6.397928549139229 1.937793038200689 2.4342372280327025 0.18584165049058962 0.02029114614886828 0.4869669387475484
Ni 3.873694826131718 6.7631830119325125 10.467894626470134 0.8302698888138217 0.13121393584338048 -0.3026905758615497
Ni 8.182863535783087 7.225557679049657 0.2751138725598353 -0.2299684656064749 -0.20633745645109622 0.034509089520463145
Ni 7.447356305912418 3.9043871162221957 8.215807314289826 0.5255226875335595 -0.9409525374730698 -0.14658141943838626
Ni 3.0985884179958405 8.294924617237259 12.408855058574819 0.3783483717061807 0.3321019391441313 -0.22988876140847503
Ni 0.02849123501474057 4.647936662715751 10.162645932351687 0.2536987193438792 -0.10180668632585693 0.6105066458751228
Ni 8.536905586263389 2.323256861018337 5.635352124337531 0.22953163517937245 0.45464200136259764 1.0966202354834405
Ni 3.6188173314572416 2.736801247363599 11.495534279541475 0.031005190132262727 -0.21774364140550886 -0.02023663876184902
Ni 1.0875139348226697 3.2954045293917633 12.676392222316252 -0.11744027909805581 0.1600822821382985 -0.5631384410038044
Ni 3.11889684351052 8.286386973162793 7.980326842619127 -3.6252554574131115e-05 0.05355299352579164 -0.028819752445169718
Ni 5.589347011230374 7.77041787578496 3.5683938974820144 -0.7365043276248865 0.6530848855569655 0.6499375981772355
Ni 2.9772692161740015 8.5197942742998 3.712845791887891 1.2284934021773746 -0.1560947582454602 -0.5102814451037727
Ni 3.4519370100439333 4.277557812287056 9.282266230038983 -0.1284289168990756 0.35257383384523794 -0.02363820824423026
Ni 7.270803590262849 6.139241536064438 11.229144474296971 0.14816496187542225 -0.5041154255023771 0.9448130488697406
Ni 0.5970722131084091 9.123031062691933 0.3622275617664619 -0.47445055144809256 -0.5517818783404046 0.24529018356520985
Ni 4.654096735022643 0.30019995649382186 1.3293165859662315 -0.8592094546663073 -0.782579267606078 1.485545611374519
Ni 6.138223863300288 5.704857372938258 0.41008429894715165 -0.7138490521192158 -0.10098187643171641 -0.735993706537055
Ni 8.024592906073563 8.718951933648635 11.124631282609474 0.2533441642179379 0.10225225850370777 0.8033072441820488
Ni -0.02189167216899462 4.849399846202838 5.708058989466182 -0.11068573398304163 0.014559900092045892 0.38559142642183913
Ni 7.830847824877421 8.81851275141572 2.4320091550959706 0.6023367084698207 -0.3101290344174659 0.26579704526931003
P 8.399339644029805 1.5582371209873114 3.6197998810020984 0.15020796044738002 1.0635111116342972 -1.4466149957475924
P 1.7694267344326478 3.3263489861848625 1.5505478377480948 -0.05611586915696142 -0.6803172389103573 0.3495021368984497
P 4.666020617675164 0.989988462583883 8.187257540576262 0.43297325813991244 -0.20517506071187894 -1.1899528229000151
P 8.350599422794575 1.5393966659200344 12.369429695215347 0.40987832399366186 0.6997051565186659 -0.30361694433056097
P 6.226959524761989 7.625989396858611 1.4441370916233733 0.2974043877619459 0.6920278424790662 -0.8705433916218879
P 1.6471078717539884 3.2840029920518146 6.022086687217317 0.8440373749115594 -0.5935695038001519 -0.34285326412336437
P 6.851963703162539 4.01779008477246 5.949616678670055 0.4461455338558123 -0.5944110258648408 0.30715066851543227
P 2.3984205503068137 8.372267747312677 10.190352748802201 -0.146858841469489 1.674403165873297 -0.33348750663774823
