# total energy = -381164.61182539735 ev
CRYSTAL
PRIMVEC
9.24426260159630 0.00000000000000 0.00000000000000
0.00000000000000 9.24426260159630 0.00000000000000
0.00000000000000 0.00000000000000 13.52991274182497
PRIMCOORD
 96 1
Ni 4.8153919580338 8.849736152105818 12.089261403923075 2.620836781065596 1.0256657586517497 1.693430100597761
Ni 0.7447566370620163 3.442776084719358 10.666590620826128 -0.45631630374122706 0.24631014018929193 -0.08604428128527762
Ni 2.6876492336484374 0.02613537978781807 2.415819837165434 -1.8453095352102928 -1.2673977925520559 -0.04508995036010299
Ni 8.151600181196152 1.8521435175325682 5.5706167982903985 -0.37833860151416776 0.22845280029289688 1.0043112042353735
Ni 8.367130168375333 5.90149115012879 7.564357462407554 0.8633160206355132 0.9618057267729951 0.17118147737525355
Ni 0.018681730692275585 -0.013768405014139867 4.8492287331601975 -0.5131196858835163 -0.8692071893089676 -0.4777307648612611
Ni 6.769703068030632 3.9259829455318362 12.466083439581984 -0.12194176651283517 -0.6622932915291111 -0.3134753251818795
Ni 2.0827416530755514 5.450417346808692 11.059513389003587 -1.2449572041603527 -0.8418624787474275 0.5817725111652239
Ni 4.683605747558724 3.5310218174070034 0.3317423881152998 0.4620575771003784 -0.2710384961739074 -0.632693209274491
Ni 4.212656779218886 6.725349095116812 7.590105507584059 3.201818935119041 1.0133715146654287 -3.192030488273709
Ni 3.5337673634585673 0.530611440450258 10.567362703932226 -0.564695243967963 0.17827617943850588 -1.7503584383536885
Ni 6.9684177411768315 7.3422557288039405 4.427312259137197 0.48651853835622016 0.9775051397861231 -0.32775368947776456
Ni 0.9422584629288724 7.590547383345892 8.128717857487612 -1.7962451735834744 0.6260492215954121 -0.2164490909638014
Ni 1.498578198225594 1.4278873205949187 9.939033859129566 -3.2596438165473085 -1.780363212245895 -1.2467567192629365
Ni 0.9015125257858455 1.5885156310056172 3.059816782987608 1.0734515106764608 0.8788938204691121 0.8379723996644021
Ni 3.0304912081075517 3.29204837976733 6.795412287303375 -0.4479627895702092 -0.24140190425439717 0.2689934407194206
Ni 1.422987861310983 6.814436055719246 12.99389849053528 -0.7471702919791648 1.1192626554733047 0.8985375628419687
Ni 8.90226205333473 4.943341799446926 12.189897222041399 0.2862378296221651 -0.8811841591651857 1.2984428347833188
Ni 3.895384435664236 1.9590811496015692 1.904903298610318 -1.9485676092706958 -0.6421466413779069 -1.9062747620397558
Ni 2.0130306673016634 6.18048300142914 6.9513990533622545 -0.2961828566500189 -0.8818012239238943 -1.2869482038801578
Ni 5.275793222518977 2.462135442645388 5.859737588340576 -1.5109259991208366 -2.57347243284902 0.041176988458941986
Ni 8.285928563941194 6.809092871820916 1.0144672485112876 1.9495569697671584 0.8941666874677825 2.3298748064948844
Ni 4.396257082687283 8.224038224496004 4.929529021971346 1.211678901723197 0.46037273319878774 0.4245528952867011
Ni 6.462017024999457 2.4887496752462392 7.727244146220263 2.4400036395331917 0.9308496447111131 1.3951962749559843
P 0.13280862594074244 6.753876890117238 11.390969204972091 -1.1253669685988297 0.9958234784793366 -2.5212929226319867
Ni 5.542749043653884 4.624738282049094 6.346395332456249 -0.08263679826562542 1.1146974047001255 1.7618242729014433
P 7.909021481064525 1.7351111504860994 3.040320632742663 -0.3990943460042804 -0.24803560752083093 0.9363435779461486
Ni 5.778061753224805 0.742101684785891 9.910796333981056 0.5684999624260338 0.4259178939550278 -0.052263328180090635
P 7.922296242445151 4.058758292126498 6.869285964616049 -2.0942265168948127 -2.4375004134953633 -0.6568217268915786
P 3.5392861883500952 6.07426642185853 5.626292219855231 1.1784026561685705 -0.3570197854317335 -1.944416820327116
P 1.2391656955353878 8.459998032462916 0.9709064333456975 0.02194539392283962 0.1784546139978991 -0.3816378410907298
Ni 1.1657939816927478 5.102426317970044 8.842582941551271 -1.4006315870389425 -1.3994902743456479 -0.02648981876041244
Ni 0.018811150371473892 3.0229386454000506 8.065086823357204 0.36373345000648327 -1.3278390285572486 1.335513771493687
Ni 2.1033563591192816 8.627688959652723 5.678625840417905 -0.3533171397691657 -1.0639224881401033 -1.1994990718275536
Ni 2.769442470901767 8.702142252242949 8.103970965972334 1.2020141249399234 0.46878743962504427 3.271475519074914
Ni 7.049351261989773 8.392856951747396 10.920574892400245 0.33222432365460847 0.6207499208696858 -0.42930455103907356
Ni 4.200824122835041 4.373728814243978 8.568602405114735 0.6361395159518787 -0.26557361640459426 -0.024541179674473865
Ni 6.915568290749923 3.660062481830515 4.70303811239035 -1.196418890240333 -1.122408657301454 0.8052738809901164
Ni 1.6216655574059835 1.5716356071330382 0.41201124643292963 2.370968491211401 1.9616835778273634 1.188382907309734
Ni 3.4651009793810656 1.310457450248055 4.13579720502185 0.5455762637503249 0.17692480761693402 1.8371599095199649
Ni 8.787781102821029 8.667910747094997 12.618578647581352 1.216241838503531 0.6421551260183392 0.8607819413597498
Ni 7.971253858233311 4.769216865348404 9.903003420440758 1.0554149648897242 -0.22309642107699 -0.20611402758638053
Ni 0.7686650739413435 4.338730035283636 6.256245281631829 1.1043026917293628 -0.5632885934284234 0.387684561505442
Ni 2.950371182421 2.8447647241951812 9.809714942395779 1.1135818030384435 2.955192292130594 1.0592250826644338
Ni 5.396264455327 5.810730977959578 13.319942715060735 0.3924259328451693 1.2263313615290494 0.30217866922213765
Ni 4.449088044588592 1.922621777118846 8.473310695321022 -1.1432585041672698 -1.2985140543408864 -1.4143075418641384
Ni 6.130656424937793 5.790134760441448 8.781590220023949 0.1951762976279542 -0.14126720631432443 -1.1239428345577933
Ni 7.052364891662533 1.1688723212051075 12.443501554414441 -0.13381177847754375 0.273213135227723 -0.7507268989821716
Ni 8.171697208523089 0.3611123354567955 8.692955303872429 0.25053703378644593 0.7856213968665114 0.11623134639161918
Ni 6.060326073556312 0.19721710257261976 6.78274857169382 -0.5284797132793544 2.1397939211119668 -2.685506453329839
Ni 0.9424063711336703 0.696552428692047 7.230128367599088 -1.0505990315583196 0.829058899224856 0.23548322477711703
Ni 1.9539875607988357 4.871449167652266 4.2253916756519985 0.3049068667865781 -0.7451344924960586 -0.6071570126765995
Ni 4.370400879636022 4.732119638732489 11.243371607404102 -0.42832830316873327 0.013972145909375937 -0.02301420150698617
Ni 0.6617570235133022 6.716030878214534 4.780334940217818 1.7786205185231754 2.291126482082093 0.3445036552425938
Ni 6.333179734357542 8.768266464050484 0.5754895630648308 -0.1093122506742827 -1.1348944484732906 -1.2991077220608274
Ni 6.714302201070956 4.756487515472971 2.7934803274602924 0.4561957190029627 0.8416997279173182 -0.4670074649064861
P 4.557134988193578 7.772308078517114 9.678826349838571 0.4102071680879903 0.8875939193462714 0.7486548469444914
Ni 8.31755318697958 3.3004883917036194 1.3724337613372841 0.5044632957600989 0.7837833152165081 0.11296141739109578
P 8.558227568974432 6.283186761135796 3.2526317676149255 -0.49711765402830516 0.7009901938786766 -1.7973870004974013
Ni 5.1322205769740545 5.973781285223844 4.116259455594307 0.3844755676498411 -0.1921753060181013 -0.1392892566523472
P 2.0105809376596953 3.4910681135859263 2.364487370263985 -0.2732540157679874 -0.7170675590565134 1.1758009568796652
P 8.789814840637002 0.8076638454151932 10.929517792232847 -0.09722189516865191 0.8006155562824986 -0.3545381566604604
P 3.70401895144394 0.3004764424735488 6.600730886016762 3.149393884550105 2.7262939196598466 -1.8925000768531666
Ni 7.381358960447429 6.9376251017904345 12.602599939331759 -0.4002503139855946 -0.8839354966580777 0.20634979774627044
Ni 5.325508867856726 2.836241513893693 3.155743573635673 1.3530988315653019 0.9478595490055481 0.6846037821008533
Ni 7.43940368656787 8.49873149359441 2.564459263150969 0.7301475321689231 1.4728836996361343 0.35328242987648834
Ni 3.318718077944981 7.371023874637165 11.598599045162494 0.14057737933615144 -1.4462452711129994 -1.114643154423422
Ni 3.8845686481883774 4.622898673751918 2.1897218087534314 -0.5644425045272086 0.5381316345468216 0.8623456863024439
Ni 2.580110724497444 3.3816067977725583 12.33041833643608 -0.15825705600410164 -0.5125440158857043 0.09001612144883206
Ni 1.4571639008821358 6.455721682032739 1.8454395781500958 -0.5830066406826411 -0.35756254530908094 0.3649344122931199
Ni 1.397908176334911 2.119764925589067 5.317756629072748 0.4955572515197207 -0.12906423649022933 0.5423523574963884
Ni 2.9612701682620575 6.3400759544062515 9.13618165250171 -1.331252682224488 0.6389826418276287 3.7113812426686015
Ni 2.9530242858445654 6.928362350464955 3.5144487030593803 0.40322996543920875 0.6707666191074448 0.3158710791075657
Ni 8.38864156791065 7.294823416377761 9.308809940452932 -0.8639731946035379 -0.7921612548675583 2.9203813550989963
Ni 4.950700232635629 8.945700844231363 2.48490406192149 0.8910826492258201 -0.39087607185954615 0.8978096835370085
Ni 9.035065132717794 0.8181671768084158 1.2673514528122192 -3.0138895488614867 -1.3569423736811081 -0.6654153820978604
Ni 8.26320616597909 5.404436383642093 5.219218334183717 -2.3014574316944554 0.7005307377437548 0.11784162830153254
Ni 6.285275964528569 8.150047145045772 8.33975698179861 -0.23602752731636126 -1.9633676503980058 3.2024198019278334
Ni 6.046108397370099 1.0036865892340687 4.271068502572481 1.533897006094713 -1.4416604799557946 -0.4061286271432425
Ni 6.1933602595093715 6.111206496006846 11.00494727897474 -0.955571058717193 0.31345501346690535 -0.6931889526667029
Ni 4.739552026023592 2.502320253036462 11.760647274339254 1.1349466418674647 -1.3754622868621666 -1.2435274136923615
Ni 3.2239551399834205 5.631946935409917 13.417073108725344 -0.4629716042742155 -1.6330654834667746 0.31579394601272714
Ni 1.262784786989079 4.266948334642575 0.6006903478835811 -0.45400231089606974 0.35234886231862544 -0.706209533296087
Ni 6.427609878858307 6.70866320076303 6.4785688775426395 0.017571690335176186 1.0653864742801393 0.2681200369755318
Ni 3.7295238725088065 7.932011962647825 0.6758027564114385 -0.6891296949956648 0.2861319001719201 -1.1933765038695834
Ni 1.3146266127708006 8.46816996077801 10.491541260447617 -0.9786312829707661 -1.8541083644488456 -1.3475059108585568
Ni 9.168164028510452 3.621615592845818 4.129099736623338 0.4765061484255406 -0.9073448767209534 -2.1167118424815228
Ni 6.650331902495792 1.7455386789243628 1.1865528982361562 -1.2451536364418752 -0.014130782974427276 0.5810243201452897
P 7.133326145263874 5.118899594279428 0.8007703986453235 0.40273888473540315 -1.3451381819573285 -1.8177095141048374
Ni 2.016746860947215 0.024571250522078533 12.414141775762024 1.1941630043266207 0.043508721915912166 1.1315355593033867
P 3.9375105412432854 1.2342569919886521 13.3408190337417 -0.4197547025671094 0.26085975586869264 -0.2051344372819306
Ni 9.153909375273038 2.52615196253455 12.74236394860313 -0.512579239999014 -0.41676502381116615 -0.8612000027337748
P 8.498565096864013 8.256864601698375 6.696305470252152 -0.22993221305190079 0.1790840200517819 0.37148712580997306
P 6.055750163470372 3.8392625162061704 10.028114348748042 -0.975323815864088 -0.3427684177190419 0.13450623344140705
P 4.698461277878129 6.660851873562056 2.0462776584614284 0.285989718167101 0.15707460566022627 0.2797349955066408
Ni 4.007720717208366 3.932102647505356 4.750867003690644 -0.7703724411272411 0.30407382936232147 -0.9274910126515252
