# total energy = -381172.42073078407 ev
CRYSTAL
PRIMVEC
9.15573103485175 0.00000000000000 0.00000000000000

0.00000000000000 9.15573103485175 0.00000000000000

0.00000000000000 0.00000000000000 13.40033784497622

PRIMCOORD
 96 1
Ni 4.7182411283949985 0.7890280729849906 13.10991257295645 -1.2757258528017772 0.2364916114369733 0.4146019547215763
Ni 4.967853820569039 8.601873292974236 7.9785877546094195 1.6509279655694922 -0.503877598459958 0.9703965537657996
Ni 1.310990799509099 2.814462530228074 12.740370792558469 -1.1920521286312051 0.7238100199866696 -0.4336090919516984
Ni 8.970336528269403 3.8059824106149636 5.526661039476479 0.45165283682728663 1.6091773639952673 -1.0981119895376186
Ni 9.014009364775662 3.59685636058572 10.952163154695784 -0.3241369186607837 0.08425916436039682 -0.8119870313442339
Ni 2.085208562151841 5.397898502057309 6.254071958917763 -0.3338477181906444 0.9517221172847481 1.1780709838607646
Ni 3.094664519418345 8.453513829085884 1.3514508900342173 0.24353951942269025 -0.2788114552511069 0.30209433703844746
Ni 7.215375180537018 7.246175059364495 4.798178899517117 1.4735447302589009 -2.6327669568442786 -1.6402008089599753
Ni 7.564309241771838 3.2568033583469322 7.219016414725393 1.1773731864627914 0.3171905692499376 3.6490610444731413
Ni 8.121115017899347 3.1544331308885476 13.191078127595445 -0.712636005647721 -0.4276341053151861 -0.39252594875814334
Ni 6.395159025733385 1.3015695523885662 11.603875406432643 1.1056990578562569 -1.7078089950272524 0.5479154534064627
Ni 7.32042803715606 4.234113544340171 1.6517927405374484 -0.06367696933367098 1.2421683285613059 0.3180521459192845
Ni 4.286154718910733 0.9605368869409384 10.529328611309964 0.7484064783791111 -0.023784246903791297 0.15536482205797114
Ni 6.703377551550314 2.0341012721355 1.98078470424726 -0.37101507126956107 -0.39942704675335083 -0.1682923287529166
Ni 2.5793525158372446 5.9502729044177265 2.020971953990851 1.4437158198229265 0.20041337765717743 0.11694045664350183
Ni 4.463070907550245 6.848083878800092 0.4778119608636286 0.33007796673556705 -1.3563080825312188 1.0525178458475875
Ni 3.6548579159876398 0.43342314619913147 3.485923693567449 0.9065997710248129 0.43145733571601824 -4.118983111923262
Ni 0.020885137810153123 1.602811411241601 1.1402950144591797 0.4584798870514491 0.4488868440463753 0.5950026367022527
Ni 2.4452393692662375 3.334974988973862 5.275954237457051 -1.2559458419613725 -0.3213012489842015 0.369211442401919
Ni 8.744263220300308 7.897147528042714 12.206340812676865 -1.0494947427505474 -0.7341877636765678 0.47953490794953546
Ni 3.546664643661754 6.0501344616030055 8.380249670234083 -0.9669366202416572 -0.669443272310331 1.7456150101314323
Ni 9.03921509200873 1.178077053689103 11.653014214300377 -0.29746866534097804 0.3841032719120869 0.9645570642658872
Ni 6.649514386525926 0.15561538064542002 3.857515442119258 -0.6384681640850552 0.5710450974453907 -0.00869110001609471
Ni 6.490122266874462 3.597881802449179 11.533053996591297 -0.6384661072025262 2.023583914876586 -0.7508220297991391
P 4.51125751940191 7.242576857111463 2.889729047432899 -1.1466767858201994 0.11387570167524905 -0.0971992694608326
Ni 0.6682255280309236 7.17256298273759 2.576683620272973 -1.4374821802083888 -0.5655359947017035 -1.212964710414156
P 3.466176613111118 2.1879724860399468 6.6803627907272976 -1.0369906967462656 -0.5048088520249757 -0.21423100026656006
Ni 8.362844625748044 5.325714719454509 12.125965397616591 -0.10522522508910266 1.8089451376486458 0.3625263170722595
P 1.3702924687021907 7.4107218555260275 6.048617356988941 -0.43073331306580015 1.278928418899475 -1.3044234778467858
P 6.904080329129712 3.185883066611609 4.055800191161696 0.31267905453282924 0.8798065620913686 -0.6754359995586561
P 1.3938959430236035 2.204580981935619 3.792268956837379 0.43167973613946947 -0.6671534478348898 0.023866007984320186
Ni 9.15249895072822 1.564567923173121 8.319372299749013 0.854188090192316 0.8629159569836171 0.32419682536444167
Ni 3.3746559267973697 8.27409812590419 9.574929726380303 -0.054143575921939004 -1.4046458504046582 -0.4038562861692981
Ni 1.4972366779599056 7.262646219296311 8.265931213920211 -0.7178512313000733 -0.4307425690371807 0.707883064343768
Ni 8.191724014783263 5.204611866526143 3.6250596741232215 -0.0364286751406792 1.172637214439703 0.8895788109867842
Ni 3.2213889911338898 8.086195060156186 6.89250382294973 -1.2385165907413314 -0.28232538194163637 -1.6034926549056643
Ni 4.187886258906185 4.9910086640751885 12.140076210116266 0.2996407332916323 1.9821176773119993 -0.7090773417621853
Ni 2.4206653874669084 7.6690324920776245 3.8563361839762798 1.5846912059284448 -0.6347871156890422 1.3621372876184863
Ni 5.600111975239125 4.870482622195018 8.758728359586732 0.7715487208235292 -0.7227687232063489 0.3135547722695632
Ni 6.399654489616943 5.3925790223906125 13.142729459306429 -1.0199160006521661 0.4975066619366078 1.154853922314353
Ni 2.8784519336541234 4.099002423098476 0.4805110703399484 0.5466892943088456 0.10633439899288138 0.6535083462476294
Ni 4.821252257018045 3.1733397152460796 4.933735904854799 1.1660055680557981 -0.010630740240968788 -1.2266177824212166
Ni 2.559017637455608 1.6048348277757485 0.7817007415267181 1.4963221331647327 0.5943462340651764 1.638993161805119
Ni 1.5216000779479892 4.786304832082113 9.327278191770128 2.285392150701477 1.6396181969836277 3.1116261788830286
Ni 4.25551048750896 4.3506385318066645 6.766420252398848 -0.3361257155915437 1.1709130326597448 0.12902387017059713
Ni 8.964504327670978 8.671932946002729 7.336269282800323 -0.20265537961381871 -1.0279689528636295 -1.0414330487883354
Ni 1.3736800891439762 0.2517780225375064 2.682573310698445 -0.5453381795975898 1.6861685339393413 -0.4288371244843518
Ni 4.96788128776181 4.781965015624258 2.1150425113668616 -1.4124157241580644 -0.49860735119995414 -1.3975478059072965
Ni 5.349748513129337 2.070422056709994 7.526205836386491 0.27651571723839474 0.8792010672968859 1.0438750825709249
Ni 6.116513510800152 6.448390445324034 10.87996197620423 0.7297788359755948 -0.475225224830588 -0.10821696072757492
Ni 8.753510508533289 6.247998962596043 6.221133301346501 0.8101006129547984 -1.2641273493309002 0.4027124023728419
Ni 1.5298402357793588 3.550867124155752 7.590433288816556 -1.5743666840739856 -2.2166652776487243 -2.368722118379385
Ni 5.96708282639372 5.275449756683153 4.057287081863712 0.0965544367879821 0.12629130173078248 -0.6254545254342067
Ni 0.677511270333785 4.8497998260382795 0.7873580676644996 -0.37773824892600755 1.2789600434683586 -1.511852624700164
Ni 2.9735799779518266 3.8511842541854886 3.1465060990547697 -0.609081483392822 -2.235667015562208 -2.3960596298520738
Ni 6.508662621995043 4.842960495038243 6.130573966779746 0.11107165656755065 1.1574566500445227 0.8646303685715626
P 7.522394305602936 0.6814720395313968 0.1879918763379646 -0.6888232194988395 -0.3107478989483874 -0.9446744664093473
Ni 0.3423785578934181 3.702577585562195 2.577273249344462 1.0870745007765343 -1.2386184064265184 0.7449128634035559
P 6.285656483885403 8.492572177206577 10.166059422167837 -1.057249961215934 0.05244484806327742 -0.2703815793161989
Ni 4.544309708036628 0.9008680729378045 5.2845706958293865 2.372528636609669 -0.32550577398385233 3.122171301388726
P 8.918899631939807 4.838758014544244 8.42967047461427 -2.7580347024065532 0.037711141397528604 -1.7696841352654942
P 1.302714018754034 0.029610549380481445 9.455023527483672 -0.034897326097817316 0.529434620993456 0.043575313487789466
P 8.342061116551145 6.427597780396212 1.1578950760138933 0.08324923503864372 -0.15490202348893967 -1.0665725241684405
Ni 1.3724165982764995 5.611877089476137 4.040282142819042 -0.7290329589485057 -1.7903277796577746 0.9183533120163152
Ni 1.73512087882063 7.834568107178923 11.178856305648416 -1.552026111595256 0.14967548498267771 0.14517502600916288
Ni 1.2055167792675647 9.036028897647267 13.484223573592612 -0.8874378533843812 -1.4462889798667415 0.4347092669944126
Ni 2.2371204496386063 6.6337482178752385 13.170843046680876 0.053891607812132994 0.7200896337122888 0.5494727705912537
Ni 6.855591578157562 0.5071743899360766 8.16325793176825 2.262410087984007 0.16539598104172806 -0.25812333077413613
Ni 8.861648846473633 6.5320829816979815 9.867753806222048 -0.49990318719324234 -0.3144703421052971 0.3721553555215913
Ni 1.4785772983373147 5.1037614904011 11.732545470969484 1.360259096759167 -0.14935563974941374 -0.6213700709521879
Ni 3.396620525283432 2.9619247324858997 11.656377114268668 0.9980323132051975 -0.19890079766739294 -0.5370725971546879
Ni 5.134570524959498 3.2172689122182048 0.1659174090808171 1.3317172805657322 0.33274754314793015 -1.1971439413318157
Ni 4.351233654316707 7.852961970604724 11.748169725790854 -0.3716300791457406 1.6532154760520885 0.2064315588267993
Ni 2.389270386129389 0.9199769989487511 11.900022101026615 0.2290274418494443 -1.0641240626279482 -0.9046267064588421
Ni 3.7492992804660625 5.415157054848567 4.474037642050705 0.15016476591427044 1.7969535125044083 0.6017304423443894
Ni 6.949959696788595 1.7718445155557683 5.761408486922729 -1.5140262353127152 0.09105998933231413 -1.146226071436026
Ni 8.361718470844425 9.0148333805588 9.91496350158415 -0.2872459591717053 -0.6562352582604891 -0.2654383763783106
Ni 5.603591152990148 -0.04781672032234698 1.7906201729610907 -0.9660737580207299 -0.8132278457298705 -0.41742785420614564
Ni 8.502890685957636 1.69479903983246 3.543103064332417 -0.48747653139411523 -0.05296395379154104 -0.024305923735216204
Ni 6.190903824555574 8.032551632673968 13.019218649145119 2.506685714241773 0.3852978064408203 0.37378800602900786
Ni 6.408205942299721 6.632741087473626 2.033822937915418 0.6539768012436157 0.6143658717202128 0.1644711552346135
Ni 8.129153749650396 8.61129454009477 1.9980569906349037 -0.5592504188033078 0.5181683040510173 -0.581608989004166
Ni 2.9842555602089123 0.904684181586821 8.400698079679172 -0.4941053495645426 1.8294915943414296 -1.3931267940214653
Ni 2.2921463924903094 0.4731544405427199 5.288201858713744 -1.4491657871939043 0.9693197757618532 0.9501848547046152
Ni 5.0864571589552225 7.629424800101507 5.100007640722364 -1.7418421733525613 0.7559035580871046 -0.7198224960938313
Ni 0.08090827860003601 8.766301064633762 4.603498761739357 -0.2236767190604922 -1.3247398208066345 0.372992506710906
Ni 7.030328702837223 6.846042150804097 7.72226574281446 -0.8484149351539646 0.24746122307459964 0.3976051630532636
Ni 3.4774839408019416 3.282915502941451 8.676169302701144 0.680958214928466 0.2091409873381624 1.968231149137894
P 4.836459926082385 6.55804863459772 6.88026901971633 2.0935176637532464 -0.9768947598956338 0.0016804730262164607
Ni 0.06832189529916473 1.623301937048941 5.874386544229363 1.4044843851261297 -0.67975853819341 0.7671482777629884
P 3.3269820358774327 6.485928942111386 10.664350921961697 -0.7526292582112071 -3.636103970091841 -0.2572391283969699
Ni 1.5613084829642683 2.4395536603625927 10.10149595441287 0.6789568682277209 -1.1977833746880275 -0.4930887353745702
P 4.424479501706662 2.369182712482694 1.8733403707109357 -0.9596652833912247 -0.6584806026512402 1.4573534652110192
P 5.198450059614463 2.761441692448671 9.962320604214124 0.8249081102812761 1.3659844292787184 -0.29984462177232235
P 7.2668303883284615 8.887623655104298 5.915833622548061 0.3551986730625947 0.4903158006151233 2.09512126079494
Ni 7.495503923879899 2.356785852811944 9.814219331937823 -0.625753030511232 -0.38806765587647357 -1.6127429698593385
