# total energy = -340871.4991667929 ev
CRYSTAL
PRIMVEC
9.28185870768095 0.00000000000000 0.00000000000000
0.00000000000000 9.28185870768095 0.00000000000000
0.00000000000000 0.00000000000000 13.58493844334498
PRIMCOORD
 96 1
Ni 4.645811619600604 7.563712419174178 13.363218237967688 1.091669062125752 -1.4360837571989655 0.8680699903807308
Ni 1.3655841828838444 2.677658450224845 8.772351509268631 0.0856295623453622 -1.2808806575298393 0.5824535963926485
Ni 0.9216607256995263 3.6940126986248214 2.1227007580567854 -0.5095841619264321 0.49100871291708986 -1.73578079764983
Ni 5.857270538375354 6.900375103617391 6.635562746040827 0.8633887828549777 -0.003393084841948995 -0.005801180062809364
Ni 9.501653138403888 6.046332718720921 0.3972756197959972 -1.121586932731107 -0.26041829745589984 -0.42014396758572803
Ni 1.0854669684575677 1.6849822234293435 6.312472382094992 -0.6096782364365564 0.13001657310116962 0.9595647532576185
Ni 2.4291459647531886 6.642320867377643 0.9745561821948531 0.4997034124776104 -0.544698746241378 -0.15194731173598994
Ni 3.542699837709047 6.156369153891851 2.991553276732989 1.6742802671421877 0.6895194742349157 0.6830451793644817
Ni 5.373110223623261 3.9273771906591977 3.490310242514168 0.8397235780275539 -0.1916142913083087 -0.09720261189494227
Ni 3.777577272715406 1.3741049291923146 6.817683024246844 -0.3728680653178998 0.0927368628141048 0.7150363875590976
Ni 1.653720923247505 8.02580047388102 10.086450149997297 0.3558221655792066 0.6692890061206538 -0.8473998636258889
Ni 8.203232485245634 3.6196928558231645 13.276573943152538 0.16041446866673661 0.6483792525511801 0.24071927636507576
Ni 7.866774388365748 1.1842166634203286 -0.1710692972094335 -2.5716042692920293 0.2742030099448181 -0.6671110246327284
Ni 1.3088627442225576 0.13243912938675145 2.568884347840355 -1.6376279060264762 1.4117644637273103 -0.7758802583193476
Ni 6.517479867542213 8.302269917828834 4.442275308761107 -0.2535621937660149 0.492948353141964 1.4394580729878372
Ni 1.7944431833593968 4.778811373254273 4.100804079984482 0.23760335644391334 0.3309547129135655 0.197895239221014
Ni 3.5250643061337814 9.0975581370035 1.003120174231548 -0.09029585747277996 0.03560026570211288 -0.1510613095866108
Ni 4.051549896666512 5.804289688779769 5.3756692320734185 0.6450406750962504 1.1878856559583413 -0.6960495620439496
Ni 2.8066205953336523 0.8799313452489596 12.155707821894051 0.06771848639289628 -2.419539458141569 0.4172998132687135
Ni 0.5477336215233077 2.2700177787919538 3.905642790271492 0.253246462297809 -0.32416622923682237 -0.16301462529374508
Ni 7.7263398658742934 4.9588330232028355 2.8479192975394336 0.18062565350728893 -0.3531669873445466 -0.019553753762211485
Ni 6.21295136467228 3.051940121404314 10.522445043459726 0.36172798954068025 -0.15796652134687633 1.926180499824747
Ni 4.207828551999532 8.466568099099238 5.4959361319297475 1.0023247699329643 -0.7350233722039857 -0.7699641499452288
Ni 1.4519611601677485 7.314940041658254 3.7126144716932363 0.7852539862247637 0.7260296533458077 0.014131040084743404
P 1.458087186925472 4.603365679656557 12.826355529381724 0.050959264656686425 -0.18096863866900448 -0.8379009229965183
P 6.497551716862163 4.5787316266035285 7.288794902004987 0.0914446263652425 1.296260225309703 -0.786949885869948
P 0.3447811395975396 5.962591789314582 2.536104535571299 0.016537078423074746 -1.1822161163773899 0.0829306753569604
P 1.1447037908330109 1.059282844997661 10.466461512566983 -0.4386011458496511 -0.07542331123632172 0.5306080724762668
P 3.069464270674893 8.455123567292762 2.9574814297295764 2.1144287028743003 -0.8435941167265536 1.4660772182372623
P 3.581052477955886 6.661887025567464 9.804454287365319 0.12113958232651395 0.3843696381995961 -0.05399676593142959
P 2.264430099840212 6.051233540127099 6.427999036701062 -1.127865309540651 -1.1764707292531802 -0.43944241080402385
P 7.264493139494272 1.278343992738625 11.235871909619629 0.5240453316570846 -1.0383497818773213 1.7377132387858523
Ni 5.331146940332854 3.0800734351962236 13.592953523241048 1.276205620651673 0.21772564368337988 1.622231626076064
Ni 0.5048616442638382 2.0073597406251893 12.600505630170154 1.7422900595232573 0.021927653311026755 -0.5018906499369163
Ni 4.259342867916754 3.6096591665427114 5.7636277220824415 0.9608582752580613 -1.2468978728264914 0.054344379078835436
Ni 7.479841543745707 7.496121923947294 2.3135014305413235 0.19202386804190155 -2.562059563026388 -0.013955947959459836
Ni 3.061454026596233 0.5709326992176328 9.390996675070209 -0.2692297250999428 0.8447590835689323 -0.9758439500336162
Ni 1.4334809794486152 7.127214448968919 8.06952174121372 -1.167318630440267 -0.5002238037574547 -0.6674568380079214
Ni 2.106016617000712 6.820198407961001 11.862260001968618 0.3569791620017852 -2.602342321805834 1.0063971402301248
Ni 7.307031898025556 4.978027907043702 9.42368181238028 0.45659089755885235 -0.3786831293377801 -0.2488645311800295
Ni 0.10790532040794054 0.23339140942467568 8.50884510921451 0.7279762355492172 0.3225878290061089 0.7457389588492769
Ni 6.750176065748475 5.280059589916927 0.6907095169333438 -0.7228165457251488 0.8333390146574488 -0.7547871850944743
Ni 8.165269683065194 0.28607059861173734 2.77491376593307 0.1875565762991673 1.66626742414004 0.23878272146399523
Ni 8.29932756861338 0.9130638681495207 5.210286001518199 -1.3268329558902374 0.6859955202420572 -0.5477570734517276
Ni 4.60713411429843 4.702198911347832 10.431195090345815 1.2180598655488764 0.28548372506495995 0.47971668494303826
Ni 6.681341801452598 8.40280172966657 10.661323926429066 1.5848099908944964 -0.36617831200255 0.22000492663585983
Ni 3.4539281408743965 3.9218080754249036 2.2125110948826316 -0.4504094513384888 -0.7405900676584858 -0.8681589505501113
Ni 4.389446681648591 4.899391999935468 7.96441490121101 0.38526386787909134 1.6438489472355235 -1.4410169328345248
Ni 9.054843023156463 8.755447388160803 0.6426285605580645 0.8611012723723815 -1.7569324920267808 0.001475556104261975
Ni 7.4430018464708505 2.602373294115911 1.890317358489517 -0.24874291800050063 0.4185635104724856 0.8769518662513929
Ni 5.8368226036067705 6.423890886029898 11.661555586225761 -0.7798189312521214 -0.6616464019737314 0.011870783295656976
Ni 5.212589758853452 0.7530223472898623 10.420843033311133 -1.5326939869255474 2.197840945853369 -0.8346268802309368
Ni 9.38841446197324 8.651499852312702 11.658852708965384 -0.2861861504486232 0.811821195190331 0.6794240376721267
Ni 5.74754040454231 6.825303430259105 9.149985787819146 -0.21178896648397072 -0.5825497556508806 -0.006145707886421674
Ni 3.992675066781298 8.310632872539 11.329118390545036 -0.07407862428296919 -1.2018462319034915 -1.2953521116731368
Ni 6.051409895442852 9.165519906579336 1.2953270096456055 0.5604441820010929 -0.21326143726443914 0.0159287554151145
P 2.0418232820667472 9.032102469283094 7.14760669258516 0.21937140681691897 0.5533713343147115 -0.04848380653300037
P 7.160378530189141 7.5406562821042 0.11791302048396732 -0.7212579429887772 -0.20883991115797582 -0.05007429094857182
P 2.576449062700271 2.8931460823571373 4.6500970537733926 0.16084924221131008 -1.416108342518303 0.36795828672110825
P 8.683763593236714 2.3162785626714912 7.723213735856111 -0.12852121950256576 0.09021975281920591 0.21373889112148994
P 7.371475843145065 8.246810811953987 7.9318792018263915 -0.19143817074176064 -0.03681665460771724 0.28795429809263956
P 5.734972767830253 0.575358289457152 6.142198540178189 -0.012653169987636274 -0.7513467919543577 -0.6880138362236667
P 0.18475911064120115 1.6401137183583794 1.3265799561545921 0.5334388570568426 0.6658501556424339 -0.11509286191180179
P 8.66283300181449 8.167525174735085 4.393070319294372 1.173021337251999 0.00404845903776077 -0.9255089492244899
Ni 5.294585698819711 9.042219695292061 8.226074211379093 0.7267094530216517 0.8204256490298902 -0.7201729374547146
Ni 5.971641601570311 1.1878737157575152 3.7432214008350453 0.17922363095343974 1.324343099588848 0.44092645154871807
Ni 2.3894288912739463 2.7898111491848074 11.199260546069379 -2.091946205501068 2.995730104343641 -1.3171162428231058
Ni 5.706310388091085 2.9457092483101506 8.350525373148121 -0.4142031766212608 -1.2137571244084646 -0.18881384574503612
Ni 2.06673579088149 3.822575723808504 6.851129273972272 1.4095108918064436 0.6776990845612201 -1.2138234588700256
Ni 9.43742267603503 6.137072169605021 5.033423896279228 -1.7335107706687305 -0.2972210681065462 1.492975328179687
Ni 8.569513194205166 6.980421853251647 9.133344343313203 0.14632328068099318 0.8775267649182564 1.4176011250137457
Ni 8.675344947374205 2.814732939858274 10.251276469029088 0.24483175587155254 -0.024494899817570717 0.1794311189785555
Ni 5.368989078349883 0.7321149605144492 12.68493620167967 -0.08310885280603753 0.12716110593024552 0.6954301832923959
Ni 2.3625207828335815 0.31647796779098386 5.000059326910571 -1.0557036997747367 -0.1795244500233102 -1.2182920361643406
Ni 9.052708195649982 8.447948690499247 6.472448929943583 0.707771221356252 -1.5539829782113108 0.590720464387131
Ni 2.724049180126516 1.891382915871012 0.6595558863127019 -0.8307383438098079 1.9077976264421856 0.3436798737897178
Ni 6.707303160303132 2.431939804229059 6.2860088746874965 0.41211158419955474 1.1039339955360343 -0.41724607721264273
Ni 3.2477966223357186 1.485310878562447 3.062643032698755 1.3544381192020156 0.797732835418065 -0.11489642963027953
Ni 8.167385946854226 5.927803382817691 7.068541963603884 -0.8825617562390026 0.9016807364566406 -0.33387497188415405
Ni 0.5410683187737299 5.367141988463842 10.568403238744866 -0.33520448932885494 -0.8198304386480525 0.5251768741583666
Ni 8.095293750146288 6.620146506886427 11.936786830219816 1.066155748345996 0.6107899814434965 0.13666827408973237
Ni 7.129312149040503 1.1193828802344197 9.114556004884438 1.2023087733622067 0.00563611523985481 -1.6712013711065477
Ni 0.5476695766981133 4.886536625602972 8.141819995185328 -0.7136827017446805 -0.40316131698480245 0.8434822737390377
Ni 8.923551131507976 3.744311091049222 5.801746459489441 0.8976646733187121 0.32931923419267156 1.4801558078175152
Ni 3.693789934015449 7.497291438146496 7.614941782028578 -0.4931213883847185 -0.5604341546987639 0.4601354203770011
Ni 6.903586626735834 5.042137705249153 5.07023853253553 -0.2355588152100588 -0.6347050974981973 1.5837141867271562
Ni 3.922782670590905 4.749155834631657 12.769610886073625 -2.0203291553847142 0.39336669949188385 -0.9647804931306029
Ni 2.60904695053834 4.667791061058617 9.497909764780573 -2.09646877596177 0.5369021330150946 -0.16122076661811588
P 4.497784536673062 5.580782530710093 0.9942467172915727 0.5614862501123621 -0.011373531944264282 1.2413962262819718
P 3.6223753129943494 2.9476677205008777 8.491360871936443 -1.7220986721770468 -0.8741971863243913 -0.03445946722945033
P 1.8139814959730456 8.254366244955179 13.31842955688175 -0.4416399326759749 2.021746347447215 0.18345926630134213
P 7.67523395174092 2.9900208418576852 4.317850136196505 -1.151762942093855 -0.19148033683360569 -2.1776405596460946
P 5.863795685058203 6.4293671826769545 3.8297840152934257 -0.7968429766139438 -1.0915276514518812 -0.7909479512857475
P 5.244463661711063 1.788474948199978 1.7923426987301954 -1.1235317151623039 0.8865263973137055 -0.17976150573478072
P 4.327267510057696 2.688249051028728 11.77001781815713 1.5414344521223389 -0.599022299384607 0.07133088633450296
P 7.414487976471264 4.6482805940211405 11.57666370633767 0.009538278507738411 -0.5579237295720842 -0.26350619235260425
