# total energy = -381172.2651101042 ev
CRYSTAL
PRIMVEC
9.18482737657271 0.00000000000000 0.00000000000000

0.00000000000000 9.18482737657271 0.00000000000000

0.00000000000000 0.00000000000000 13.44292328219582

PRIMCOORD
 96 1
Ni 2.6611016159775236 1.1777152833247115 1.1920335104520425 -0.07868835514083868 -0.833077533465946 -0.4070596235979441
Ni 0.8146344715619563 2.0549856840000387 4.714204410400873 -0.10974419600537873 1.9568352485961265 0.18856496295902364
Ni 4.991090211273616 1.1725074863004015 6.168191029658423 1.184479715600586 -0.5721463009293695 -0.11104517420498941
Ni 1.1174352623890047 5.384026303860921 7.7998122070291185 1.8445862838910234 -2.1633853352786616 0.4083834846156902
Ni 4.628555896729462 2.254360728103557 1.9207117766312756 0.03013564304311584 -0.5657735646338063 -0.9560356570584375
Ni 0.3653237465658177 3.952515875252733 0.7142948267787582 -1.693496949279954 0.17966663202812927 1.043271901769287
Ni 2.798864839200847 7.8748595931424 7.546157589601854 -0.7149636253396333 0.012791495337713456 0.7311677459033215
Ni 3.164237265350842 4.164685383650543 3.8836067091594613 0.18380327990432216 0.06348516503783906 -1.0979384400742316
Ni 0.5487272946453985 1.4909913695772015 13.258298068062306 0.006604135580078949 -0.11454290294560272 -0.7655382529633913
Ni 2.515742540657015 3.514767010740194 1.054521951494092 0.9179506772612578 0.9528420898218042 0.9598666007687533
Ni 0.18684785828084396 8.60922326736052 11.014646848477875 1.645992733051404 0.06871273198536554 0.7900940879258845
Ni 3.6646542058719636 6.531707202230617 3.836718166286266 -0.6432380746698728 -0.9342051914469073 1.074275549239653
Ni 7.20443150108693 7.298768861292727 0.457238149355366 -0.22139615055643158 0.06975737119979598 -0.4861629547890143
Ni 5.487787296777373 2.431021694533145 3.9944170569544992 0.1589625667115585 1.9226622022588438 1.8708231061003653
Ni 1.0428085413616361 4.142687722498476 3.17606548582334 -1.144638672344248 1.0864371243028514 -0.17570841871132967
Ni 8.179511126650928 2.9733398167560328 3.5076754056564736 0.2710392675048558 -1.4281398197615405 -0.5662577033590764
Ni 7.185887334963329 7.77277023877696 2.7873498213359835 -0.0651556107617265 0.4748459871142984 -0.31139067473870885
Ni 1.9236885791278873 0.23026361798844613 9.222624604275715 -0.5123283003304725 1.3131729419046416 -0.20444692429660274
Ni 7.125451171965165 5.456182306370582 6.08226421572275 0.4847611893454813 -0.7899048547332138 -1.3441711900583688
Ni 1.7968644851037763 5.848659157597718 13.263379114471208 0.5536312728443175 -0.9552105900539807 -1.712195297020406
Ni 3.8350694898032613 3.228806600590522 12.576096864497558 -1.1919235734731408 -0.021156065252324857 0.39964816162522143
Ni 7.433620494292581 0.6081595560302344 12.020514014827564 0.999487043373853 -1.3485351234540195 0.480785749637501
Ni 4.923535807192843 8.941934447975337 3.6215902250462504 1.2941748035355842 0.8084679624473817 0.4656051852423207
Ni 1.913181136807234 4.614640883516358 10.04213254515178 0.6030000530854325 0.5510162038189736 0.4233485905659548
P 6.621874650886085 1.1637084218395748 2.9765995119305084 0.44684307414346913 -1.9149504354368827 -2.0761233795361984
Ni 2.2972538711432877 5.991648547499758 2.100793172711398 1.4461308570223224 -1.8968293003561396 -2.463658817058286
P 0.5833430714094534 8.817011613182322 7.513222636216015 0.1931348417178932 -0.4231567862701228 -0.12987901908204083
Ni 4.885382034990049 4.686346829493056 2.2343212721112478 -1.987155753956539 1.311322261849148 1.3113986236130382
P 0.9347123100051934 1.7280517596961402 10.90703649448049 -0.5814554941454373 -0.47290223312436624 0.253102480520777
P 7.86501345838039 5.813260833555937 9.184501142002695 0.20951328307591657 0.41212443971536117 0.19284045040592593
P 6.754696437073996 2.271361843256992 10.646700833745497 0.24335157178160025 0.3573242040460298 -1.1713462635424214
Ni 6.643284483097136 4.799770260627453 10.764904967439247 0.5970458923845265 -1.3174831392442214 0.04118187355494843
Ni 5.3551583919607335 8.452759735951139 11.916250611863088 0.8784934997068999 -0.5045010909765698 -0.8473425280253923
Ni 5.328687719960626 6.539367348118227 10.03258767272204 1.3956588164146997 1.921798825817284 -0.15620891522582128
Ni 4.086623537249115 5.013583853094666 11.178852270736977 -0.8232217237177887 -0.16299379935813865 -0.142050107226936
Ni 0.7785316712736762 3.73450481675358 11.967615839515206 0.8669335627834425 -0.6047879982237907 -0.22212145875823036
Ni 0.8110101387475073 9.079853813261115 5.120234392649299 -0.32731763038161044 -2.0306801596017348 0.955525293080922
Ni 5.827763675710056 6.593998700323862 4.268450968980598 1.134925301711226 1.0326748429797312 1.0814712956571442
Ni 5.259103469067907 8.584809996653965 8.01187425294865 -0.6481964471164127 1.0948266339181272 0.5168359583928389
Ni 8.198560458270713 7.751911496198112 4.912272453593351 -3.041660548327168 -0.2636658578589201 -1.2736455732339806
Ni 4.9253084788430925 4.588170211516251 5.246422896630936 0.20016809441559075 -0.3854896107366522 1.047652547335486
Ni 7.707447747706604 2.99353725177624 12.527096729850307 0.3850226984025627 0.23621316096460607 -0.14745353763069444
Ni 7.194006722211107 7.328656289012487 7.335466838383786 0.4214778559058031 -0.18066550560628886 -0.29997523381291563
Ni 7.5286375317114285 7.250107646769281 11.16280178519909 -1.092346547808751 -1.1822055748544285 1.944131684986529
Ni 7.7253214214443595 5.125271351887626 1.928655733679469 0.38352580214206206 0.364694785478488 -0.6881223367770729
Ni 7.576912983492332 1.008273591076971 4.81724439438186 0.21622514787845343 -2.261308884500028 -0.08019142204892642
Ni 0.2954437442371501 6.830746806317886 6.358704552476131 1.4358634136580433 0.7219989349198598 0.543412937550419
Ni 8.409940071529034 3.9804744892597865 7.885739939447511 -1.3606532468737922 0.26202755092454877 -0.6355257936272797
Ni 5.968291531921592 5.066598675712508 8.17706153323579 0.14449188389920922 -0.11424568342015808 -0.1722438572014969
Ni 3.8265918942945523 1.575895912245139 8.215279599229005 -0.10200234727643077 -0.37255207673937774 0.22175584788869548
Ni 6.71467814494892 4.493263392023845 3.6773118162409255 -1.830595883149202 0.8941985691469826 2.225312154690445
Ni 1.7172871422137923 8.36749698502227 13.272036732593104 -1.3333949253784714 0.47337840142983634 0.032393585839357114
Ni 5.761513517092159 6.158031692288777 12.438306086792625 -1.1088116353433097 -0.3875935444535325 0.9851053207308842
Ni 2.439857498302785 3.4564066186899916 6.0003695409293565 0.34969496963554614 1.274288349024302 1.239079662333653
Ni 0.28872871706876746 4.4584437120958755 5.792515064351688 -0.07425371640825276 -0.48769250405966336 -1.1852091375674427
Ni 7.2451386552522585 8.29140069164236 9.30462674154739 -0.23982838911969018 0.8065836009404754 0.14243628692176113
P 5.889384681417454 8.373834515792593 5.875323629451818 0.6007894185873589 -0.281065027171974 -1.0436048596286736
Ni 6.174582750909247 2.547623075879907 8.139918092025367 0.5782236174717009 -0.4485382024577049 0.8225504086823769
P 1.9662510683882966 0.6065586406486875 3.5308909748957076 1.037874899123432 -0.15680643960050414 -1.8703975885271722
Ni 2.8991355977800195 2.339899023848527 10.447745536245172 0.04250393480048164 0.04535400265476705 0.6446665795862832
P 4.14795981331321 0.4582429694514146 13.186015314937238 -1.8362006309304892 0.5329827433560305 0.6059169696219114
P 3.7965850638211474 7.982946639671639 9.576268006087009 0.16593848380875936 1.5238622475665302 -0.18483660626484297
P 4.494935030574858 3.221421999519014 6.863727683839741 0.34253984664800363 0.4205527729883725 0.9372573480096698
Ni 3.1191856879183204 8.246505256272297 2.3928403678487427 -1.2448510175997916 0.8789879228448152 -0.6822411954059476
Ni 7.307108684393386 2.9025247990180625 5.844203597921365 -0.0347991099570562 1.5655866238885103 1.2297743257723275
Ni 0.6917782228897005 2.024565536302483 2.18110070936405 0.4522819857708533 -0.10646038304778441 0.036082090434537854
Ni 1.0972561970232042 7.188413162444255 8.988032177226321 -1.6579139099690223 0.676017583093739 1.2207510392277943
Ni 7.857619672481679 0.5952080311907646 7.279679116433246 -0.2764077309056207 0.5724576615222012 -0.6254257290788003
Ni 2.9805774605922872 0.054936288468787155 11.309679112456315 -0.2010636096466666 0.1318112031077472 1.0719155336479087
Ni 3.5552904683614557 5.950078019577312 8.728234747365445 -0.9851323173140775 -0.22493758805078679 -0.6423014217882165
Ni 3.524732548255849 8.160608752266397 5.5162630165559765 -0.19405812486311094 1.8181211477209591 -2.124818273638741
Ni 4.026821127327984 3.7477493375808373 9.092524282388162 1.192930160360784 0.18946356351389304 -0.7676673834912521
Ni 0.14967135169249 6.553906929581159 1.1870681928659017 0.2097282273002001 1.3992213369549773 0.4104527084398931
Ni 4.734585541965147 6.654793071582958 6.694467851170628 0.6543755793439311 -1.7826689775609361 -0.28793527192924606
Ni 4.964729757199949 0.8746527249223672 10.153089850182072 1.058489747160306 0.2837214909582146 -0.07451982558544586
Ni 5.909242277831137 3.807312941994682 0.6218605627694991 1.3630220042162846 -0.26772434419900987 -2.2272152852504283
Ni 7.485468843855597 1.6599738204647734 1.1543490829193421 0.9738240913901101 0.43971571907006857 -0.5160782542912079
Ni 2.313722266318927 0.9441726820246629 6.585674491429448 -0.6773370732361109 0.35487291429205975 0.5876580234117235
Ni 8.606375970927475 3.561278975698052 10.04186342971472 0.33977205409487937 -0.6536507853627646 1.1426496669386774
Ni 5.565059248039312 1.9183521945227302 12.450324433188232 0.1982729342754069 -0.574104967317637 0.3133632250840474
Ni 1.238932156635162 6.978080619487119 3.6567304554436175 -1.682381556093083 0.6955919056812409 1.9503046465664604
Ni 3.6756484440343957 7.4111727766075495 -0.14046356242111316 1.4572994720446322 -0.8372933713195064 0.49667696694646074
Ni 7.838983658086043 5.240641966389136 13.025265224672044 0.8181126846259974 0.037622181228148116 -1.005787531670584
Ni 0.20516515917252162 5.896420259055235 10.92287205506182 -0.4698202517649328 -0.1276609283847995 0.18038268425854742
Ni 5.202635151421598 7.079279045613832 1.9840273829576958 -1.0450688457687098 -1.144580565412803 -0.8456509992555822
Ni 3.415864791414323 1.9364922282493828 4.651089951790206 -1.290601741472345 -1.5635400257721266 -1.4429725138989986
Ni 8.40191253255329 1.028314884034721 9.60140595965991 0.15705275128335533 1.5309471794377698 0.007883002292502553
Ni -0.09612472757957248 8.949842584197436 2.599242723245558 0.9706932590706122 0.4023236515748555 -0.3313887151271906
P 8.810472016213524 8.624240459838026 0.1530274875526008 0.1730928354653535 0.7135459190565002 0.2146783722166238
Ni 2.5035083508221283 6.9491759682781185 10.860496975041023 -0.5243276387841938 -0.7347127829421024 1.4131402610289148
P 0.47698277239444714 2.482566944798448 6.897806148212399 -1.3488580540110768 -1.0645801763287601 -1.508359523945241
Ni 1.7540631903360795 3.0883614078238155 8.365248539322884 0.3978303916901923 -0.8690464953613872 0.8334331170331517
P 2.2596052644366806 5.933499406475232 5.693561409993479 0.8046079652713433 -0.052428135892729065 -0.16470975360798085
P 3.9806398161494467 5.234286065964405 0.038453197569622205 0.17122158658456962 -0.5094484076795163 0.8397372048743087
P 8.606421895063491 5.610781317857679 4.244710946108052 -0.5553672816988178 0.582746445042719 -1.212198264561777
Ni 5.858900239929475 9.131380693872012 0.8829383575425259 -0.3369309851016584 0.6693743667456084 0.8584111271347281
