# total energy = -340894.5077656179 ev
CRYSTAL
PRIMVEC
9.01372383555970 0.00000000000000 0.00000000000000
0.00000000000000 9.01372383555970 0.00000000000000
0.00000000000000 0.00000000000000 13.19249595451469
PRIMCOORD
 96 1
Ni 6.224940596267062 2.0590950132437804 11.374965812419592 0.7375330259997169 -0.7200050444182826 0.5841219852340068
Ni 4.735053212997592 0.2844947489319099 5.9186281294242935 -1.0951621628806751 0.07535260589938636 0.49878758553156033
Ni 2.791802575126815 1.6139252333712368 4.875207600849665 0.4372060652743373 -0.6764729254636027 -1.1419955782944462
Ni 3.3656973413596036 4.455934248805213 4.7500899066637325 0.3881679288997638 -0.11186381345154282 -0.06315837782603961
Ni 5.142176065664295 4.521932732814016 2.884605168927612 -0.5508891913228061 -0.5848066700058573 -0.6745042317730061
Ni 7.042647571452885 6.059403562830614 2.726097037134167 0.5137298086636894 -0.7473482123179258 -0.4002497997649623
Ni 5.141968750022093 4.298527594032511 11.513750114288419 -0.08368915078953974 0.4584436344968749 -0.20305287216255352
Ni 5.474187559788886 7.770028022703686 12.645310437459015 0.7591886565962795 0.22899710283214111 -0.2534945737528731
Ni 2.0389132861616024 6.339000254372414 0.21544511949330905 0.052460788902877385 0.9330962746534446 0.3373127939211094
Ni 2.814643350663322 1.5523885425315622 0.39336971323749986 0.16588937573837884 -0.13105195634421946 0.4380172483217231
Ni 0.5689579498313109 0.06433545200940065 4.739456416963489 0.19140346084908327 0.879301340320176 -0.7120749909379285
Ni 8.661449229277654 2.1558212809163377 1.3959508630430646 -0.1894198547601512 1.4260628826278536 -0.25681103972061575
Ni 6.930976550094639 0.49274241015138265 4.969270313206105 0.34778515420734296 0.768091101292232 -1.309454355402474
Ni 0.8150614473168545 7.419998095154677 2.247012220942104 0.3512440592902209 -0.3870515559071334 0.27802366924248895
Ni 7.659745114775838 3.669099276860329 3.8314968303759533 -0.5370093480169204 1.4713346099814597 -0.6597029050941154
Ni 7.645548500146793 3.945640316110544 12.404283469090347 1.142469175496755 -0.9215368519506193 1.2800956997346986
Ni 7.77134402634549 8.572916436333859 7.303181139008039 -1.217719194380006 1.1906171959568914 -0.12975149236524106
Ni 7.0625859279985646 0.6030766963036026 0.5316645699162573 -1.2535120357088994 0.4363002656306163 -1.6761247765500942
Ni 1.7274080131678542 6.768224757242558 9.061687399878538 1.1216386119046489 -2.3490462372170127 -0.6599774989117408
Ni 0.12010876799586193 4.94500086248312 1.3777188043699418 -1.1449472047236022 -0.6634333186708251 -0.5251498775751731
Ni 6.518760943608628 1.761984656797705 6.997840351566547 -0.5386345423251692 0.7020528308152361 0.16392839535726605
Ni 3.3305257919738693 4.319141979846241 0.5342785497527163 -0.2701496658110509 -0.3063132602158015 0.2238577247230467
Ni 5.8622824419908826 5.72693236880375 4.856935881792816 -0.026902737928114956 -0.060536623932476386 0.5688915414374976
Ni 5.573789205281548 2.94326017234068 9.117029859878162 -1.027341860802592 -0.1450744958755566 -0.13183588569809554
P 0.12042334694859441 5.764799021538109 12.431248924534316 0.6955777646138536 -2.289041060307974 -0.4076080399022465
P 4.242552370637992 5.912470854850896 12.554796428073656 -0.8243172707748126 0.6818555299317547 0.32588012660413557
P 2.6422558873106374 8.449293217516496 1.3667689329722505 -0.6436077993044658 -0.24209301678415082 -0.42739190739739297
P 6.268215483145819 7.710303090302386 5.912031886512842 -0.07701842363758349 -1.0717784938494122 -0.14291708321292163
P 4.943567680434854 0.9580686786800973 12.786430195105861 -0.39652144307078163 0.4649202433601542 -0.727465871571702
P 3.779652596495397 6.162754917330059 8.311469778580658 0.14931604476072996 -0.09383703785681904 -0.31777960898418817
P 4.833104498035526 1.0077973916378364 3.8454933403416556 -0.8817639429280556 0.44996053672652836 0.2512317458606254
P -0.0012420911084967297 5.593105614900622 3.5926331556650437 0.4467484575471338 -0.2804214800507041 -0.21753101117407053
Ni 1.4042299681457806 1.0319541708161475 2.5625105734791322 0.2108183750405853 0.04506243955627723 0.08080668703542211
Ni 1.5543715617178415 6.533363175798503 4.832807045157584 1.862265446338341 -0.18310702516824592 -1.0757837583540635
Ni 5.823406252216235 5.430434945560706 9.117795125009595 -0.0847139925096283 0.728693573331216 1.0460463791906307
Ni 8.687904507967334 2.313552429737704 10.382097851137368 -0.11353323073416575 0.815712302714621 -0.8997716923593859
Ni 2.2458142970791197 5.095232593290921 6.876931164917314 -0.017162113601583345 0.7438219443322222 0.7768282240549138
Ni 0.6933166884923121 -0.16630950954673884 8.955936592163695 -0.7378556994464582 2.1933523139543967 -0.09537224355442285
Ni 1.5754186062631235 1.1475912305469498 11.39871156580293 -0.33358212323408354 -0.21964471508296365 -0.3096232984256409
Ni 4.223244974742491 6.611115555347798 1.568204923286854 0.013021351960332413 0.7830973448930771 -0.12147228307558434
Ni 5.442387143019826 7.861526330703326 8.09172240882548 0.21866409633724923 -0.21560396935468673 0.2853623689957473
Ni 5.189516141874925 2.809442432161126 4.954771738837332 -0.08231001105382599 0.17549167471483323 -0.25081317026596806
Ni 0.5244788294830672 7.61211659941084 6.591062724512727 1.048169853291537 -1.4893899248212736 1.4766092281168377
Ni 4.830418408410476 4.6658999257378895 7.028644751880679 0.5791281315638414 -0.17833068682552514 -0.9765754288830021
Ni 8.149956471347643 7.1305584174700725 9.207412268899342 -0.036348713832363204 -0.6931604134216127 -0.13034978807087227
Ni 4.7244981426924415 0.23777932376495778 10.31438135141536 -0.4374500629643434 -0.17707187471775954 0.9127295380716346
Ni 8.138905646245924 7.3193778988981535 4.529313169676405 -1.1629207584828876 -0.5358950319068191 0.6825330156147535
Ni 7.016102155527464 6.048731314119003 7.111863053405246 0.8634751719211967 -0.3379342295551922 -0.3279408657879062
Ni 2.0380119138042025 5.340811492064459 2.6581299558968032 1.9567632577076108 0.5011447729098273 -0.5184747795478426
Ni 2.387681292410252 5.317393838219215 11.168133305801238 -0.31814316297119405 -0.807424608784532 0.38551994975395537
Ni 1.1268055839853135 3.5092769441697955 3.698159521662894 -0.6633428158395478 -1.1883962770461727 0.7791347607009034
Ni 3.521319278864655 2.557067185812796 2.5336324058927624 0.9249906148271747 0.34400666100151717 1.0646603947473923
Ni 0.9925641987977823 3.2810494632762017 8.16124706149643 0.6601693032075728 0.4510159745742361 0.40796413769008455
Ni 3.7915777527837946 2.5391749445184124 6.999714304697581 -0.5020132915577097 -0.28397063085454316 -0.10655885629886164
Ni 4.011882170655845 6.9205747130902475 6.148587146616451 -0.14726713265150124 -0.2513374182005542 -0.5373610749293842
Ni 0.8299196692562304 7.398401213471381 11.303606867001335 0.4917841576305337 -0.256725421985345 -0.017770693719859718
P 0.25564001702683203 5.699458539350209 7.902872280737248 -0.949096763846759 -0.7427263972751983 -0.6743985594330772
P 8.523178709652546 1.6264002267976485 8.028280216822264 0.054853457504770047 -0.45191174691562813 -0.020359537492958484
P 1.8952886147335406 3.329011486413438 10.434181850064991 -0.45602088398799534 -0.7772282877068099 -1.099110863115778
P 3.7555498996585306 6.34474199628905 3.7633837268166905 -0.07494637159990318 -1.5985530515122017 0.1815221971796293
P 6.994117683730487 3.9424224167946273 10.403140388820862 0.41240957505594783 0.6644311638077202 -1.3046335369750628
P 6.323487636101567 7.7109791195704345 10.148867753660205 -1.0258809599863492 -0.06940615850796433 0.5970122109331137
P 2.3458936699212036 8.438224364967628 5.775345078119686 0.8612478252525747 0.9140505708759031 0.6308998648194941
P 6.944605300138523 3.9427919794611617 1.5881919539398341 0.1286968258484816 -0.38171574551651677 0.5514118965954955
Ni 5.201729737317691 2.9863097161300876 0.6093682753582523 0.5851923354800502 -0.9268484939715198 -0.6276777583377706
Ni 1.3815334121864569 1.288809237780754 6.827974026697509 0.026841545672876353 -0.8373373371835643 0.5519024630786689
Ni 6.903024993291677 0.7245952106664377 9.26435105934392 -0.11324063919441144 0.27980544373326005 -0.07892669640388987
Ni 2.7544497046361736 1.442538293335266 9.283479983512656 -0.36309530220185204 0.9754629125451137 -0.19984233564505582
Ni 6.330338066017804 2.070254003028388 2.6581560956951678 0.5757203914338729 -0.40839068370454185 -0.06383432084714168
Ni 4.030486496112574 6.815204284510228 10.548561495357221 1.2035205342821207 0.47536303596003293 -1.007297283446891
Ni 8.133082780817121 7.284783227821155 0.2508636449049712 -0.24921060166553854 0.5642866956756346 0.49749894862712385
Ni 7.620895966171913 3.7337457023330325 8.13182807049562 0.30999096617770483 0.6660396459454206 -0.25815315557080704
Ni 3.195328952087494 8.528469765390481 12.270247596800301 -0.17375875118412654 -0.4066485042024545 0.3692659497889383
Ni 0.1275694269980589 4.9315614006342905 9.981125963437558 -0.22478255053016125 -0.5175468684169344 0.8015408963102454
Ni 8.528280477195427 2.5251405769137003 5.664633116949716 1.0042569539586703 -0.7690838042228045 1.107618386366157
Ni 3.6409223769680157 2.4964589085012427 11.48889567290548 0.5105141299398691 -0.025064913388427798 -0.16576004924936613
Ni 1.1561452542186723 3.4458834262738773 12.56922920226034 -0.30553781550235765 0.14552135360498808 0.11670468648361192
Ni 3.1479077523646986 8.59357589076546 7.853189537769736 -0.6629463517320776 -0.3789114432985023 0.010160999693401855
Ni 5.298410936372378 7.854180145990519 3.564467072241019 1.6566743811349662 -0.3305271384578437 0.9695558030320593
Ni 2.921798496510994 8.377715238615389 3.5971319051008255 0.1312494170670062 0.27481544671783636 0.08041125136921635
Ni 3.402824868760896 3.9932688314755422 8.880290719813644 -0.43761821311109145 0.5255149742240756 1.2503254104508015
Ni 7.198810332372375 6.125852733018117 11.341179672347181 -0.0772649924307508 -0.2803985972325687 -0.5015818604472458
Ni 0.8024972180270606 -0.09221850451320168 0.18317508772604388 0.173691645391617 0.10059518251625901 0.480139888523386
Ni 4.796382588195065 0.35813506778674725 1.797754717428753 -0.7167014339663463 -0.4599934954824981 -1.5267326271357902
Ni 6.297645290614918 5.5628375311391425 0.3656498091303882 -0.984147584803305 0.5221972227047522 0.3267779558280566
Ni 7.993640477127394 8.686155845593978 11.194426337466584 -0.543980894238747 1.1604329590640272 0.8919277708349349
Ni -0.03784862528721167 4.996379086854901 5.803378659807172 -0.5913483277791171 -0.6543223575084924 0.14856194020352478
Ni 7.991314936445303 8.75521899561794 2.4936853857575243 0.2096410669030325 0.5739231903241342 1.0398716178384866
P 8.435186740123191 1.5373626653337098 3.631669789719308 0.015376739566386423 0.9572746716718609 -0.19059382046359433
P 1.701655804916946 3.1576876424424847 1.6013051189952845 -0.2123312121406859 0.2230329148289062 -0.7605762809724257
P 4.740704817678488 1.0953296612649173 8.308950442841725 0.5676057327465386 -0.29151244775754315 -0.8228877374171376
P 8.637247381481473 1.5055081662232062 12.37713323231311 -0.6119996854808816 0.23483736366300198 0.6357355956452405
P 6.421656099545963 7.695105952356626 1.5264109911913042 -1.417066335556198 -0.18200479324300267 -0.6022608609265627
P 1.8274152762213463 3.2736852511162464 5.8332861946256935 -0.6917578766471312 -0.3274775529982425 0.7253267137415123
P 6.754947542418061 3.881543727775855 5.961860651802253 0.28950081664415306 0.9404457730399804 0.6248685710237496
P 2.4188777896998546 8.366844687985148 10.172166426354272 1.2313902641091954 2.2714981663282043 0.8731417484766834
