# total energy = -340885.8128616542 ev
CRYSTAL
PRIMVEC
9.17222008308760 0.00000000000000 0.00000000000000

0.00000000000000 9.17222008308760 0.00000000000000

0.00000000000000 0.00000000000000 13.42447123381422

PRIMCOORD
 96 1
Ni 5.450344135899698 3.110217281031472 9.59085855470157 -0.993156987390767 0.2937811891870618 0.29834849684277004
Ni 4.430870217830253 0.5208720342185881 6.063699665240953 0.17320416423223717 -1.2505652943757495 -0.34890718362692813
Ni 2.570844878900316 1.8658588709043509 5.245504613616997 0.2292333872126633 -2.085381664909673 -1.6129509721050868
Ni 3.427750368173356 3.2631732231782142 3.403962215381465 0.7843134766883654 -0.5844973662955546 -1.3719223920297081
Ni 5.629505110830875 3.3212242040997015 0.34482594522846605 0.5391076253068458 0.19727226092503444 -0.4716429067959684
Ni 5.559612793778934 4.667862040400864 3.0164790262011008 -0.03188142208962897 -1.4000466610697502 -1.6677632919592762
Ni 5.367436438546353 4.832072296592584 11.869756254388665 -1.2584452113444584 -0.6988222396930803 -0.23970934704332264
Ni 5.763336974099231 7.844532055952195 12.844533943981192 -0.4583860417860622 1.625478415148136 0.4937114565602336
Ni 2.5518675555433 5.070623396577741 11.998913037079413 -0.03952119802307387 0.4304548625934329 -1.1967605898504678
Ni 9.024492308858623 8.05934545035593 9.07010942823213 -1.2491352467974424 0.242457342102105 0.9243802349366853
Ni 7.846366499969306 0.09279259893955043 7.210766502476559 -0.5127941842232975 -0.13905065827897986 -0.35435946499075105
Ni 8.843937156474441 2.6660250067281375 1.4513735830141168 0.268074528449577 -1.2993185525200528 0.6647404675180228
Ni 1.3697701753569367 1.180840786034642 2.965680519701263 0.1552267538182101 0.6479766177961227 -0.5410611494887908
Ni 1.7864733060638585 6.811336496634757 0.35450905797278814 0.8995207526908445 -0.10920195034866355 1.4593427277269062
Ni 7.789214396616203 4.418689509556634 3.7101345907253784 1.2997582111606327 -0.3585933005664405 0.3412784634370768
Ni 7.8456052057022045 4.342853593889252 12.770994752223235 0.476608735441676 -1.0627279536113698 -0.0667167846012593
Ni 4.750824771074725 0.5359218129349693 10.910094383497135 0.06670701440924641 -0.3514618317279818 0.35956363489950977
Ni 0.4706064337057208 0.3430070939855002 0.4892774049118798 0.2766010778633494 -0.8349199859913233 1.6579226517197705
Ni 1.7405480000954765 6.587892043130513 9.71515589519099 2.0331985551482146 0.27625680715005324 -0.23617099487276103
Ni 0.0982977654349015 5.16882118481371 1.2979489404210027 0.39257531393884 -0.044777047105374494 0.5904471561210863
Ni 6.3834157407631995 2.564259224878887 7.5572654606486305 1.0241706621634619 -0.4964841342093643 -1.9876995422751509
Ni 3.520811713161413 4.150924888598981 0.8080010462208689 -0.2631871184502887 1.0987359962748626 0.2696290174208905
Ni 5.97259200313112 5.817975889148892 5.052500924132698 1.3734131176426219 0.3458655685871269 1.5255702313965727
Ni 7.069644558684202 1.011585808795866 0.658083860588472 0.05954237834000714 -0.5749950832320744 -0.9919951058721819
P 0.2664649173715304 5.889399966955121 12.62023830845301 -0.4292449014457317 -0.6664731339384135 -0.5888559003745665
P 3.9894204373325 6.129125111111229 13.225668122418334 0.47823418686024094 0.8970144413292229 -0.6385645804536034
P 2.362855616240235 8.883194258440625 1.5045339361859855 1.077498684162641 0.2512212043376641 -0.18862152722857192
P 6.27688040446946 8.286266175272601 6.078077120225063 -0.6538109650897127 -0.4958200182628041 -0.07383411237233091
P 5.0744298679132465 1.3604236830897547 13.082710817386856 -0.9588618136533229 -0.6005639328401141 -0.630295655576592
P 3.9103192113146594 6.27960455383487 8.590413324421622 0.24120007265623622 0.24815182138372102 0.5817272597495853
P 4.4455732866274005 1.3209281034013478 3.742352930997905 0.7536579565860375 -0.3565042792478957 0.13907739775185726
P 0.4250122448824275 5.832055246980222 3.753737490568098 -0.6093383365986345 0.2931301858666242 0.8152297066512477
Ni 0.3338578044501575 0.18821487337762993 5.123691110326745 -0.38793241585018995 0.47771945200735144 -1.4070488034191961
Ni 2.0496701614189052 6.764860857461242 5.088545914624918 -0.532365935707638 -2.088664963646635 -0.9166247593609826
Ni 6.8841455796739055 0.8881845942088047 9.640407804825756 0.6475809250196009 0.1296206232143316 -1.466092901966546
Ni 8.95227024790495 2.652798665364765 10.400729816597885 -1.4074308693489632 -0.17505330162583402 0.942594958172499
Ni 3.6574227591156934 4.784963774233166 5.319057563705083 -0.9736585123465231 0.5365452638963082 0.04191258107338588
Ni 1.1442803167736133 1.360891466314118 7.087933048312793 0.9388308631443767 -0.7273031207415925 1.5304990361567576
Ni 1.7091973518430443 1.0897239517047226 12.086386665591348 0.04286003258831973 0.40599338711695887 -2.1601290331248926
Ni 3.7842470462386846 6.9027468420074145 1.926774336158558 0.5762911763356785 1.0199165148727982 -1.5687881615449433
Ni 5.533857199778691 8.178859478070732 8.451469782899586 -0.7375875333867361 1.1173595249133208 -0.26538772564603325
Ni 6.6502631397122975 1.227591591810724 4.8899976180989 0.41791173582109964 -0.8699533234463727 -0.10834063078963277
Ni 0.416409619664184 7.770484723201497 6.767773037338406 1.0560590262316265 -0.5788252556114418 0.6655508792344602
Ni 5.423497047709274 5.023909279682001 7.330862048944786 -0.6530015818145399 -0.7296150567042209 0.0865477032842574
Ni 1.0032574329581807 0.803653413900315 9.656168430598768 0.3714611576680441 0.05982185725363891 -0.574538712420946
Ni 6.5910105979596025 2.116966740186634 11.655098787726383 1.20335521234885 0.18025798575522506 0.7139259281037383
Ni 7.908590841029722 7.287897535620021 4.946676434895589 0.5394575524470968 0.7981778933752834 0.3087630073078747
Ni 7.245989662049113 6.766621923717668 7.568783934632072 0.2764558105347368 0.23325639232912732 -1.0741374809998923
Ni 2.258228101724291 5.36560199452924 2.789430807425241 0.050632477444886984 -0.37547516392344366 0.0464678045442361
Ni 3.1180503569845377 4.231071747706574 9.271852409013947 1.3524156894553483 1.2114174205316943 0.934124973028275
Ni 1.2169701609516492 3.495808241208186 4.173359221706243 -1.9573183588801324 0.8810841432522116 -1.0212084942113444
Ni 1.1160023622498423 7.6552541222666495 11.740613230028046 0.10578983934332102 0.7253760789222088 -0.8827345343714411
Ni 2.111399202594701 5.455342995846326 7.476275674515174 0.22331290796317024 0.4506441930571143 -1.4236010513509225
Ni 5.002070223658291 2.8672635154052495 5.311647327097963 1.421118908359017 0.5860847653873326 -0.8689097126732067
Ni 4.20323405974691 6.953652663482254 6.477468602742506 -0.02750154785437844 0.964102493226972 -0.30791094372022454
Ni 0.9247065401454739 7.6512825509696025 2.5504880536424324 0.7068649074918988 0.16968072446001098 0.6158190592269717
P 9.301640110963802 6.064479303948225 8.373742555450562 -0.33875466857395853 -0.8536425021014911 -0.7095959332698166
P 8.46651864439396 1.8505687800217279 8.124530584059963 0.21755749353663173 1.3988760378004166 1.9616329270950859
P 1.8988605187721836 3.102035660715156 10.756813744759365 0.2511957504163673 0.6284979402462209 0.15367792127385144
P 4.404545946184706 6.155779582679856 3.7865602801442617 -2.703182530453364 1.554974909810935 0.45468133924096527
P 7.08089887272918 4.032575732835044 10.631402896751558 0.009234631224390548 1.0574343093125982 -0.19097151551798724
P 6.715037357956499 8.06925144804833 10.484149323832005 -0.6813312819971685 -0.12107247653400438 0.24629831311475003
P 2.3170403769128796 8.597378708354595 5.925856790129183 0.27803189677260504 2.281609029509961 0.41894171974751077
P 7.339353690299994 4.1562080873682605 1.528684391671256 -2.240114252700284 0.6181443649260385 0.3408835419915032
Ni 2.8917533430336855 1.834306433810036 0.5221717378047115 0.568972016966446 -0.8689253964024906 0.9737202188223939
Ni 0.9557636773551687 3.7212614109111675 8.598172105391996 -1.3360166792720347 -0.6874880456271838 -0.7105171595325055
Ni 8.511930306037549 -0.05015186498380637 11.47710360196808 -0.9481390279191799 0.6757584158950813 -0.23563929073900708
Ni 3.213762473577321 1.8893947876438892 9.40576223615303 -0.6946123153767909 -1.1323673111760626 0.45521869980167406
Ni 6.118375269170956 2.3154535828380785 2.4231978177390947 0.2862997932083521 -0.300879747905056 1.691058772152107
Ni 4.3760478583788815 7.206695871202589 11.005515740713205 -1.192385600711224 -0.18747147278452875 -0.5815156579594114
Ni 7.07877091766933 6.2968208109354595 11.778161547392287 1.0278193146596428 1.4746739587673376 -0.35185675317355536
Ni 7.435065806892776 4.561464287408408 8.487850476646937 1.5657084941783552 -0.6326690409047748 0.17063331818126745
Ni 3.273904720678315 8.517965626853846 12.836801762449069 0.6107475582413353 0.18995438710738255 0.4732452182860817
Ni 8.86367577409856 5.488665671417153 10.451850268022728 0.0996310188307768 -0.9940820703081976 0.2537601687094339
Ni 8.736961553616595 2.731854030282177 5.9598206038839905 -0.8074024972973449 0.1817299423150612 0.019557353306637288
Ni 3.9599959552980346 2.808047662532896 11.657394594413798 -0.3920808908009248 0.06391968147209637 0.5701979189537469
Ni 1.1820698635261064 3.3875210108781046 12.914006173353215 -0.6462526931264806 0.1305570189856719 0.2270628619239057
Ni 2.848625564191398 8.461739917729384 8.050870318996875 0.04798681229192381 0.27303470066832974 0.9359296303371817
Ni 5.74666187798369 7.9963047817079 3.869953187940134 0.041374449181728744 0.5477563021207792 -0.6491557257058884
Ni 3.2881675229113556 8.456511752280615 3.781405492456179 -0.11637301417580603 1.104527149035343 -0.09938316448602884
Ni 3.5843201650338075 2.9807055334234134 7.052223761075705 0.21962054671324757 0.45107331017473284 2.2458537262872222
Ni 5.923016153568686 6.0661761646640535 9.636917775083203 -0.036105744583621695 -0.7429038033933271 -0.33391328132125714
Ni 8.200597639673502 9.205973855471445 2.741854501841459 -0.2615884065046011 0.8610328810282913 0.32826533900686045
Ni 4.712512407777354 0.2967754358662607 1.527611241921246 -0.11515739660115006 -0.7749898852945943 0.8399441786787921
Ni 6.054243106332744 5.853151353177002 0.7146461901900739 0.23027545532393245 0.04016525936497599 0.7029866554834152
Ni 8.200817772955554 7.71344268648942 0.14252987957548965 0.6235567941908615 -1.0083681479135667 -0.20062755055051254
Ni 8.989995589116845 5.527941117823507 6.208468483739327 0.11058700362164825 -1.7882919801746686 -0.6537580003645903
Ni 7.900519287354433 6.855253086404402 2.6294507791369806 -0.9019717853344982 -1.7871141578164835 0.0727827882896811
P 8.505197896494751 1.90910588860775 3.863106125646266 0.41438006851875736 -0.2236085848267181 -0.426128210193621
P 1.7182778497277453 3.327204491595485 1.807672141125597 0.9956938948800078 0.18469699536318515 0.24338499612269693
P 4.6911961682985215 1.2854591283305004 8.095023552044728 1.168604439131226 -0.6786871595061021 0.47575384364054846
P 8.782657554082839 1.824941597102683 12.683950383611302 -1.3539933183551134 0.28914394752536654 -0.6272075035695714
P 6.625488973261209 8.113021282296607 1.5247513436985694 -1.4540974201675667 0.6398563026818335 0.06908631327470037
P 1.645487111128768 3.496752979876998 6.273846234065157 0.04953641616723081 1.1780018211857262 1.2075959899030748
P 6.997266569989075 4.042821102670611 5.759729539939581 -1.1729945977791219 -0.07475816684849707 1.2994064842481687
P 2.683057819427016 8.896970933009131 10.526732272801212 0.17805377901505465 -0.8078591252187893 0.18481860854271398
