# total energy = -381164.70079560194 ev
CRYSTAL
PRIMVEC
9.25530376083872 0.00000000000000 0.00000000000000

0.00000000000000 9.25530376083872 0.00000000000000

0.00000000000000 0.00000000000000 13.54607259443717

PRIMCOORD
 96 1
Ni 2.2036137335775767 0.34532648193244503 10.763600575406398 -1.0247553310223383 -1.6882349295500667 -0.2627119785860831
Ni 2.0819064918536 4.149994815502341 3.775141138644268 -0.7339208831684263 -0.6843394726958729 -0.8195424750939886
Ni 7.994851528160743 1.6718410126275522 2.9471515019451897 0.7320632611343973 1.557626488501169 -0.462400562262094
Ni 3.5991746798399245 7.922891543034969 9.438022681430871 -0.8568412115444468 -0.09618059838833114 0.6949658420614676
Ni 4.781937686808153 6.385252431928152 4.711404869490275 -1.0650969680641786 0.6338540623518116 -0.1333782904845509
Ni 4.417482343492049 0.690183719974745 10.100886596377414 0.9964395147967806 0.8680825887862211 -0.14852465920768615
Ni 8.634652152183182 4.834998342078385 0.2944945037578118 -0.6926155966617362 -0.5096983189067932 -0.21837973232761101
Ni 2.4810136916727132 9.224103924876463 4.78945762094509 -0.19547557403592786 -0.49225646928126193 -0.08036677128452611
Ni 0.40656049577046816 6.11951415630999 3.3094003808942216 -2.0000377521255297 -0.6866555224235593 -0.6169706563329116
Ni 1.804330682990954 5.227802680177801 1.2726681001532116 -2.527397235757512 -0.31789582284707835 -1.859836010961242
Ni 4.574572610699734 6.6307493586755655 7.950122497149059 2.928698873825756 0.12401818942588964 0.34559097476950157
Ni 3.0499649669957583 6.389463595044837 2.470098912192478 2.715899978020032 -1.0952742629785073 1.0899194264244971
Ni 2.6728020919011732 6.655618359322891 11.07982005319453 -0.9072913977751987 -0.5978555327700155 1.0422809986109276
Ni 1.3105232172159675 3.648107469725451 7.624785619830717 0.12658363616022072 1.1612009475783034 -0.1368960738298223
Ni 5.950179122501481 4.434734229315128 0.7267227328722422 2.204084098549604 1.3485451507563484 -1.9398191736541044
Ni 2.2776283960921506 4.205202701196905 9.983048997069012 0.27213327189998293 0.9841190455582148 0.28845360632656125
Ni 3.4156142444702184 1.8774383257573186 2.719875491302871 -1.6323867122321951 -2.2161094051452546 1.5352398932758529
Ni 2.1670830504532774 6.307498626778104 8.132018828939907 0.6516975182911358 -0.8630959342049072 0.1030403016226419
Ni 6.6675299349958 1.1176612017753416 6.737355647122216 0.9245825807554786 0.28826000225851645 0.3943498893407596
Ni 8.874623662709363 7.150971460791253 1.3403151138232154 0.7321743327909648 -1.8608109732800018 -2.8962484666065347
Ni 9.157697121882581 6.195842644712852 7.755248378715978 -0.5333488684461976 0.15693576608951681 -1.4491722149518074
Ni 0.3783059050833992 3.2661133261761197 2.078983666991514 -0.49902438413271477 0.6217058570250518 0.6632697965097675
Ni 8.045996335595472 1.4179310149503215 11.809357323877284 0.13206702787229513 0.5222579007393586 -0.061446537341255464
Ni 3.334547040648142 7.418116542549495 6.402740327991837 -0.6787164700821409 -0.0031763408454525944 -1.8403167099813917
P 6.623881923439125 5.748237654275211 12.15807402350125 -0.8744522397579907 -0.04169378019436045 0.5763490261568075
Ni 4.668227027354101 3.617648265732021 3.550195613436633 -0.6759880154073842 2.3915386020532683 -0.6836900120373323
P 1.8042196193483162 2.3271442701015257 11.439549638516393 -0.799480928457423 0.2116663248631774 -1.0585285708180414
Ni 6.465329318270041 7.514131061609915 5.981918334976314 0.30300502177817495 -0.19959988061694656 0.39293629682268455
P 4.374546990308967 2.9568658685545803 5.573815905633889 -1.3109507374423421 -0.3564762542234377 1.4350985104675607
P 3.9826404166542075 4.680740197757965 1.2134461893076445 -0.8573173798499171 0.8157603823437369 0.7244103725748299
P 0.8774749682067277 6.104159607715307 12.932787356357307 1.567615995613713 0.8915487902289614 0.2550529193789285
Ni 0.583676463276113 0.8260673101510883 5.793736726542517 -0.9765530602854987 1.4932347524886607 0.30992257483361463
Ni 8.59016190800317 8.68984152727064 2.726024714983586 1.4122822839039937 1.124428001724328 1.2985369371590219
Ni 2.4940544143791072 2.134522892553281 9.1624275075286 0.1209241238815982 -1.0703319912108726 -1.0105031919786986
Ni 6.849470692243704 8.51627681973834 12.034669359105624 0.8279924056335547 0.20076664723153811 0.030777133281856668
Ni 2.126572586801122 6.506765312277512 4.555503908789171 0.897098516402597 1.3463460862225007 1.4279037924913345
Ni 8.33273489497574 8.772315537232796 7.52702369945946 -0.755286493328396 0.30552136044212547 0.03952222646433839
Ni 8.559147385796551 2.319064390099622 7.597625931553985 -0.05595774631254234 -0.34099615630996755 0.748070435195931
Ni 1.1293228842523158 1.318473522968127 3.286452781264531 0.30824415868992716 -0.01708498050674477 1.4714487669618206
Ni 8.463641908431553 4.018356633065829 11.296760666359042 -1.236229851589684 2.165067865187407 3.3788363024497805
Ni 6.145604857026331 0.768040258994233 2.0487623242993998 -0.6618109525760537 -0.3866239814514116 -0.6179739007864453
Ni 2.5359346629571298 1.783441462871485 6.450043258921652 1.1121939215519812 1.8002532663016029 -0.513524891741735
Ni 2.9868437967632464 4.796311173226201 5.770884456539424 0.9048650477218932 -0.5540511339905555 1.6752300326499665
Ni 6.018585071062844 3.604154033151522 7.556920180996858 0.7722927980784055 -3.1277822198176 3.5489320029600235
Ni 4.925598508560212 2.5317234998404445 1.3427298225202335 0.853930208545239 0.016024400452714336 -2.040083455193506
Ni 5.473679074370893 6.201266252595 2.552405401160323 0.14212775454240684 -0.9859463285749407 -0.8031113261211588
Ni 1.9552846839428981 7.811105986719974 0.3639898015473803 0.7101713461573125 -0.006196358618699006 -0.4435186377559264
Ni 6.944624468073682 5.656508340759901 7.801114886534344 -1.030077257455884 1.500496062036764 -1.7675706884669171
Ni 5.771079743444395 4.589399606991887 5.79677061504724 -1.9016552609898734 2.0893946427238084 -1.851389937076418
Ni 0.5775124311097124 0.8025264455636407 1.1946755081714926 -0.6541403234046734 -0.9838786474126345 -0.9498629525888221
Ni 0.17684478711153753 8.714044146062138 12.32055920715007 0.4403178714304417 0.96762181923414 0.6722817702003906
Ni 0.24890935716746165 5.233300330488374 5.5624911162062505 0.9637492236526111 -0.7857620362094339 0.31902196603172156
Ni 3.8711140088387 4.585429081767583 8.15808176374559 -0.09242601644190533 -2.0947109127303993 0.26657094732085707
Ni 6.5122537072845335 7.421337388185992 0.5092351312677389 -0.3820062801737421 -1.052117782195691 0.8580154343582062
Ni 2.54438475510116 3.1083011452912888 0.8628154929088868 -0.38548266875811676 -1.343221681660906 1.4975860874788207
Ni 6.991400772231323 3.7604761101642956 2.919463335835574 -0.593739453719113 -2.2912213557887444 -0.9227087607715335
P 8.293918151873813 7.36378791069248 4.810021054379488 0.7203403162705143 -0.08678707298857312 0.03295794298325937
Ni 0.4351677135229123 2.6434627796376744 13.372885370082987 0.09604818657552491 -0.09004954578992878 -1.8410857269369325
P 0.5194474332082892 0.64499470037647 8.916877825550934 1.1319600484353152 0.13719200780368632 -0.8589921964491786
Ni 2.3023493118826255 1.0302263491086943 13.043092989634154 0.11606499601708399 -1.1656343007593089 0.9023661925594395
P 7.6746180252216085 9.226121581051052 0.6954240728465408 0.9323277719185362 0.7078537537677293 -0.9291352331231676
P 4.020013332401843 0.500884070871728 0.7159504850667262 0.569198016934323 0.8545624428125992 -0.11234846639744522
P 4.428218495613708 3.1425550237415116 10.118387449866074 0.7302861146293165 -3.0560286441233817 -2.0472491197040097
Ni 8.61340197522514 6.731539614369414 11.632607866392345 -1.1455575846140915 -1.0233126850385408 -0.6488245676187148
Ni 7.983023250219812 0.036884235720029905 9.892858840534592 0.6244708213646987 1.3639596855392058 1.1452094572460536
Ni 0.982654088845482 7.991093874918162 6.68796657077152 0.7932550021523693 -1.2954505849242142 -1.389940940094316
Ni 4.498947525366912 6.421042690768198 13.033813622291763 0.08906635594105305 -1.2449083532002883 0.3930586813331618
Ni 2.676948467892986 -0.0716536345781641 7.796509447486295 -1.2490874242786423 0.5666433688332693 0.6572870965637713
Ni 0.3702824824331698 5.430715955277152 9.768817411254508 0.6733739748233049 -0.9025546544211618 1.2826061248613783
Ni 4.226286282690991 8.60472050049228 12.38818123150048 -0.6395056042106341 0.37561246083225636 -0.43287889865389323
Ni 7.596225604126393 3.2456313394129896 5.649213310499305 1.6810916336370658 -1.2675970530470555 -0.6931478150161223
Ni 7.91010071352451 0.34779116926864995 4.715252299177322 -0.4671445047049826 -0.3531800999706692 2.3651459709923524
Ni 1.7015042605154114 8.022885842623246 2.7513018745176057 -1.0102334832570794 2.3719701930030372 -0.16406749203829163
Ni 6.525794216382797 5.090879719412438 10.020408955391675 0.19961762122875942 -0.5504433620346392 0.16535432917051524
Ni 4.410226185506375 4.8149235886715935 11.118412817950471 -0.3848167530393437 3.115923777817118 1.2967124823557734
Ni 7.426224188462058 5.21386419302675 4.453000496407633 0.31457318623174857 3.2203840997157376 -0.16784881345759478
Ni 4.559319870444137 1.5867384964563 7.715693987920862 -0.3550994284805691 2.4114649086635502 2.09832896909896
Ni 3.8634691281037945 2.9335332482970786 12.553281038403066 1.503304992240469 -0.7854882137227569 -0.9314183727303894
Ni 1.9489262904018814 4.149541305628237 12.352419664101447 -0.7002934249219682 3.4193581738232273 0.1836143038219676
Ni 7.512011597096244 2.3505046562696865 0.3265474710230952 -1.2601997321417198 -0.1712221008052019 1.2027116652275802
Ni 6.278918249405964 3.335250443718181 11.769261497824312 0.10979381829639155 1.0427599951298752 0.5646258241826082
Ni 5.642449534662659 1.2514558699397378 12.061233005833534 -0.371095032577877 -0.5488240812636612 0.9362425335919102
Ni 9.24997249830753 2.7308606110901095 9.937791488224443 2.0565667975605098 -3.255788961577593 -2.0242333755351267
Ni 5.880940196620336 1.9297400461361924 4.471396337749883 0.6986823716811065 -1.7668628637666153 -0.043269352211596446
Ni 6.553634169470685 8.23270357417325 3.427128767620698 -2.40031223448084 -1.5511789331036123 1.0407709897243045
Ni 5.6125086276682055 7.2519560778597185 10.484822502612198 -1.700897869729716 -0.1675171411497889 0.8543683245239221
Ni 0.8592633074051862 7.581509671476878 9.546201445951203 0.05835221468664789 2.995378891651809 0.33478951327862344
Ni 7.606517501677501 7.239609502919811 9.473865695501171 0.29069123740782843 -1.6963498453477173 -1.1269098876059171
P 5.953427734048638 8.832724903524234 8.779507833623953 0.1895080435985833 0.41981332371918667 -0.19762913004382093
Ni 4.274969179380581 8.310827591465426 2.2571954624378523 0.009404324033035419 0.5811266500511089 0.4373541608164275
P 8.141251919764535 4.252867514495649 8.81493065691294 0.1601290762158339 -1.31904791262818 -0.9522641058311472
Ni 4.775912484195049 9.301672623955447 6.280013151816301 -0.2488326495008295 -0.6927714055133101 1.6083975484064492
P 7.448760852613988 5.574478585368295 2.038304756814691 1.1892894782844032 1.3484811302876325 -0.47325730247093983
P 0.443066189575174 2.8990664978651326 4.68318915107813 -0.2909653170048215 0.11999518430942559 0.18326617645392954
P 4.481001491777346 8.749510469277826 4.469959914638433 0.7581028797312686 -1.8072685212771713 -3.8761185070804083
Ni 6.547877370660624 1.9058243417548422 9.653852658169004 -0.6342297005236754 0.9087906080285445 -0.2696868672420194
