# total energy = -340898.3145129123 ev
CRYSTAL
PRIMVEC
9.01891803813683 0.00000000000000 0.00000000000000
0.00000000000000 9.01891803813683 0.00000000000000
0.00000000000000 0.00000000000000 13.20009819502358
PRIMCOORD
 96 1
Ni 6.245934399365763 1.9031630526885408 11.324878533521474 0.8059377398263604 0.7609380351872185 0.29189168547383276
Ni 4.799426220630653 0.2293835522718773 6.113837013425098 -0.257441217105447 0.6893752353475676 -0.03805206967671511
Ni 2.8596193041996356 1.4491867973744201 4.930131085635597 -0.13694029680419642 -0.058348872252538216 0.060992480522972375
Ni 3.5114074875136887 4.233705571575632 4.762621820148178 -0.8016789645500064 0.31115798990261245 0.426128210193621
Ni 4.985766084963238 4.51243523166946 2.5475530175856718 -0.0729033730279454 -0.30318885565420683 0.15298912273694298
Ni 7.103362931484195 5.888956606899373 2.693625216932433 -0.21398777390750243 0.9489620380411076 -0.7736580538570482
Ni 4.99179072217219 4.499024100636955 11.252040850043599 -0.4299208444668338 0.22722895518812478 0.6785136100427154
Ni 5.5091609519499745 7.799821815540676 12.5964972661882 -0.19338475294517016 -0.1776521727012618 -0.5804707616346648
Ni 1.927667452833337 6.445649319058942 0.41057541822292115 0.20339405755205614 0.18465997147766264 -0.09838223402534024
Ni 2.748172534751992 1.7311452301041832 0.3789271331481679 -0.28003092948050484 -1.0006216711989284 0.2019627244221683
Ni 0.48643894868223964 0.12748420939518745 4.737580794383721 0.762578399004119 -0.26025220419168077 0.17600692378835495
Ni 8.677371553666854 2.410296810561892 1.3806908210109001 -0.4445959299805053 -0.5319589300772064 0.1803171211279346
Ni 6.950708725797474 0.5961378518258487 4.807660492744086 -0.2661657414626384 0.39489907697601023 0.40044571782585225
Ni 0.9229780279787122 7.488903637185245 2.5086390921882655 -0.754030766544424 -0.22460283041918738 0.1889925374147455
Ni 7.8680860057121755 3.881471729965393 3.71230298357012 -0.5164875739144846 -0.6884486097682402 -0.28226470390702996
Ni 7.512560259040159 3.746756152135867 12.569555954405889 0.6097998496160852 -0.44708270095810104 -0.07449565721572977
Ni 8.083791466979417 8.908382118741866 6.991761938539137 -0.42280171692354923 0.2916651712853235 -0.43338437753540204
Ni 6.767011404432289 0.7264657260593337 0.4270809400134959 -0.19253808867415875 0.513503037364864 0.04495856698856129
Ni 1.6986590875493228 6.733361821458334 9.047994067141364 0.3080436126433469 -0.43411765615700065 -0.19150219121047665
Ni 0.012663462732170942 4.791273118779016 1.3504891703797337 0.3825552106986766 0.62257000479756 0.17525847565810462
Ni 6.447164497279157 2.0265779262922923 6.995734771908214 -0.357950524776119 -0.7011832837260892 0.7348261685915151
Ni 3.318068942830583 4.250083926622724 0.279009246551129 0.13155717811541215 0.5934882569402553 -0.2164290363591434
Ni 5.791227611695468 5.479263238854649 4.802275296819736 0.44529115627531696 0.020933150608241368 0.2704900798696051
Ni 5.275931733052502 2.9707323736821127 9.236821349052136 -0.6192221713712497 -0.6553196884247553 -0.5851941352522632
P 0.2412777013005697 5.746719251476634 12.37262337090876 -0.27705899133637446 -0.4004901979105425 0.04498582068207091
P 3.9698300693907034 6.0871563483723365 12.451085251637389 -0.30310992278715543 0.40721157579477607 0.34419846529734915
P 2.449267555142556 8.517096362289166 1.3425290733728152 -0.24094244811947535 -0.27875334831966186 -0.05507971458296321
P 6.458212671801563 7.701515609586212 5.979024031281415 -0.6523557207004248 0.3958969221129053 -0.48132079620536466
P 4.719257058728888 0.9367950103202022 12.607374081269032 0.3869937060860045 0.03703982636211686 0.3066228210364203
P 3.9894191592377766 6.217191107771554 8.011944962587265 -0.5479028550009726 -0.8105659826269911 -0.029530662469265275
P 4.777113417554382 0.9387881911932239 3.8944120734794723 -0.1687147610023159 -0.5820980128254427 -0.522534551439513
P 0.15783196649758902 5.704122901869025 3.490805573177745 0.540445884502295 -0.6542344257803765 0.4240057645339795
Ni 1.4579622045665022 1.0289683520499842 2.5453884772710786 -0.23970651882984523 0.3755227293319275 -0.06689110539559448
Ni 1.8737162854920888 6.463425606392543 4.788639594729593 0.03258333325266001 -0.3038136337223994 -0.7602479510987293
Ni 5.810023036760523 5.580121798596738 9.206395127363331 1.1488606808453956 -0.3094700606772283 -0.388220379404254
Ni 8.73543534760583 2.362162845316114 10.12361728188882 -0.2099141180587611 0.2951772982036401 1.131194373913884
Ni 2.268979384772855 5.118984522408503 6.994837389569456 0.751951258307576 1.161915714257141 -0.31154314115617315
Ni 0.6289576943458758 9.162589340854943 8.99203889622552 0.3151995069618378 -0.8089940101541809 0.6968756574896708
Ni 1.5147092364807673 1.1593097546604352 11.361641446981253 -0.17515228909754352 0.6079625392970304 0.014112271031666018
Ni 4.204096463855586 6.853196184625028 1.7174382785620186 0.29465305026905386 0.2890002228586507 -0.8970954310788034
Ni 5.671257964759111 7.736698408616337 8.035995711157794 -0.3599693549783607 0.7265677852374649 0.11768967610470053
Ni 5.294934593231039 2.7686274407249023 4.889276289089437 0.1398618413263656 0.20732681694755906 0.2663467471251929
Ni 0.6811871502452244 7.290595668696551 6.774157995037639 -0.06418784753181848 -0.5317992645708906 0.34934427116434674
Ni 5.196907973733878 4.426043016363238 7.0571292522562725 0.33002603045170903 0.9147221430216311 0.11577471847017479
Ni 8.062191158423367 7.215747668401496 9.002519780807143 0.05409935294756489 -0.39343303395344503 0.06096239861598533
Ni 4.701607036246972 0.3162970610371967 10.308656618249053 -0.46228203440635873 -0.9833646838906934 0.45435480913948206
Ni 8.104426751311877 7.2717371112056535 4.659159498785991 0.47250268369310233 -0.54413078955305 -0.3658569241073893
Ni 7.342481503820958 6.0022793112863315 6.851999374209417 0.1590623255142164 -1.1449289498911572 0.5412997478621581
Ni 2.442972350394279 5.120932608691638 2.5273434261817487 -0.9426960025267378 0.2556905529629274 0.2375182529292748
Ni 2.1265616509905665 5.575558226100136 11.119313943628105 0.3966898503278458 -0.22745058428062767 1.7238832748812956
Ni 1.23597957638694 3.124504925198041 3.884920564199979 -0.08337958996892092 0.3423117897975976 -0.6344256185845654
Ni 3.5448676732101165 2.586724884037234 2.835420645374276 0.1909602026640776 -0.2069637771811855 -0.48358465253887684
Ni 1.1697266049244177 3.483006914802624 8.248331704668649 -0.6834868948875906 -0.8473245303032634 0.45977238061062753
Ni 3.7367812288527813 2.725282520925164 7.1355505478540024 -0.8151224916494219 -0.7346482482527542 -0.30482741969889443
Ni 4.041665751081283 6.992367107935426 5.911571543727889 0.18007389476887697 -0.582098784156391 0.14224422551561308
Ni 0.41347139278548795 7.557203903028654 11.05786715355578 0.796537529558383 -0.3191299523644956 0.4400119101542486
P 0.1616812406903748 5.52288774511169 8.07842070132383 0.06553407714706777 -0.25713371316735717 -1.0785006430645943
P 8.552387388335022 1.747776114854645 8.031005543840857 -0.2058929127145099 0.32724666793435897 -0.4601130517794979
P 1.9234105235479695 3.3717585615504846 10.587059793512097 -0.22084850558307773 -0.5112502367749453 -1.521514059049328
P 3.969171688378348 6.166333429296579 3.7458443395283445 -0.16691576012036413 -0.08251055710040629 0.7276875006642048
P 6.87553604445523 3.886549380786711 10.391473734469006 0.7172336523207326 0.21688052207426517 -0.09842928521319178
P 6.275714866527381 7.608278035535088 10.300260907503823 -0.14197117435988452 -0.4199701610120251 -0.12724543811393568
P 2.2898311231367745 8.426158612322299 5.84462050801391 0.5091632723389296 0.6772992780196401 0.12425524513736019
P 6.849931336317183 3.894350744837226 1.4932081360224698 0.33175201200388027 -0.09397433476563172 0.9575520937029638
Ni 5.123548094905105 2.840093346778405 0.5968647766148331 0.5714523601861384 -0.6461894439887128 -0.2508908175814389
Ni 1.5142041770740289 1.231082303925172 7.0049223436518675 -0.04098929792816812 0.11348463688441747 -0.24257664128878872
Ni 7.1366607766570285 0.4403712175451013 9.243447548090186 -1.0396615587102094 1.0337827313319294 -0.20652797519534755
Ni 2.8096995931943183 1.6792774328157314 9.220691014249423 -0.18882335882673287 -0.12217882222430572 0.2513250769053801
Ni 6.354855871779714 1.9554817958758663 2.76965740115793 0.3752766747593924 0.5408156091368879 -1.070538450794724
Ni 4.057962935866577 6.78550018628611 10.225601402594497 -0.2673201667820557 1.405360874193812 0.6612681926987064
Ni 8.030354377962883 6.993774059139912 0.5515952197187012 1.0326524743822278 0.40818705233416797 -0.6646507360176941
Ni 7.621761317911411 3.773154525055933 8.292315163861193 0.05843063333306712 0.5808217172161803 -0.5320833714702127
Ni 3.0373010072738467 8.370133093846231 12.386615320259013 0.4784270195973373 -0.1138934422870619 -0.1951295035504188
Ni 0.03203429476418914 4.936180073923087 10.17647084691221 0.020238952754694176 -0.896638803157359 -0.10833805968647148
Ni 8.500501553210615 2.3765570384081625 5.739877500298922 0.9993348340667046 -0.2719995745355961 0.5409655044511908
Ni 3.7393786772302935 2.518163069572478 11.512241143152705 -0.14625694621943197 0.25291530421063535 -0.7166901211124367
Ni 1.0993159122742797 3.5239347645844 12.542865368543353 -0.7066239951256862 -0.08464354428300906 0.32234228865420617
Ni 3.1272737330171254 8.376662790461921 8.079252245561353 0.4309246031409998 0.2793992094337769 -0.4743392226812089
Ni 5.725290302362156 7.802834134145153 3.8817792750684252 -1.2023740793825035 -0.10619890185628161 -1.1339266852433825
Ni 3.0623465424972913 8.33486010563633 3.5780978764981186 0.7798914363612698 -0.047655139984117925 0.35457723742851194
Ni 3.2371061161468013 4.485378477737037 9.229996733818583 1.0006021308149025 -0.3645613452244173 -0.16777348013496912
Ni 7.260959504222573 5.906570553709379 11.353998815887142 -0.6021330770994469 1.0150720422963033 0.46318680560881514
Ni 0.6186761278515557 8.995189204275052 0.10644217186194335 -0.2610898696016278 -0.3946113705322623 0.8403527269711205
Ni 4.479353840528085 0.32941597912723003 1.614174373395337 0.6104734786443422 0.07654971153128107 0.2572535265746731
Ni 5.9238327627182645 5.504209565980341 0.32941417534363454 -0.45606150741794355 0.2233195928313896 -0.0028066162108596826
Ni 7.608404300386773 8.896477147011602 11.51720425371571 0.3104100559929944 -0.32000849831470696 0.47064866120349913
Ni 0.23175101824096414 4.7274191794985025 5.643028751489618 -0.6457289594125266 0.876104173539117 0.23799544967600952
Ni 7.955163658784684 8.94753324168208 2.380664253655104 0.3953294796452095 -0.3003994658345278 0.6255475993686452
P 8.46346085707713 1.683516324265144 3.6304887710292637 0.17229527926472263 0.018121906411691372 -0.90897752722837
P 1.788649851128556 3.2477304015242647 1.5731482174076064 -0.23833020730760887 -0.06663296663820137 0.36234196897559534
P 4.760942497620772 0.9582419972706347 8.250364568780773 0.4822890736559049 1.1478666923632426 -0.8419838348166402
P 8.550782020935031 1.6803867597269608 12.433198933504464 -0.37986198013722966 0.009685859829196222 -0.2621257670653099
P 6.332750503816926 7.733181030605122 1.5064217527512669 -1.1377581431743309 0.06934136670829995 0.6481761354014385
P 1.794701545091441 3.219230620715448 5.983221435708132 0.9437265006737812 -0.6143735850296967 0.2810868815488449
P 6.961729843565948 3.897588536391139 5.83985581364641 0.051303021149350356 0.9043495415380554 0.3355078795018867
P 2.3583658808475976 8.484979995371383 10.28525252609751 0.05830696327100926 0.10896283775466395 -0.6768889299550988
