# total energy = -340853.33336067514 ev
CRYSTAL
PRIMVEC
9.42061744624263 0.00000000000000 0.00000000000000

0.00000000000000 9.42061744624263 0.00000000000000

0.00000000000000 0.00000000000000 13.78802588318212

PRIMCOORD
 96 1
Ni 4.931410619006248 8.593053893764733 7.171607072002509 0.16087623879450358 1.0459574190212502 1.7692604174645143
Ni 5.250496352814031 3.0606644048540317 8.965401914537841 0.2899067938333201 1.1424509206643099 0.45533105700982224
Ni 1.2101913594643066 0.9108333406683877 3.6677666761040335 0.995928122378001 -1.9813769424912329 -0.4736038871770812
Ni 4.484986399063428 1.6569076185482223 13.665340426188404 0.3393228823726027 -1.1530595494180915 -0.7761545950266568
Ni 1.0815528281205233 6.2408858658255255 4.643255598487445 -1.2610546239428475 -0.1997268931131141 0.26575719317031005
Ni 4.113418405415569 4.628066736965249 6.935818437729087 0.21308377403599432 0.3759518464495461 -1.2749750906786816
Ni 7.914477397886002 6.284964934896017 4.250393241145008 0.6942022244225657 1.0265391623956384 3.1206754335694904
Ni 7.223088862268894 2.3511977043413745 1.8541725218641811 1.2175937245457353 1.0085815494759531 0.05954957742885873
Ni 6.338530565743381 4.977703533178591 3.313083255120215 0.03493923507934628 -2.297310756515934 -0.04688226637383539
Ni 2.7035287971467574 6.71598644530042 3.2201931408317415 -0.19960836525737882 0.9698306539600008 -0.7719017332875737
Ni 8.995003378703965 4.937797797640527 5.942404906514638 -0.9265181072152948 -0.44222203043168995 0.7050630783964696
Ni 2.2492383616292715 2.3376037533542577 11.732134576249853 -0.14591936037435513 -0.9652386637139441 1.7010932735699735
Ni 3.3375646136997164 1.432028059287332 2.179597389157226 0.1305883864442396 -0.5093386215745292 -0.6908338221709651
Ni 2.6429165444432856 3.821501732347109 0.6754742865509011 -0.420917612526959 -1.8373211176881776 0.025583247785743037
Ni 5.652568305780174 4.827407002306478 10.419832202132422 -1.3260827079877744 0.11518824983908549 1.238167692042345
Ni 4.803525737058839 6.390249755569625 2.5992906070723647 -0.22841860462085178 -0.015447187793005655 -4.121834208218811
Ni 8.424057437245061 2.4606746997823197 6.774884145627138 -1.2578890817306723 -0.152525295726647 -0.010704530901697694
Ni 6.07668450359029 0.7348053352805349 10.320861079276947 0.10658456733047451 -0.23701405959934665 0.9112092447723661
Ni 5.210081903933414 2.6105567234864275 6.290317729733772 -0.9657377148375497 -0.2533886443026281 -0.3880182906957769
Ni 0.3928369216753106 9.066176143574143 13.05755044986421 0.29101725328867944 2.4628538046584874 0.4346984683611353
Ni 0.9891554121249297 2.508003881874679 5.535465320509658 0.3209829464128343 0.7771020465415907 0.5090079777079879
Ni 8.81912987144237 2.2918666556117406 13.637667362415257 0.5684318281922598 -1.3991920263789388 -0.030869692995662962
Ni 1.878913889485432 8.703105546870415 1.4130379786221692 -0.5741116521858565 1.3116025120937282 0.9552625263378387
Ni 0.08868851890368219 7.511406859469663 2.762886223605264 0.5991835075528198 0.19594711435570772 -0.05211086176262639
P 1.6355510787784413 8.416436157724217 5.0293614889913805 -0.3609214344789849 -0.061672023088500234 -1.3769661251012029
P 6.026585659966252 6.265483097999719 0.5101820168144123 0.8477191946385206 0.16365045910553105 0.8842116331375998
P 4.877091338762509 8.724707022694016 2.7353930936254987 0.6297585521261992 0.18595709302253136 1.7176725180848933
P 3.523546443490194 6.384182877928806 10.546129710038715 1.1498312722887811 0.780767668318636 0.371960723012282
P 6.282072805337427 2.5387716184816944 13.743159436672867 3.2122103056556934 0.6672094978838057 -1.4046144829460907
P 8.565668158823952 1.8363609604425999 11.276220026283179 -0.2861452699083588 0.459139375012319 0.47363988262133905
P 1.0760323462920753 6.40618944030296 1.0464007361500953 0.38528572225596225 0.030092705620322364 -0.17423106283485476
P 3.2419641877695287 1.5449624213341484 4.350150043496204 0.4949113904056057 0.3869219723078046 -0.34873671948733487
Ni 0.5537862867651877 5.229215177983888 10.485793481426668 1.6199037492738357 1.5224735947491197 0.37901223054242467
Ni 2.934484654665922 2.564301491783903 8.987407534850249 -0.5600351194881322 -2.1074098483543064 -0.013571310926531466
Ni 5.158560547073718 2.6025020955626683 3.5365874042327206 -0.2812666016598188 -0.39678472403449727 0.8487347803872286
Ni 5.230317390226086 3.6081624294682135 1.3701157613751136 -1.3758422959094048 1.1386595719426778 0.17081843760888002
Ni 1.2825793839861397 2.893382500711112 2.514812162109183 0.5235642782556079 0.9225511521477466 0.3515183959975301
Ni 7.511425700704573 3.6523262840957975 12.294203469881204 -1.3427120890143391 0.37030776078989125 -1.0921999949285577
Ni 2.7848852494854546 1.2429751082066256 6.379471627139716 2.6718289558427464 1.2640574153249133 1.4670843193455378
Ni 2.310754993608393 7.6136959237926805 13.323907103654607 0.32531345546738816 -0.767213326672969 -0.6872301639801067
Ni 4.2532486302955235 8.379262401248013 0.7635881477898474 0.014674057072406986 0.7674305848900976 0.110944386961067
Ni 1.5523010823313514 8.150152984749967 11.183150920263067 1.017250538004861 -0.44471394361560823 -1.6313014495878162
Ni 5.982478329043396 7.378990660526549 10.47331587360793 -0.8311376361307556 -0.32822754379038954 1.1952788630986189
Ni 4.60271585539468 9.094522781495304 5.127188006826111 -1.0078212742711612 2.2716817430939202 -2.33266573897646
Ni 0.3584808718798039 4.246117222882324 8.21628477722014 -2.2063070743428517 0.5288792627106181 -1.4137511551400364
Ni 5.074999670250623 4.801594510480628 12.969292453178209 0.934158654479688 -2.9006733351471077 -0.6539323211589254
Ni 7.815108724973938 7.972225782883249 13.7268212598212 -0.8883724493835088 -0.7488798184711037 0.5545882374409481
Ni 4.663516520447246 6.960950760974708 12.770400609227824 0.5580006055566067 2.6966056485667944 -3.463560322261738
Ni 8.66621440891785 8.732017421838856 10.68319686781921 -1.3365357850002983 0.40558123928020473 1.185375487941978
Ni 9.221512704784516 3.9415675018071252 1.1567557331378175 2.398699895688398 -1.3973973963723612 0.3816836067270007
Ni 2.366883032403432 7.187328198410893 8.915351116062821 0.2235605051976021 -0.706323690276448 1.3225543831195417
Ni 0.10440022469461313 7.534025761978372 6.646090174095352 -0.9424949422595251 -1.175678572369188 -0.9541919189814791
Ni 3.5755953549273527 0.13429843831056082 11.017956624948106 0.3027368557184528 0.1863324740840791 -0.543886791863044
Ni 2.562907240400609 5.044354401670518 12.129009174566244 0.13117974017133538 0.6902784638881273 -0.10286212417356479
Ni 4.736554567573452 6.6920015532607815 8.213292789116531 0.709932747783945 -1.2101480669009677 1.0757706457279408
Ni 0.7664906400276371 3.118120750710182 9.999338231733635 -0.39051817429949515 -3.2379935852673847 1.8332736870916817
P 6.0095626042256285 8.82503659858646 12.173572463373906 -1.6701500470238977 -1.1660513336920693 -0.6513715024102846
P 6.780244476958857 6.419802232524987 7.113587373222567 -0.7286961444343772 -1.2229557601885972 1.0144403222495755
P 0.28447532734100056 6.315148593220842 8.672448031487619 -0.09456003206577264 1.0154255689809804 -1.033262082941769
P 2.5257900076291326 1.3224945401416588 0.07394525258709332 -3.200688163948707 -0.6772450277429368 0.7237172031625471
P 3.5726467016640346 0.4535744685909294 8.520710146144937 1.0526685124928385 -0.4346056515370128 -0.008318290057708256
P 7.610784952999181 3.2019642460569173 8.77882187553899 -0.5891099253669015 0.46392548354705265 -0.4195454147697807
P 7.95931011635287 0.2842906832388886 7.197349851259192 0.7681332673840771 -0.2286924271075287 -0.5951137083588203
P 3.975745501932739 4.35390792779888 3.000136937707652 -1.0909306412978308 0.6148757214770959 -0.0834163567441273
Ni 2.4893981624016677 8.352554950763968 6.999298326385767 1.3165017491675586 -0.30485441628208787 -0.1315972873247282
Ni 1.8041141868951984 5.896128949453713 6.841852488927288 -0.11984991698081296 -0.8912893659199875 1.908377924425688
Ni 7.055910584917977 7.453083816807681 2.498776387077811 -0.45561387835756373 0.3529687552908115 -1.0026497573725506
Ni 6.979471694890627 8.547844350599679 8.786143579424774 0.5519831957179332 -0.47972131292872866 -1.386784139632889
Ni 2.810292654760752 3.821030701474375 5.060149950956796 0.8077382833702089 0.3576391641832873 -1.2347141862761057
Ni 3.482905899790664 5.853820956464704 0.456484497322683 -0.9948711418683962 0.4785229217452533 2.8463338411642787
Ni 8.812639066016088 2.339695130429199 3.9374054730156436 -2.604631117840011 -0.35811764648160255 -0.16522243157834127
Ni 6.00132898457023 1.2996872252838556 7.948810838199618 1.1888297650391655 -2.045612869652167 -0.43644064786322256
Ni 5.978945597497887 4.895301392302423 5.66952635926036 0.9550169859859359 1.0548719479020607 -0.06758453191819327
Ni 6.92979677905205 0.784088353432997 3.4772572975648317 0.011098166795690565 -0.6545514428001631 2.4521665001479707
Ni 5.540641949801009 7.200102555679452 4.434877192760189 0.35332948106433987 -0.8497231124424268 1.563550824405404
Ni 0.20128373872212962 6.891153406252914 12.57801652781514 1.1139798098078106 -0.8474232606646567 -0.5643897969124021
Ni 0.38285954572904907 4.105872490834363 12.57194965017432 1.092570490894099 -0.08358424978055928 -0.18194385809808022
Ni 6.520197752739611 0.06722269997142698 1.4173535634781624 -0.5517538533159465 0.492898473740635 -1.906854802912942
Ni 0.7731594951238118 0.40963765084400355 6.592909846501885 -2.212016208912487 0.8523356103646095 1.6888278259390594
Ni 7.049617612458245 8.101307083247402 5.9957642258397446 0.33977282542582776 1.3134976722339122 -0.4518233009668799
Ni 8.994362776717045 9.083208619932222 4.847814885898571 -1.7937635448122013 -0.051413064364653385 -1.6798587896712296
Ni 8.319837146343833 5.4842783955696035 13.647815251537446 -2.6581134060288676 0.6805463242020279 0.2377182847552229
Ni 7.465632079257327 0.7104963740004544 12.838596458982321 -0.8141536999782495 0.179350129228975 -0.6728376427038605
Ni 0.37645069967462386 8.421956639552665 8.7122670973451 -0.02869762504500864 1.6438921417686332 0.6956219875882277
Ni 7.3844546186502695 5.733981281823599 9.29834160837449 1.4035009381669377 0.09661794303606587 -1.7686829476944896
Ni 3.391582434184905 4.754237066535905 8.937811752198291 -0.8763625694068261 1.7331883543323057 2.9516613961592006
Ni 8.418800732705344 5.466228492526418 2.288233123459467 -0.22527234568238624 0.7521078384900983 0.28518727687046364
Ni 8.765846859118646 1.3343645181345671 8.983202171218476 -0.2015030111769304 -0.4247614117530814 0.7658776385806809
P 3.3099245220876576 6.082751381231109 5.442961451536827 1.8925756672861085 0.5348416509416402 -1.5693484049237876
P 6.778671233843923 3.0197224013959514 4.964254659700277 1.7315256219179018 -0.513521035086993 -0.808852342369994
P 8.228984711610806 6.022873936689105 11.251263868583962 -2.1172921404650245 0.09474540860370134 1.3091674202896744
P 8.726308527661313 9.44200225631152 2.109319582945243 -0.33158489029839666 0.4131839913281271 0.44621443942053474
P 2.1115748787638955 3.7002772269401665 7.271542866085344 0.853506233633943 -1.4662129724841781 -0.8579156755555483
P 1.0775302244673708 0.7601788263329953 10.655207271299584 0.4111042259809629 -0.5528002923025899 -0.5128301796675555
P 0.2554202589872476 4.25667773504903 4.0384849300574786 0.5131065732573937 0.7134564446664874 -1.0846142121614997
P 3.668360175003679 3.618082339648002 10.961287842711169 2.0058782700667064 0.46993749406908747 -1.2560810819876562
