# total energy = -340897.1918646851 ev
CRYSTAL
PRIMVEC
9.02870797859636 0.00000000000000 0.00000000000000

0.00000000000000 9.02870797859636 0.00000000000000

0.00000000000000 0.00000000000000 13.21442676246957

PRIMCOORD
 96 1
Ni 6.154951335517973 1.9834355485081225 11.367036525836344 0.8433025536280638 0.577195947538135 -0.4131983895058303
Ni 4.634516949436483 0.3143452949684702 6.126881985975879 -0.8301518751787187 0.4476930808485903 -0.480657965810385
Ni 2.8257598098803705 1.5690810634698933 4.736856448978021 0.6525416114589858 -0.7128221535165982 -0.10582506345663065
Ni 3.5958273230827245 4.233759698278531 4.92428971337669 -1.2026584433921417 0.20962409762216802 0.086626893261625
Ni 5.102456815005553 4.444354306683226 2.6133242479642615 0.26700469242416597 0.7429976486587139 0.33019598037067
Ni 7.234089572617843 6.154274182436286 2.490324356465061 0.2792781104748803 -0.7121055870655477 0.5569667649754537
Ni 5.054523405529861 4.612613304420843 11.457211647418456 0.3563664681184508 -0.14780500743284222 -0.5375523650045838
Ni 5.4726067468712465 7.9103758983604076 12.379830012604835 0.00783440844275425 0.011405670733780356 0.18017930999848972
Ni 1.8579455394098647 6.388135770727752 0.4583595037693611 0.5416566169809446 0.22528365853629587 0.2839192087913175
Ni 2.560153285119413 1.3545228523603887 0.32629208107098223 -0.14648963105552837 2.3114561947783803 1.0685443031828308
Ni 0.6893201682588788 9.082609141130622 4.701666157628905 -0.287709271961369 -0.19031845531502062 0.012877884403932663
Ni 8.571069645808656 2.1795210235492024 1.556342459697195 0.519871145674737 1.1055273081650832 -1.0373203121715426
Ni 6.7338811055294405 0.9122335455256266 4.899023777592781 -0.08883958464222765 -0.9921056633081171 -0.8478714039456687
Ni 0.8320757751986072 7.486207207991592 2.695768989965832 -0.7776396642126155 -1.2464859821000531 0.5606323867524989
Ni 7.628355182899353 3.8560707954367204 3.7595972473241432 0.8054962814135675 0.03767951682864479 0.005113409967165387
Ni 7.614902408343169 3.8197844189660457 12.61340809947277 0.43521037500054727 -0.2533580481750088 -0.4145937271914602
Ni 8.188378838870117 8.832802854942363 6.601861534982167 -0.5061401692418896 -0.23295634459020526 0.6833542259644684
Ni 6.671185758872969 0.7235669596475112 0.3477280390248699 0.5370571705357202 0.2788513073501069 -0.1961911120457137
Ni 1.669128174112227 6.539447884007679 9.368288288974338 0.6494395754948944 -0.47370853107574545 -0.6419892898644363
Ni 0.12412396561480109 4.9030848903413515 1.5649052861328225 0.1312422179781546 -0.8495889008574077 -0.5520824402999589
Ni 6.244570288702325 2.244500633267899 6.984155078779451 0.4484001342179439 -0.6012447609572226 -0.610331296639523
Ni 3.4362900570372377 4.3010145423516954 0.39968734928888633 -0.3061237699128147 0.033886111224483574 0.1559839436992088
Ni 6.038255287773892 5.62823458245846 4.818416377619521 -0.3202049305962292 0.810393718715185 -0.48750481352888936
Ni 5.337320589857915 3.0054672090523775 9.011274224022598 -0.17814813850107386 0.4394773778070173 1.0128320972221911
P 0.29454533885993867 5.488136124211272 12.464150920078069 -0.9214306653900582 0.3318103760456414 -0.26512907266800795
P 3.9895060673601073 6.231388375378815 12.674193874438881 -0.12963604983329932 -0.006496920578253328 -0.15187377818557715
P 2.331140112892827 8.2572859364626 1.4740692631429853 1.3601485393232318 0.9495950436394163 -0.6217755339207227
P 6.300584391619483 7.811177486247121 5.902328995380671 0.42792592552399206 0.06333398417195543 -0.4395216007813914
P 4.5323571211792855 1.1850630364912471 12.56273086571008 0.3473146423288277 -0.7775159941505577 0.30245557703260817
P 4.054088413937547 6.039049814056405 8.262981245314975 -0.22627481880497158 0.763344330635866 -0.2701023575128832
P 4.734789777772712 0.9697283565147414 3.6809310195183866 0.04691466227366759 -0.022253412081561674 0.7924479328700417
P 0.28945675916875385 5.531437806608225 3.6528246522744934 -0.011673322572870218 0.4177942364066289 0.2690016682495367
Ni 1.5287678833401197 0.8895200254242894 2.604074336868415 -0.17080943874781548 1.1362602184725656 -0.23500345692722105
Ni 2.0123183846190176 6.339371720138522 4.885756994416366 -0.4021241339695397 -0.032445522123215095 -0.6294492484158966
Ni 6.141155470067067 5.61390602324996 9.197148230591836 -1.0275771167418497 1.0744940930083626 0.10930376603385046
Ni 8.65079313529262 2.192423046932281 10.059574909782436 -0.32264413616534116 0.5560905330180874 0.688626015886369
Ni 2.215969916759481 5.055724223661386 7.264326714892111 0.5867121145586863 0.4434451042055137 -1.0056137250968809
Ni 0.5735938037277737 -0.04484197994009697 9.06554578634288 0.8348446526686977 0.19495286876323845 0.1546449131728111
Ni 1.443139618983844 1.0032790345353995 11.31618684375552 -0.17086291769357026 0.6479624767287356 0.12538190254263568
Ni 4.3139165657347744 6.826019068177669 1.8172612793913268 -0.5219496254703204 -0.5895202734314429 -0.696522130804994
Ni 5.503259209702284 7.947790863300559 7.954133530499029 0.9762283299562285 -0.7046334470582187 0.90320694329318
Ni 5.44729927903166 2.95475295758789 4.693618870406135 -0.003624998347096982 -0.35885632441984006 0.2977615139910485
Ni 0.9838221693215894 7.275413968016268 6.924451845873261 -0.5759283936796211 0.5566032109884479 0.28430024627982003
Ni 4.993444197561682 4.5838207553875066 6.917607182523567 0.6754282862491722 0.3069370098427294 0.37440429945676806
Ni 8.02806510395763 7.378675298619677 9.012172580444302 -0.6374767467060635 -0.64865487481007 0.43408346048495566
Ni 4.489055438782332 0.3543235100405024 10.304491247850137 -0.32385589708525514 -0.036474183666633964 0.5054169179226198
Ni 8.1036173304584 7.2777162884940045 4.660609011980051 0.20492386393302126 -0.5169506295938323 -0.1781422249638029
Ni 7.30231048842088 6.124353044933471 6.986955783925309 0.03555629983805489 -0.025263659662795198 -0.26434077243875764
Ni 2.603346623023296 5.012241967109317 2.6245035939075283 -0.765211722861908 0.8257113229088618 0.42000975600070894
Ni 2.4501836246534237 5.196310232127389 11.523600638417838 -1.1832535565029687 0.08506777630462124 -0.8472898204105859
Ni 1.2085557340719124 3.212287817615137 3.7840171931913322 -0.8965832673290752 0.3753291252638827 -0.29589283621342594
Ni 3.681627132886361 2.5494542664287563 2.5110976072696705 -0.36092400558214616 -0.1167792484752892 0.015099317535283673
Ni 1.1241192591394058 3.111328807489465 8.2137567306302 -1.4645888066171937 0.9391028858588408 -0.798596983190573
Ni 3.5807945246692703 2.73375727784848 7.056741374782433 0.14755612464682974 -0.4914020917007666 -0.022667616800844833
Ni 4.129297549543597 6.875884621113109 6.109452065653252 0.10626523631784279 -0.07518317020105761 0.13445763959165877
Ni 0.6172999722321874 7.419512143799288 11.341453682410204 0.15231729348089898 -0.10350232886072497 0.5113641366449904
P 0.17376921808099874 5.604904401617399 8.051391673315587 -0.16241530114684932 -0.6286069550202593 0.4150184734337046
P 8.558628086521125 1.463381981772411 7.898566348615784 -0.3950070633087842 1.2042669255298422 0.12340446710129069
P 1.6893434507775265 3.321950502017428 10.336046581456756 -0.051053624142705624 -0.2968803969376758 0.33295117451830397
P 4.040283519778885 6.136948092252851 3.998355103831594 0.48167072334561556 -0.43758247477714957 -1.286229066325946
P 6.852500268025513 3.8838340717858926 10.273595912780468 0.4228348841543299 -0.10651694731733269 1.796378356727229
P 6.208202653861848 7.980014321281111 10.20147098374381 0.4629852311209704 -1.5071184524492884 -0.021779557768936687
P 2.4411910317286187 8.375841898004381 5.746795058354119 0.9192871366844942 0.8307020912552338 0.4338654309368786
P 7.042355934715072 3.9811635413937214 1.584607732197591 -0.5070567675188881 0.2432088755561489 -0.23351761641031393
Ni 5.304699868736107 2.9676008087244337 0.4950296003196578 0.34087145780664524 -0.3705299041030264 -0.7536836676176505
Ni 1.5251654289455443 1.1195055894761774 6.839852854201149 0.04725893298696377 -0.5350877055141753 0.308119717296921
Ni 6.767792931860332 0.7785743616498952 9.03184884325658 0.06872095951548164 0.17833968568658962 0.29800345479852547
Ni 2.6230833781775362 1.6628983657607055 9.135317834138371 0.7444626632400146 -1.102231925243263 0.709212838898785
Ni 6.2341963034908785 2.0838528361684454 2.5133439497593213 0.8481740227877521 -0.6444012417400385 0.24862953235108795
Ni 4.0370422136945425 6.841187297207461 10.380275512140233 0.6441994101418776 0.0733538303018027 0.13806438310631058
Ni 8.202364307183895 7.270421092627295 0.31804977376068655 -0.8416395641033441 -1.4090375517144507 0.2580965913012587
Ni 7.636255302185703 3.914558764278976 8.25768229673308 1.0503720031491781 -0.42546743668117054 -1.108930163199045
Ni 3.008862003168569 8.419035235908263 12.542631156504056 0.5265357021791061 -1.570362705120915 -1.0634252367887107
Ni -0.08321940512702085 4.907310325571079 10.265045726535698 0.08747150065010742 -0.42579448100328604 0.1350752185709996
Ni 8.520472767544994 2.3238810318571415 5.687819539293049 0.6797654801719455 0.4547273619875523 0.5757697566145697
Ni 3.515860058489353 2.76656760183316 11.468034359405367 -0.03756561695859982 -0.24141990197652616 -0.10663958893812603
Ni 1.154555032984303 3.3000920005405674 12.534478233400542 -0.7103212414716155 0.023414522269198386 0.48609636321713695
Ni 3.1961174020244485 8.269321203901118 8.232058824122038 -0.8215114258949013 0.14919186047803984 -0.7099193780475063
Ni 5.851361037228245 7.9325955481475 3.6508952174270726 -0.9179254804502772 0.05272278431501243 0.08966850830142621
Ni 3.260419858661458 8.193299484597043 3.5362333375403794 -0.17073256276329307 0.7235099722477475 0.9554638437153673
Ni 3.3920493890336787 4.258299725958872 9.270144429926932 -0.3219774491156197 0.23614528384114813 0.5757939249842857
Ni 7.221729271700113 6.278409885371169 11.530247573067678 0.07819418911323953 -0.374066199391059 -0.7494179503627609
Ni 0.5332309657053431 -0.00766537288469825 0.3113703357629248 0.49165226003835977 0.2262557926415781 0.2600007503025071
Ni 4.530903499230597 0.2836838034296772 1.481614554214531 -0.27505404509120374 -0.23468669701775066 0.24829940270517883
Ni 5.9142008432088105 5.494636793795467 0.3662034837056214 0.1881805830364114 0.9034105746635538 0.255097913684251
Ni 7.759524249176027 8.930628903476764 11.412494263645389 0.34543388036634703 -0.02840966149094462 -0.3017266692863836
Ni 0.18548577213573714 4.830024587181189 5.761410730469255 -0.38914494810105243 -0.44316871061567553 0.321912143095323
Ni 7.882748052627572 8.787695430994246 2.343578963568032 0.3508915610468086 0.4705162493906929 0.5539387767824073
P 8.454075650708633 1.5060606833342116 3.573299794361157 -0.0389414142602039 0.13839374142127134 0.8131854225277091
P 1.8091002304508335 3.2588308060964324 1.5949284480332786 0.008349657516275942 -1.2047896308025314 -0.689054361673039
P 4.598031941395181 1.164983190442285 8.249012931545934 0.359032187876072 -1.0031012430876725 -0.9834004222246355
P 8.587501893924264 1.6057105308352888 12.490051574017214 -0.685932785324922 0.7981439548135544 -0.3368764777146392
P 6.254321293078619 7.722542662208154 1.3774846619250114 0.19515495747171552 0.400547019290407 -0.8481403413363393
P 1.815113349816215 3.1753062306472644 5.916560947416184 -0.48630976477952376 0.3562253145548962 0.14332871682904347
P 6.972636253424565 4.10137175645482 5.98610908325933 0.3840600773789773 -0.6949265041831 0.19178141301379228
P 2.4033607462316984 8.408498733957211 10.270939666958704 -0.5292721272736626 0.24023565186043788 0.3134308450971892
