# total energy = -381174.33473653113 ev
CRYSTAL
PRIMVEC
9.16575507054760 0.00000000000000 0.00000000000000

0.00000000000000 9.16575507054760 0.00000000000000

0.00000000000000 0.00000000000000 13.41500903446391

PRIMCOORD
 96 1
Ni 1.3159274636698397 8.830480970789583 0.2787709427529426 0.10295596943895173 0.4417198939842909 -0.5367044151819919
Ni 5.259631093647576 1.525584946458611 -0.09849978747877644 0.16360160814546665 -0.6318496303272731 0.6645473776706103
Ni 3.4186066844725365 5.362177562015188 13.25561222254257 -1.3725775091152037 -1.2508270326775683 -0.7645391222749156
Ni 0.5804251097574568 7.450915669268802 2.839273216150777 0.3988588329547066 1.0096750396504481 0.3299992909788316
Ni 6.245728859050653 8.350956159778823 0.4276292220537907 0.7354550604247656 -0.7697147529385842 0.7383179837948575
Ni 7.835024969401226 6.294765648983324 13.441302172248177 0.33536518327643533 0.10168044516063779 -0.144297508500216
Ni 3.6092085623510233 4.219638688094198 7.882833548146799 1.552895658684403 -1.4959593505086752 2.3008892178958114
Ni 6.112724586394017 7.588851118184088 7.913285852982744 -0.30559180866874464 -1.0970182422528074 1.6271961691701913
Ni 0.3752166845076234 0.6901501975410076 2.163720400225989 1.161061850897278 -1.1537069531941033 -0.09429675110205694
Ni 7.54350812756784 1.4019114125218755 0.0697238992556695 0.8205274647150773 -0.5330225954550305 0.19131038691464472
Ni 7.089299132219516 0.20121215601419878 2.5349004861754163 -0.6892801045306 0.6917293374020409 0.16120482577851591
Ni 7.416782397173613 6.971849146014422 6.124770221782712 0.7596411707526659 -1.2395771707953618 0.2140137420494314
Ni 1.5943097784053721 7.987222333295059 7.131646754060062 -0.9987218830730542 0.6329333503097551 -0.025862212478742555
Ni 2.195225850326096 5.984312357056312 3.8844369407471477 -0.03214650282555754 1.0290519015151631 1.2901137460923329
Ni 4.858748461631641 3.372713748548633 6.005818884887717 -1.3513052299999888 -1.0262769098731874 -1.9488663714580372
Ni 7.499301690587415 1.5442555896535366 8.929097163358481 0.8280646536323868 0.10609374373698502 1.2512252965572515
Ni 4.815091969958872 6.2138045339412145 3.714602830836782 -0.35546503935010393 0.3327154043584141 0.15019561915220586
Ni 5.81394846649957 4.941625219495419 13.763530709787618 -0.6769544930857115 2.0201759176363017 -1.0669072818000398
Ni 0.7073295723766723 3.9891749411657704 4.495021051176466 0.2820991248634432 -0.18215160323351212 1.0230162368440445
Ni 8.132160419127832 8.308683697130322 12.364761318123486 1.6157971833046303 1.1477566491479394 -0.1844825653595339
Ni 2.182696263066664 0.1856780342239387 9.094825931547193 0.08985954126630975 0.42256029033670445 -0.5831349387303892
Ni 8.467003785449393 2.384828660895674 5.452450167691429 0.03661405167860791 0.7885190301292807 -1.600131194632599
Ni 1.3339198409853226 0.44760965165645067 11.26777624718668 -1.266844234041431 0.06833092316591458 0.6778520651993165
Ni -0.035770275960980126 3.582472054643808 7.337822166475859 0.24179991102376422 -0.41040462881077705 -1.0296684520532395
P 1.3982817734913449 7.118290415688121 9.414975675823698 0.6099492307097559 1.1888804157714428 0.3685473264553588
Ni 2.1224405888578075 2.848249240147238 6.276963002798983 0.24165927168084192 -1.745767990769529 0.03507113267152024
P 7.363419370820713 1.4521947451519006 6.854264423208952 -0.4422983921955802 -0.8657004617072898 -0.4090465721209859
Ni 8.364109018386932 0.03207739322006922 4.885598624702439 -0.7281883515600233 0.7627696890793185 -0.29595557113056126
P 1.3815909334039815 5.0996703351606625 12.09528078476788 1.1626783034547783 0.5631741793377463 0.18848577298165603
P 4.598046888537253 6.839917266707716 0.8076909247218647 1.2389418512042083 -0.7104747363303441 1.4790841720198913
P 4.859830020736698 7.466249977597281 10.024808194332552 -0.27194558136920904 0.19307287813170618 -0.9952622066592278
Ni 4.62898131209291 6.685501790073004 11.992173372186459 1.701707767225521 1.820392974474271 -0.7858412261868014
Ni 1.091971402882009 1.5816060417985152 4.297981146896352 0.846692038925587 -1.0445916490219753 0.26066538046969945
Ni 5.2081287155855795 5.54679420179535 6.715781778712549 -0.7213808417198866 1.4535394907815677 -1.042133674399786
Ni 3.9904581468836344 8.697119233682972 13.526353963803734 -1.8134607661308122 0.3725947570518551 -0.9513359375899229
Ni 2.344627658906011 3.7291882969713352 10.654481822966128 0.3027749080452398 -0.3165490790111968 0.43774779671042036
Ni 2.6368960926598604 4.944952388606739 6.067930624509914 -0.23924089204733637 0.6101659747062524 -3.3214215119757378
Ni 3.0803169942229967 6.314013734751288 7.6557308836236615 0.8920406422637153 3.481697912402713 0.04936543780700531
Ni 8.314201481717138 2.4143882211821905 2.52055974570277 -0.7151263761697426 1.9027806328435684 0.9483141200444636
Ni 0.5154930672824977 5.835863787009667 6.572241470536737 -0.5660736123727282 0.40060949709722615 -1.0525247878261228
Ni -0.3123606855690662 8.901744716906691 9.53664924199159 1.3357395143512478 -0.12818543342970182 2.5139637359604254
Ni 8.422091585324143 4.0736007116461135 0.32949423162909286 -1.2052395738557566 0.116970795660805 1.1187607761362217
Ni 8.619210315098355 5.924304158235901 4.231791562817886 -0.8560202583050482 0.8760388675188202 1.040336216179731
Ni 2.5695277924719844 1.8423442779134134 12.741307037124612 1.956099655981683 -0.931681396583789 0.12382664224037383
Ni 6.098700981048787 -0.09551633418474192 6.062510913502962 -0.716207010828431 0.44087580081644073 -1.0244804800943967
Ni 0.5854681082286635 5.167918547840789 2.454718460319153 -0.5880267196050518 -1.2722011274779703 -2.157152981215704
Ni 7.036614371746059 6.38055711697768 2.2679011227328534 -0.3814069560268463 -0.27772542127577976 -0.946049235269687
Ni 2.939989283219408 0.9516803548989305 1.7132977783208774 -0.10708901777071879 -0.23426220788582236 0.6667806378765033
Ni 3.601216023879754 1.7952139650472834 4.039031149606849 0.22766681405649178 0.6524151131834507 -0.2990208403194463
Ni 2.8658199927268515 0.497847155510838 5.860507752821251 0.04378074463037621 0.85936269241472 1.1778665811594424
Ni 6.74468507093193 7.6192722594525994 4.081328359794195 -0.5748585576542099 0.5141823228200757 0.549611353051647
Ni -0.278624290670901 3.838196622703908 11.440333502945455 0.9191539535407397 -0.5506395372058451 -0.2056535430101942
Ni 4.597011158207835 8.700712209692993 3.703656169487887 1.6534723292579006 1.088633360623222 -0.5599453879878035
Ni 4.255146823458529 1.9250927152054056 7.928940962740688 -0.3028060183934914 -0.6975775686527019 -0.08038682588918414
Ni 5.024172010174604 3.8064372811867666 3.4749036690417823 0.5730073633780842 -0.006319000239492344 0.04592992976289509
Ni 8.060777518194067 4.310022199407483 9.179797064457631 -0.8916572907823676 0.05048823855753886 1.575555562175764
P 4.543996430549783 7.471181153855931 5.560360435959716 -0.1186219581109828 0.1516917440817581 0.5786517061480551
Ni 7.096329266402386 4.384741435207696 5.409856903613463 -0.14121681269236325 -0.33372610501111555 -0.8507978335638444
P 8.445088464939298 8.072133888797167 1.3818127446780695 -0.9657153462400465 0.06553227737485488 -2.5298179293838627
Ni 7.123808200274937 5.327393521305938 11.282049161071381 -1.5954505013274782 0.823910265144381 -0.2411406801732105
P 2.2894314815275907 2.7114686763780314 8.54363041489166 0.27604726224240844 -1.0674433568091681 -0.6943243518227269
P 2.9138943783711246 3.9765445305999347 3.9754574720418008 -0.030512823876876483 -1.2402901377019866 0.8570736392702272
P 4.280710114509412 2.3800533024741934 11.666670826915437 0.8020201499395091 0.6806998190607567 -1.7529146291166393
Ni 6.140826791615246 0.13133243892136007 11.677537746194721 -0.08155282117282729 0.691729594512357 0.37288991969477064
Ni 6.417660093734213 3.1924875054745923 7.628767065189282 -0.3673062549594061 0.014422603183233225 0.17566779528138135
Ni 4.628743002459593 4.497196084868246 11.208589300025702 0.48793341642587573 -0.9285803890609621 0.7875468960239985
Ni 8.569321109938816 6.624577015739831 8.733237808338801 -0.645593462275927 -0.2372248900585721 -0.4950602572786441
Ni 3.6948167152428275 9.363093835499418 11.137985488277781 0.5639197992545192 -0.05007377672793957 -0.12564261240319005
Ni 2.884334818084608 7.448010124893353 2.056400406587921 0.9355336804503436 0.12057908183735364 -0.9299268757865277
Ni 0.013841206818191995 6.392115134193586 11.23796737836069 -0.7306645810146577 0.8360787821861149 -1.0602476103916774
Ni 1.2550118550917957 6.5319570601754116 0.5262655792839684 -0.8547305929593473 -0.804759403247543 -0.10718774813211218
Ni 6.713888133703186 3.30468551399157 12.17770292117733 -0.8627449786233916 -1.4777888502472356 -0.03339863006510377
Ni 3.398469520457195 4.9578302745610205 2.1074976582732776 -0.537042772358017 0.6931961517555545 -0.0663390895468664
Ni 0.6137682937606478 1.09139396030897 6.9731351014588245 0.9176359742343163 0.4121907741769224 0.5251863872400633
Ni 1.3537911981019641 5.0161886374584626 8.65815377548451 -0.2717545484043255 -0.8501116061300973 0.5030610160959337
Ni 6.971390858258042 7.583864947394671 10.348338269100113 0.5218958894142496 -0.8861759559528222 -0.0942134473596313
Ni 2.1434943283859096 7.317324788284001 11.833607641629968 0.7672171833277108 0.1520385858982156 -0.6365071837039425
Ni 3.325693424744034 5.937081220883778 9.838500472731345 -0.08219662540441328 0.20204474261301333 1.3953510553662938
Ni 8.19133453423163 8.718200470476457 7.51494030198613 -0.7325414863223965 -0.32639254746417984 -1.4706895201982928
Ni 5.6480574644451 5.1530241957584355 9.206599565601763 0.18035645900630232 0.7542811919923332 -0.6067944871308582
Ni 0.4779977962065028 2.5334605460448705 9.519639433625784 0.12534307888490026 -0.5823983176746808 -0.2964273685606572
Ni 5.588452558850302 0.23307690371530765 9.487094586894209 -0.9326579015644454 0.848511608632829 -1.484052057548128
Ni 1.5439714512445808 4.046433413447901 0.46896586110376365 1.3804872508805839 0.21905490401776467 0.4173409509192942
Ni 5.728312816342384 2.739616710374898 9.829096407970427 -1.1244945932962052 0.0750931815904126 1.2661284389213292
Ni 3.9555549513577257 3.081050254633205 0.8871864355190707 -0.703068416563944 0.7555070939796343 0.45561105014408626
Ni 4.090566524387305 8.743158821688919 7.575187727015371 -0.25186809389304365 -1.0757999563039795 -0.020311972084474696
Ni 0.5703684432314516 2.14800387990869 13.286103940125566 -2.1915319729162066 -1.1587100628356495 0.36645856224713014
Ni 6.401500867444251 2.0940084164519854 4.278234444049446 -0.12812167007130193 -1.006598971828286 -0.11122206610248588
P 8.57787275947287 1.6253541910225602 11.136067095729574 -0.8120713635279241 -1.148549063142248 1.4215472541456873
Ni 1.4549078086696712 2.9248566215037366 2.4405921985164927 1.3735244464095056 -0.3722743975979589 -0.22555413858886314
P 5.101356834104142 1.4451279479485195 2.1900004533278503 -0.22722484142306673 -0.08521278652291776 1.001350578945153
Ni 2.447898221928704 8.378939210183391 4.103959525779757 -1.6332755425950516 0.12207957764228007 0.21494653827634594
P 7.334272269514938 4.401487269825825 3.0952718402891923 0.1141747209729066 -0.5753617225428737 0.4237260285100315
P 7.141690588528889 5.159971838145157 7.435389796658158 1.8796376190682016 2.0113876299207103 0.6139838057904458
P 0.5984898965384479 7.715017737515531 5.134259145285695 0.8339015720291381 -1.4400345143165973 0.8439412156533271
Ni 6.3559653959703235 3.205053755754535 1.489951240249032 0.2022823125451161 -1.551927638344179 0.5174149708247605
