# total energy = -340870.22725936316 ev
CRYSTAL
PRIMVEC
9.23557883708663 0.00000000000000 0.00000000000000
0.00000000000000 9.23557883708663 0.00000000000000
0.00000000000000 0.00000000000000 13.51720317469059
PRIMCOORD
 96 1
Ni 2.0300172069314244 7.922538264033275 11.332350050289161 0.7242874738437203 0.16723072025762165 -0.4753769199171039
Ni 0.5284376650985398 2.658683069590075 5.3596927977458115 -0.36922789746215123 0.49721098507305983 -0.7844754561875263
Ni 1.800780900525513 5.449296385222148 9.308000718191195 0.5467995946344647 -0.6805882331835569 -1.3181994485849555
Ni 3.2516072415114112 4.577383842811719 1.9514113469305383 -0.2656075549663232 -0.2799926200434017 -2.114147424188456
Ni 0.8810095877272905 2.4434940788460384 3.1014145615510755 0.9693336597189242 1.3429789695224805 -0.5608185346213761
Ni 3.7097566090581675 6.047032293803468 13.22239282186794 -1.007641039939555 0.6387761822437773 -0.3358169261018733
Ni 9.144091356297254 2.859215196458112 7.4458300004822195 -0.9855017848383545 0.5670110365853331 -0.11239603180592903
Ni 8.99864945817549 5.349829199371793 6.962075913710624 0.2548973676376707 -0.40604043830481046 -0.8072423175703968
Ni 7.795105744965196 6.89764759103554 0.6444947215099899 -0.19292941057530644 -0.13833306338666498 -0.03575298922989327
Ni 7.652203631068953 4.974116609995907 11.183917671686586 -0.6671711884467025 1.6556343699062261 0.008152968124437571
Ni 9.047053127724395 4.388950324436157 1.3032205467039921 -0.08869380309298273 -0.5229968357879121 2.463272637363461
Ni 5.352895411600421 5.321919279628082 1.0224220027305293 2.035325114572914 -1.0533506261615277 0.9328065113271676
Ni 5.509927961369556 7.961456993947238 4.89061866379772 -0.8470828466061024 -1.893222299731172 0.06747963090921281
Ni 2.107947022549372 5.329603281357653 11.561196615261192 0.945443483364888 -0.07067268392521377 0.49111001438164453
Ni 0.5015612066451399 7.59047302102032 7.673283840140766 0.6412336426453343 -0.871503441542312 0.721741310383099
Ni 2.59879957534182 1.7427352864986347 5.753881162914978 1.7732793088159202 0.8483262320949002 -0.23097608093538285
Ni 2.149562541531888 6.0998320989572745 3.852795409523639 0.7821982301175754 -0.6134425885749951 -0.06076390945193405
Ni 7.556781628821425 7.332264703285481 6.417522163253786 -0.23663199366957957 -1.5059367734363613 0.25371106063905335
Ni 7.702343589470213 4.344536425016069 8.646508837086127 -1.6900349588732828 -0.2779529639055536 0.8221380037353067
Ni 6.457313655383429 7.077242660306292 11.860791409619301 -0.680624485738131 0.8552514984598238 0.1580156294172569
Ni 2.4280706619128822 1.1744054614593311 10.702949035541959 -0.8544446862878124 0.7851220886325898 0.7051913764442178
Ni 3.5551345454085252 6.835510615510824 8.514148213062642 1.2645071012678224 -0.5280865916059938 0.41452533584736995
Ni 5.514185563289427 7.700496473669835 0.7569905386583111 0.26283821975130217 1.0060122460868803 -0.6070109740170384
Ni 2.149664132900909 6.042848576515613 6.73512264243398 0.9432968693355301 -0.4585590770288167 -0.6357721053101308
P 3.733621345199051 6.718726719031925 5.259908831535692 -0.2149118283836686 0.2668720235010436 0.7140025469779445
P 0.16926137992553777 1.8165460338817394 11.429620091894966 -1.3616102114704227 -0.9820935304877538 0.6141470708411875
P 2.8696606363092494 1.0167541278970693 12.919459365700648 1.0595714102602591 1.8426440725629876 -1.1198208419696198
P -0.0399641974569783 6.840774895541901 3.112106591361564 -0.01026770047459522 -0.34606457197181045 -0.6833639961564811
P 7.5205412168180095 1.9348353297379461 8.59130501071813 0.6167078895898283 2.1366630887924685 -0.016194093261359208
P 5.9193319429443365 7.321625316275303 2.798304705824847 -0.13694055391451254 0.20737026859098479 0.02177441556261411
P 4.08310489020957 6.984914577024398 11.312831577626566 0.7882770893218037 -2.0747241851958265 -1.419637438717484
P 9.243521599831602 1.3072685009805205 1.4200496975199999 -2.103691261852138 0.6552559250663553 -0.2176084013792252
Ni 4.1452233945762815 0.7267246227112174 1.4222800898489565 0.7967223918756795 -0.4812644890461324 -0.7810026671475775
Ni 7.74894632111375 2.960695738530879 2.7324347092675674 0.1091816386336894 0.17222714503094855 -0.8428839780334065
Ni 3.7509749981436022 8.668523686752934 9.861692150512503 1.2894869111416114 0.638425740882894 -0.26081656133558306
Ni 0.5697345566054909 7.05206647194714 5.188821656400244 -1.1602676371307565 0.5461426777767563 0.8108498324159972
Ni 3.1001714526174213 8.652195183077591 7.049153570329944 0.9848780352114265 -0.29052283015076413 -0.40826367120837426
Ni 5.780604310756947 8.516690767961862 7.394464480747408 -1.9628210338659164 -0.8456234884517565 -0.42370623101568966
Ni 4.370820882855448 8.769403916190578 12.394153485441649 1.2998857378774322 -0.39765118579985065 0.3076736308984379
Ni 0.3841225076150071 3.9332945632199126 10.810356048660239 -0.6144224359897611 0.4566803719488651 -1.9113709456157404
Ni 7.717637708297343 8.049702951310296 4.157688655555132 0.38833170817113766 -0.5229970928982284 -1.6857846682373612
Ni 3.3196642231763387 2.029204475979258 3.0889382178774225 0.8367449550152042 0.46486470753187037 1.5943510976157123
Ni 9.205674197081857 4.766269904558373 3.690926187031214 1.3692165630627708 -0.8952696907239743 1.4897460226091117
Ni 2.5741682861437796 8.440681952776307 0.4095656042073138 -0.052490870809864434 -0.5687742991333431 0.692863451006484
Ni 4.630414537440571 5.434657992504152 3.5147565940122623 0.9409070289471152 0.9113719956024756 0.8508310007946249
Ni 1.2886495737127102 0.07671071918969813 4.477303414515639 1.0231386213545217 0.023892490346881436 -1.0626559627228536
Ni 1.5879746891639643 2.970697870589926 12.441504298984338 1.8340164787949769 -0.5046304174655825 0.5122851057973629
Ni 5.5625522905223255 5.457405223585807 10.141173700920298 -1.057863426430217 0.5472297401933479 -0.9764725847565504
Ni 5.232620466258807 4.298321587690612 12.207116386611172 1.5088189800801628 0.4800283026461862 -1.7519756622421374
Ni 8.158230240161506 9.203060528224322 7.753562263498895 -0.8251611068323468 1.7973348071032271 0.754930652650874
Ni 6.249716310578946 0.5029012891583141 9.282087530627692 -1.9506378615361633 0.5261940025689713 1.7454283480419233
Ni 0.3411133397611057 8.4455306317523 1.579201812670069 -0.05148428392222101 0.5442801706467207 0.7465740531560627
Ni 0.04340445063518232 5.445676038253407 12.961565293928164 -0.44781135159400937 1.7569402053362644 -3.1577448276179614
Ni 3.867675774411484 3.317346092846864 13.492696977421554 -1.4235020638792129 -1.6693782018548797 1.407082484870609
Ni 5.976103047068954 3.4829307887717493 4.107891337134842 -0.9448228190617534 -0.8480943185897524 -0.36161280411905466
Ni 5.516439044565889 5.388461626336699 5.799204766866754 0.7195188488104833 0.598548445071982 1.0300515464242712
P 1.7658519407403654 8.941194921204733 8.883275834610181 0.08638161002003833 0.22299923337749336 1.0476376349371503
P 4.447660900151172 0.8486000938938582 8.259119705178152 -0.9907638045682421 0.3578839332042417 -0.25461454628992924
P 3.602882488848296 3.4765582392604455 10.540782427405674 -0.057246897437611084 0.163386406810867 0.25179173212915346
P 7.517558124800399 4.5228569843845605 5.100662513479803 1.1220412466597063 0.261844231269149 0.9019021084388273
P 0.8704043723594203 7.547010386237425 13.061322476959178 -2.360078326661458 -0.3784895252697353 -0.21976015761490542
P 7.093294096611577 4.577744030392793 13.302725735142179 0.5071776093674684 1.0395605143559707 0.2736656493841093
P 5.729346847296458 2.6738848326271856 1.9863532365262888 -1.1622980372972243 -0.7096098172268875 -0.4232524313077227
P 2.3414778731911614 3.896453838581373 3.6113367378666266 -1.1010373907145297 0.07557732031568275 2.45477257031225
Ni 2.699107198881347 2.319127772006588 8.423407725811172 1.5060630146015805 -0.16629226760375232 0.10667224194827434
Ni 3.598818834087465 9.250448284083017 4.578344343027916 0.596367121149947 -0.43460616575764505 -0.4443118230811832
Ni 8.582780571299386 1.058508180564614 3.6848029981529606 -2.1621360362525923 -1.7352645201350436 0.8673030303077193
Ni 3.6532348655666005 6.988636515362161 2.01269772562918 1.1321726786667534 0.4677677401112783 0.6842793088818989
Ni 3.859022036886713 3.626377801829104 5.220587430377244 -0.3303474183468698 0.9992139922181243 0.3315769198785967
Ni 4.067459819380368 4.5786121748189705 7.85776637781932 -0.3035768351212449 0.12990961520966016 -0.37827098150102595
Ni 7.290067342825845 5.600806058748153 2.674243173092459 -0.6357361098658729 0.010696817592213836 0.4491627234155813
Ni 1.177286962107921 0.7475961076975887 7.076918491483325 -1.2952508102085822 0.10465135486350363 0.6964272570983425
Ni 7.094199183353762 7.600087258761288 9.16063597252124 0.8577860919562196 -2.2624543109583812 0.7925098964562287
Ni 6.813825476014387 0.44179869848181 5.577441890989172 0.16265235685831986 1.7544876300307137 0.7582967409096296
Ni 5.2865008341558335 3.0472515849365918 9.22386921127348 0.675881571736507 -0.9350143176117638 -0.2726027553372337
Ni 1.9779562480977704 2.0139472994681356 1.0982082404621383 0.6372800573142251 0.398741590650552 -0.521007059051393
Ni 7.288617356922549 2.7557490048999385 10.91189754555442 0.014980532569232265 -1.4981908109423552 -0.6154907293532754
Ni 7.263986067724508 -0.027678106710764067 1.890773305877829 0.31969353817744944 -0.11424208387573229 -1.1238266206949032
Ni 8.463355299225947 9.174245521738424 12.925555771399795 0.13126227258281264 0.7069137584519631 0.6420759360409717
Ni 8.377843073247448 2.810238921011089 13.297859508566084 0.16625190128412012 -1.6650235244306097 -0.4787795178407496
Ni 5.755345002186778 0.7888699102570349 3.4105118431442296 -0.46149707661121814 0.8908268244612724 0.24564371024988663
Ni 4.783420374764883 1.4707105425769673 11.23217449552936 0.4289628514289387 1.4206319414202695 0.2164945994897562
Ni 0.5701520047763763 1.9157823302570471 9.378411848943704 -0.4597407560417437 -1.0152864722999548 -0.2536472972806535
Ni 6.697170877641514 2.798445086625676 6.554235515660864 0.003699303228458145 0.6741992989380776 0.05742301800415917
Ni 6.1476169847130535 1.5823040436568039 0.0714085732847131 0.039655409608092995 0.211199669639404 -0.14876788556674378
Ni 8.927350788280899 7.473264287907334 11.122779062251974 -0.44972759478011576 -2.302646566906551 -0.042208772157566014
Ni 1.4777849960924152 6.4463694942661895 1.42855197154914 -0.7013300937165986 -1.079433696401825 -0.04675062589197755
Ni 8.193944224161815 0.222311469270294 10.411152764093046 0.6824345423636764 1.2295622097615213 0.3324320687900404
P 6.063176085898773 5.997252522983283 8.039127289795232 -0.7807802667241263 -0.22999623352061682 -0.7501409445717145
P 6.57674816303587 0.20079811154329147 11.90739875905234 -1.2965543595113542 -0.5679420330400348 -0.46240493313746817
P 9.015956933225032 5.937692274000094 9.333250791182362 -0.8663041567295596 0.6419278404988815 0.42201393091493133
P 1.7682993691758662 3.956928409885749 7.447763007167316 0.45099463441799753 1.0149697123904842 -0.63983727651844
P 8.88928173163511 9.221901109388178 5.75032638855715 -0.15415537513090224 -0.6057699025210858 -0.15239185547257628
P 2.5447067891277504 8.716650288931781 2.6317179495782566 0.1028487544371261 0.8502131647049679 0.5109658727653071
P 5.0393013265912465 1.761594338820494 5.313936968696748 -0.7797574818865667 -0.18791215986637316 -0.05811541608549346
P 1.7590453190159723 4.618980890636232 0.2915016564787531 2.219184444526152 -0.9477433351426581 0.07206339362515331
