# total energy = -340893.01797554916 ev
CRYSTAL
PRIMVEC
9.02196587672525 0.00000000000000 0.00000000000000
0.00000000000000 9.02196587672525 0.00000000000000
0.00000000000000 0.00000000000000 13.20455901487666
PRIMCOORD
 96 1
Ni 6.159115774954213 2.0800684019018334 11.420015437505088 0.5390634023324716 -0.6531149674639526 -0.13398661349251118
Ni 4.628367819219892 0.21287870185080804 6.022863337255598 -0.3944853864773593 -0.6698104258417625 -0.18680684261733635
Ni 2.8936512552940834 1.5142467798504644 4.924455211644358 -0.10999487856360411 0.03346625007824559 -0.5546334888565868
Ni 3.408525835127771 4.161057044339563 4.8206944824356945 0.24206087799463474 0.31484032385020616 -0.4595260689277764
Ni 5.091131523216972 4.469924051657131 2.796857288260112 0.37564279984955956 0.7944423375922511 -1.0864522938115029
Ni 7.322805042424616 6.094491432222631 2.6274428099949074 0.4339600475332139 0.25992747386241044 -1.4419260749123552
Ni 4.9053692424905595 4.456219685245114 11.498807875703049 0.23203280433467136 0.5335869525989326 -0.6370635704280448
Ni 5.457315080775186 7.992460471609558 12.542297489646595 -0.039656695159673634 -0.4163456768855604 -0.055892440292245674
Ni 1.6681524984960143 6.485431264589648 0.5134238476947462 0.6087233287224548 -0.37617630375552635 -1.0209567832118547
Ni 2.7510049502641993 1.5969330985905117 0.4214340775761135 -0.34870612335971557 -0.15320098163743293 -0.044482141572775004
Ni 0.8907802079946597 9.005131049566632 4.533878062312075 -0.6381886851714236 -0.5912660524779558 0.6321131684013049
Ni 8.898933487331051 2.27115364259078 1.408979382313422 -1.4584392420760302 0.35380796336265513 -0.22297557922840955
Ni 6.6730791362180435 1.0219361370782998 5.013322479317173 0.6334514275967542 -1.4198289859029998 -0.6782886385161028
Ni 0.8005046114232838 7.1785618494059715 2.6306780870162036 -1.3975861153443996 0.15072449507248237 0.756054224732356
Ni 7.785965712927376 3.8120152222539168 3.571344354022452 -1.3209911523974798 -0.6832683511188813 0.22160569546407638
Ni 7.429065758422463 3.798924349532497 12.460284209572997 0.7598918533108913 0.3823212403109996 0.1935451897824344
Ni 7.817335088842175 9.044069854987479 7.162786941788189 -0.1498678034991419 -0.6674614659936118 -0.898252170391066
Ni 6.753546051312695 0.8327040082135979 0.5063028099007998 -0.7714623317573102 0.0665306367323822 -1.7284284710498168
Ni 1.6475373060987413 6.552094571645863 9.103328834516146 2.3122912890851657 0.9143323637823803 0.3223566868319094
Ni 0.06756640585663795 4.842422985442081 1.2423968991876058 -0.4735671204018747 -0.8248901125591471 1.340550048366014
Ni 6.345644922793872 2.259235625454326 7.178433737488229 -0.31825963394440027 -1.2317628169572656 -0.15581707910404133
Ni 3.247393521685628 4.298028532731422 0.6127340410567694 -0.7901267409360327 1.179197384155724 -0.3116886655951019
Ni 6.284827849730407 5.46064418624328 4.5605244390058814 -0.9367151023529545 1.267853392032236 1.5838697384684142
Ni 5.0028064757030535 2.9220072945521265 9.292418416317444 0.6514239529147748 -0.7161741007079665 -0.2438231121013801
P -0.044755266925668495 5.407667201667004 12.417474980721765 0.840013855574463 1.1368536290821905 -0.8515516810107334
P 3.893600861137304 6.0651519986664235 12.655421215209698 -0.582292902445068 -0.01430870331318826 0.5920944619165223
P 2.2082073855423014 8.315528053471244 1.6236065411824319 1.3914200957430036 0.9453195561925138 -1.3619411124472802
P 6.565392949586161 7.877737151467884 5.690385844816075 -0.29939956381510374 -0.03570131005635142 0.03593553755434456
P 4.6527181055569775 1.0571939803555614 12.744261416984397 -0.021652031052136905 -0.4570071591606645 -0.5759114243987566
P 4.089846666400097 6.033566095566707 8.362460320801928 -0.6210062598548659 1.0747612306268202 -0.7937275709134137
P 4.721582772326512 1.049777924272166 3.704010560220886 -0.05419936886053891 -0.29271752380923777 1.2622375885073553
P 0.2545863486487746 5.343791682116592 3.7305919787592168 0.3166843190374804 0.684007543277751 -1.4352365787073218
Ni 1.6063249652362717 1.140926847156039 2.6769472398430807 0.6135310345237434 -0.8597493863301774 -0.9160478038115901
Ni 1.8873140974958205 6.466512201807555 4.9310845522892235 0.8798060478707365 0.23110592164502777 0.35015751109426146
Ni 6.124543601095854 5.465840838681279 8.86527704302557 -0.7692979771161396 1.2154885052772744 1.9486735387209406
Ni 8.643810331703005 2.7007616213974974 10.29390446297697 -0.16102176323343237 -0.36660640067890415 0.06612260266068612
Ni 2.5729925383645953 5.052048366339516 6.88463251125784 -0.37345761927278265 0.9840699374878342 0.28597172044497204
Ni 0.4358511793051474 0.12180827007146734 9.1645446784785 0.2144821970454177 -0.05467965093106712 0.4020575423976624
Ni 1.2945258189562903 1.0920458351611044 11.39231258858821 0.3514335495932076 0.15402322042841216 -0.7585451094750099
Ni 4.08658973666031 6.697312136996633 1.6585323761094881 -0.3408138650958324 0.08144097818531135 -0.5054385151891747
Ni 5.651341482392584 7.704695842855325 7.971922868120213 0.6174064583187496 1.3445781956888003 0.9443335381301607
Ni 5.462899677752828 2.9954370761369864 4.7184647808637115 -0.6809384174341241 0.14016368883750055 0.18042562168134088
Ni 0.8154350630198909 7.6106779347713065 7.18572348604709 -0.9543538984806403 -0.4925295204369904 -0.7498085009329603
Ni 5.071373417593327 4.371882346720078 7.08260872960676 -0.4270635775236968 0.2650969338784918 -0.844549024440655
Ni 7.962994730528817 7.212141607000129 8.972260418503076 0.2341948449829967 0.4289924191152934 -0.0292943780887431
Ni 4.49680048848491 0.4051701793990614 10.337043895785198 0.504955404905169 -0.903047020676548 0.05000435694258486
Ni 8.515193183862513 7.083840227970974 4.7289221416985825 -1.4135431528942881 0.41430087854138975 0.7608891842271541
Ni 7.210896575686858 6.1750215010795495 6.852849027101887 0.7448334163158721 -0.8028593580113528 -0.7935308815215752
Ni 2.2880427630142792 5.227579737578617 2.8546141104434217 -0.00438913020663115 -0.9887429174834714 -1.2063587750618643
Ni 2.198057673749333 5.329807634757392 11.169301316679906 0.48367438403920565 -0.39690967964813584 1.7358083084536555
Ni 0.9625535566149074 3.117423078939406 3.7850738272706623 0.8305334268878536 0.4876917327287149 0.8734284264791667
Ni 3.8237798659677216 2.6101810823740306 2.505789717739297 -0.5196220057784082 -0.6482026177639998 0.46135000951039257
Ni 1.198811781257091 3.4980417821587304 8.08533619879314 -1.0295031301199689 -1.0878347759813265 -0.12419816664717967
Ni 3.6644609676992554 2.455526540547311 7.093515384350333 -0.6029154637914262 0.9373846176161533 -0.8359502270280506
Ni 4.505858542387257 6.658833451843735 6.149205145261257 -0.5360323288156317 -0.02237811058488404 -1.2020182387049814
Ni 0.7266363622889674 7.272967702029632 11.435821922004003 0.15702318359700054 0.25700001580297027 -0.17778252763153896
P 0.2514755747588054 5.627758063168745 7.753532647216672 -0.32904052660998817 -0.27501393588188766 0.2137941698394576
P 8.535573805142793 1.851830705067604 8.10054813573014 0.3897784679199932 0.25439266008711026 0.13960704500308216
P 1.8808994796426648 3.258129661271078 10.470937991561431 -1.621353337236169 -0.9368202604722511 -0.3453544332786633
P 4.039513117873014 6.195663759374937 3.8338646196052144 0.5113096292579711 -0.6629381242019614 1.1570419311046074
P 6.713975708269176 3.9621948689256925 10.243806387763485 0.48133159483864196 -0.1531567586630588 0.7766914413667333
P 6.185929058019726 7.9216380382097356 10.334773066933385 -0.3465340554090613 0.4337731283333884 -0.9692930362889758
P 2.3916690649289745 8.322971175452754 5.986538195396017 1.7323828277118742 0.38569735587208415 -0.7623038051864935
P 6.906459353694043 3.775304842444506 1.5413415482563684 -0.34384159617856264 0.3951777845586936 -0.3819553723311486
Ni 5.043766201516454 3.0169454431720406 0.39150550963761294 1.838195292763015 -0.7930048338147762 0.19449058441483924
Ni 1.274415856657156 0.8961320382485162 6.946337345779464 0.4681881154781485 1.8929837013578046 0.05974549548974872
Ni 6.931964451684017 1.0150794428892724 9.251537181608576 -1.4972400169933118 -0.792194679208655 0.5166572667231296
Ni 2.6966295609520046 1.503754233348045 9.094336640965878 -0.7399701746862998 0.2594230234221661 0.6980704491287203
Ni 6.445851899580092 1.8121160105674745 2.610488731415933 0.547356238468883 0.5945845753282276 0.024578460670312507
Ni 3.99687530637651 6.9592198110854016 10.750412335723166 0.6964272570983425 -0.17391096049127466 -2.391619591802849
Ni 7.962318083075952 7.3147754926506225 0.1194661676879522 0.11218777244986486 -0.46900006985648257 0.2569632490277639
Ni 7.722027039614695 3.9985443700935757 8.14071663512199 1.0213247080742347 -0.7897868410981108 -0.12579430748970594
Ni 2.87583287236865 8.267747721332968 12.447792395396513 0.22975043605839787 0.5718861052894474 0.5227615798486546
Ni 0.13337894151545102 5.1346895752493715 9.939639824751815 -1.2694919560769236 -1.3355801059552481 0.711140137828485
Ni 8.47548751132842 2.3238870340840236 5.870931624779204 0.8950727442218198 0.18744910418702557 -0.218677723184004
Ni 3.649168735264517 2.463077926121279 11.31551490708129 -0.33257270813296275 -0.05749295201014614 0.6574513900557774
Ni 1.0676504389938282 3.328031854135005 12.523612997981495 -0.4463905599870829 0.39255937309924005 0.4667696378640671
Ni 3.2900493771142085 8.274324734574812 8.107902842444476 -0.4393521650830627 -0.4156962162270196 -0.02470573027679616
Ni 5.781880308999211 8.026193602626364 3.545014648336587 0.015100345976548187 -0.30438596128610157 0.8781582278546682
Ni 3.1972674783774226 8.28727125583962 3.651113871142351 0.06581664138449311 0.010340205583743482 0.39503508833324225
Ni 3.1303335123400617 4.315495058981366 9.137436377123539 0.9472095741263752 0.004962486211597905 0.055292344814401546
Ni 7.315253656850647 6.277998221439494 11.061036822024974 -0.5542907608051874 -1.5867995105206996 1.2223811186320495
Ni 0.6391025411965987 0.16215540439087428 0.2746385703652644 0.07803246672439464 -0.7594329113966017 0.01547161327303787
Ni 4.602664237977078 0.14500284255906 1.6593642013782097 -0.8040958015216152 0.3407215624923422 -0.5571043189945825
Ni 5.959306293106333 5.458460870462036 0.2905848953377721 -0.02928306523483344 0.9671045132780894 0.8340504389021764
Ni 7.959304746419195 8.760662835829693 11.203658767746555 -0.12671193420796886 1.2056725476281172 0.6697998843188013
Ni 0.2286734577938741 4.654630762357074 5.728996250673131 -0.6830184398916044 0.2971668178298431 1.2808685733449812
Ni 8.102618676935904 8.88111510440562 2.0530584399766885 0.2920498083182519 -0.6404229738185808 2.1042229659858926
P 8.473439525037751 1.4299365072235426 3.677298323175002 -0.37706102035332484 -0.00682987843763985 -0.2546042618772841
P 1.8490248736297257 3.17604781425559 1.8026600879628434 -0.24809011490785018 0.40244937851944235 -1.122202969048551
P 4.777410698170855 0.938988181323145 8.091357458927032 0.5471595490770448 0.09757773584617388 1.1563299926392472
P 8.262072904694945 1.659347059642737 12.385137547851068 0.990225929786901 -0.07437044449177514 -0.2569287962454027
P 6.162986198384598 7.587338108630498 1.4200051270086989 1.3855947473104782 -0.16072660059051672 -0.24621115271758245
P 1.773907984395723 3.1309740719287733 5.888256506162348 0.7005813884760322 -0.8616967398645354 0.7977336067490133
P 6.9514067884963255 3.9794538899567575 6.003915404182183 0.014456027524329944 0.6055315612580346 -0.5973310277251132
P 2.3191414799479335 8.435745750930177 10.173676841355395 -0.20017735038697138 0.7430706679884944 0.4722864539172382
