# total energy = -340891.14532022097 ev
CRYSTAL
PRIMVEC
9.09106653305979 0.00000000000000 0.00000000000000
0.00000000000000 9.09106653305979 0.00000000000000
0.00000000000000 0.00000000000000 13.30569481022185
PRIMCOORD
 96 1
Ni 6.3458098948082995 2.0970908622371334 11.276616194105033 0.5411177137583391 0.5042360102406412 0.5224610178891002
Ni 4.6935176445493365 0.4558342576355836 5.61176991019953 -0.20877229114483403 -0.7330654771466665 1.050157830255843
Ni 2.626309117987234 1.532044713303188 4.823088070228795 0.40768594432803335 -0.7578185157216304 0.8338666050261446
Ni 3.7308009725144227 4.664008042601923 4.977288013343846 -2.615023259707612 -0.8607595727622467 0.059335147425207485
Ni 5.090115421800091 4.835729198234919 2.454914331642565 0.018778823269399916 -2.000544516558619 -0.7729970232342815
Ni 7.261016653171868 6.182316154382453 2.463735393493944 1.2831308870165967 -1.4595525297448668 0.5662371345337861
Ni 5.1659167345042 4.464486405528632 11.603190940536388 -0.24292965375283324 0.18201713453817686 -0.4608992951262191
Ni 5.656070677386759 7.8187081292852785 12.614743003742317 -0.8604520688241568 0.9052813093237054 -1.400678381116478
Ni 1.9696977469909485 6.479948581417696 0.5870447117165557 0.27677899820211044 0.5677893095122544 -1.1513973312243204
Ni 2.3652227783914883 1.527535544305678 0.48264563103771363 0.3592203926274781 0.30985906858553086 0.5912812219866075
Ni 0.5186953462448229 0.02434860347990131 4.692399443366487 0.8810275789826634 -0.1505072368553537 0.7354054381337529
Ni 8.493874367063656 2.3294948869394436 1.4675917789450292 0.6614165453511125 -0.26552527966516204 0.3941498575148115
Ni 7.090640975384903 0.6526622116968535 4.85024490415896 -1.107896579728208 0.08154433653239504 -0.4550271526161583
Ni 0.507487879430044 7.5270939882910675 2.5916166990126417 1.3173080471189378 -0.6746191600843156 -0.499026955235876
Ni 7.656396227507972 3.697400394093351 4.05931484343604 -0.4218846044259186 -0.16271766287861653 -1.0463060606099208
Ni 7.477802225580384 3.791183836388337 12.917634612763568 0.34275581931355165 0.21275055906629164 -0.49358290140216926
Ni 7.889672994596897 8.968155307789658 6.8900747747676325 0.9991384017851824 -1.2285430244683875 0.5155313806488024
Ni 6.922219876901293 0.5658025256690116 0.39363318045622175 -0.37718751862886 1.848196884060417 -0.41790350829098344
Ni 1.938615390534322 6.608323531848822 9.182167195800714 0.7897529025363819 -0.33968257970486665 0.11958432202425212
Ni 0.2845731099688648 5.021805147914425 1.3047435042426163 -1.439849909109617 -0.6189606901797469 0.8711787112130415
Ni 6.672497370464595 1.8998238096625977 6.981604541670516 -1.2987120292843053 0.8023952738907406 -0.18290570779071727
Ni 3.1857460788738736 4.0857343918708455 0.599896752466112 -0.011175299890529141 1.2258518507894693 -0.1342213552111366
Ni 5.859946935326597 5.461603673302614 4.627214678152885 1.9291776347798582 1.425799601664138 0.8511259063272244
Ni 5.406466354814916 2.8489584283058176 9.06860250184911 0.3762758054478681 0.4922526126265199 0.37011724204564
P 0.07317581269104342 5.56694186115372 12.498690993988863 0.31279166885129356 -0.2029513135876827 0.230144586173023
P 3.9123950263960006 6.0195496992787865 12.825000281277623 -0.17396109700291976 -0.1557034363443125 -0.2630945587364824
P 2.1671920762286647 8.55988460111793 1.3465896834674929 -0.30229591152629226 0.4108185764197441 1.1989773949961287
P 6.142460918727043 7.827281005020464 5.7592506460443 1.6088541763278936 -0.7107393028456405 -0.19680920524568685
P 4.90079396137036 1.1384469880064225 12.694231653029876 -0.5947977197802983 0.20821667575168012 0.5525552661713193
P 4.042060908273995 6.347764474111656 8.359675679415181 -0.6723681592666098 -0.6250377496117623 -0.0014552443892878165
P 4.5544970552148145 1.1982934789552298 3.5885457817095094 -1.2526401746269071 -0.4800133902478507 1.3454999361721216
P 9.30134289601293 5.654688835274619 3.6979849496710524 -0.18093084345253357 -0.6911801497667903 -0.4173705186056489
Ni 1.4093971347842214 1.2896041511548073 2.7700725167290163 -0.16279042509808092 -1.0079760546814707 -0.8963284710057918
Ni 1.9053784513107401 6.551649823118021 4.815290662468383 0.14635259125703182 0.2160767952260472 0.062305028686808824
Ni 6.081078037535132 5.728099197482066 9.018759820506876 0.10115156924036127 0.2931929207837596 1.2549292277714001
Ni 8.637667766324979 1.979652464838274 10.339895426804755 0.2823148404186751 1.1710004501672284 0.14701567876232746
Ni 2.4007233931803524 5.253881894221754 7.005328588879996 -0.48741456780792836 0.028824123320543904 0.2506198233082394
Ni 0.9288524492209522 9.192795561677707 9.090530154312807 -0.9580223484711629 -1.2251124015202834 1.8550707283621148
Ni 1.6444102955798485 1.2645128075396306 11.552496426260552 -0.4876248840465215 -0.265251200068169 -0.5142874809393723
Ni 4.403730807927101 6.890037501394871 1.55048594175369 -1.458870158965862 1.5689177451442722 0.07138693638341899
Ni 5.653779728621896 7.973192622782633 7.920640803615281 0.021172520312557085 -0.5357824175883547 0.12611569538486667
Ni 5.204544676178434 2.957751221437274 4.988371841653854 0.933856806968553 -1.0509366174033963 0.0389180172214362
Ni 0.8739196797301172 7.614213678821589 7.192100914255488 -0.44227782337029 -0.49434831881328406 -0.6823972613678377
Ni 4.984468137687059 4.753664140693542 7.102420270284245 0.263271707744295 -0.2581513557985941 0.04299218729080983
Ni 8.221169644446102 7.4182921040930845 9.164190520849754 -0.5749099797174357 -0.2739225025899218 -0.4814220976699192
Ni 4.698981375532206 0.42695012106524327 10.618596616903679 -0.20344599383591414 -1.0381458933966317 -0.4531376489029293
Ni 8.389190736002512 7.218997743682975 4.953909426662401 -1.1662179411769207 -0.532455924318283 -0.2741880975464826
Ni 7.50852093937592 6.28999074633106 7.042384685151671 -0.16147659138266385 -0.636220505701459 -0.3463026561245455
Ni 2.285875949741756 5.304610045443742 2.6713844440425847 0.2186360713127912 0.1064092180948748 0.553158189862641
Ni 2.144264406446971 4.929776281459196 11.547200880008436 0.038127660109656916 1.2427409132353242 0.38962214484778707
Ni 1.170111172720792 3.4090954013150547 3.959801301908935 -0.564243501142525 0.5967263042615788 0.22838132362501315
Ni 3.457105323645398 3.021252321130031 3.014791300149123 0.6109087664095479 -0.11451462081082858 -0.45950575721280223
Ni 1.2702947258509538 3.3859313638036523 8.192755516015218 0.7792262919734452 -0.1294409031033577 0.18803968658317294
Ni 3.793429329820565 2.7000922139222974 7.166766839164035 0.2788986156482745 -0.42184912320229284 -0.14950887749782638
Ni 4.095816384649552 6.795917689638377 6.071854241436597 0.5325058037196119 1.4325271501959587 -0.1797252531802066
Ni 0.5276191371479596 7.06704965774672 10.990317599709297 -0.4418757028358648 -0.6105153876258711 0.8100581897526371
P 0.37295736785332456 5.572496502801861 8.028523580987361 -0.45413806514298566 0.30425689190740507 -0.7247816398713195
P 8.742878679244702 1.6399829461810838 8.171638786685751 -0.3440112889872075 -1.0479358829038596 -1.126915286922556
P 1.784621814629439 3.0689622382649753 10.434605248778865 -0.25070981191888436 1.1034429148322287 -0.1810455146535269
P 4.076834237740679 6.2719722524740735 3.6269591742137006 -1.3399797776848406 1.302862561117569 0.6994645012627696
P 6.968257037795226 4.169808575114741 10.319351434666501 -0.1322691165807722 -1.6366249186832589 -0.19978242894139786
P 6.25661744110957 7.766543589551987 10.256494891590528 0.06715078681488434 -0.13497957353339982 0.17057521124982236
P 2.4271329414419784 8.41480027040974 5.891801123331386 0.02060996294086773 1.1990627556210833 -0.7902486112258778
P 6.968038852198572 3.827157186636618 1.8389400280230328 0.12283265375822071 2.7570592258671613 -1.0590471623256728
Ni 5.300128149645813 3.1345633743255243 0.45264874792443943 0.21867232386736535 -0.9605080910074941 -0.21186172870343514
Ni 1.6533559050426507 1.1159829626176176 7.276977838673741 0.5992290160787744 0.6139490958977685 -2.546082213761525
Ni 6.989511951335908 0.5524059300344738 9.069480698875642 -0.7042449533705484 0.4596659369397503 1.0712676156512648
Ni 2.9383963408007845 1.6537195477037403 9.319441391255355 0.7360420432764873 -0.44804917863642835 -0.055451496100085144
Ni 6.120396900265437 2.0815815027416655 2.594743116791359 1.2888644470662642 -0.504981373047098 0.3621110839117119
Ni 3.9343772252588614 6.7263437575054255 10.7180828852312 0.3295475481533937 0.6349506378501 -0.18087042252824334
Ni 8.02622990490254 7.452329057171063 0.12235211885683148 0.1746097863305122 -2.022704083374794 0.5499707932735948
Ni 8.073676181108192 3.6326901825524716 7.917739844286439 -1.4717976656608072 1.9907023336572167 0.9684576848718741
Ni 3.2613655702474387 8.569939320697056 12.804136283597613 0.9136317381709299 -0.6318208339718666 -1.266622090728296
Ni 0.13731510525401236 4.656389728852097 10.04077024664574 -0.6090179771447383 0.09250803463275035 0.7974021915515235
Ni 8.961655195222683 2.2341114169356633 5.919011594554061 -0.042597008734920186 -0.18268099337442087 -0.03715706866627149
Ni 3.4383504533997065 2.8639314148761787 11.939692222508835 0.9339727637211269 -0.8500334445939941 -0.892711957299127
Ni 0.7781698397452893 3.321484793192063 12.872222008140056 0.784000830543953 0.14478241855643453 -0.4372086363774986
Ni 3.2258195001259384 8.454128224206572 7.968394357869555 0.17385439622172638 0.03632428835233099 0.439186843149792
Ni 5.896856665427182 7.902691401863902 3.483178502445517 -1.618788147612154 0.1726755454222768 1.5264454349126746
Ni 3.010870323155925 8.486546967442703 3.4679564206523095 0.4996651030405072 -0.4705360468850348 -0.052463360006038684
Ni 3.396267906445122 4.337793302405044 9.41759763654994 0.4694528411231851 0.20267132045341868 -0.28087450842772277
Ni 7.209133936500922 6.0105768166164015 11.475762370130749 0.3730768388945962 0.3735679195984018 -0.5605907348812862
Ni 0.7654950747930142 -0.5552105240581267 12.846328832457177 1.103919854468647 1.2865620241853326 0.7107719558557888
Ni 4.638498509926492 0.36686817149338063 1.6170007300002263 -0.48106471433050046 -0.3626224763304916 -1.1444882628093127
Ni 5.970048842037976 5.730235598115966 0.2860422263196665 0.8428181577924776 -1.5752249183092226 0.34881925189881213
Ni 7.844954038349414 -0.2622518143245376 11.445226386772408 -0.14445923088906087 0.3132812068932024 -0.8027449439206755
Ni -0.017039385992002023 4.647435028322768 5.688570331114983 0.5630188847068045 1.4289335193074295 1.5017291631129168
Ni 7.896073105432073 8.978991859090126 2.5860147838185576 0.029199504382091648 1.1006728082862591 0.07210735948921129
P 8.565875613959381 1.6848291773599482 3.7481076358623255 0.4216051255122868 0.5898617159312615 -0.645813548706533
P 1.6484012737853062 3.2387651788607252 1.7706152084309235 -0.6416846141398239 -0.2107607823297725 -0.4935649036800403
P 4.870738895431312 0.9403526483779082 8.090541018622872 -0.08616486602354193 0.6135366909506982 0.26572993947680046
P 8.595776131767467 1.5389721059969432 12.576755982258256 -0.09991718261262793 -0.26309995805312103 -0.06089580704410803
P 6.396210767635306 7.860881586905134 1.4211146104311783 -0.49485636879795414 -0.40302761962041556 -0.40496057497707033
P 2.051953716929397 3.1867279140588156 6.051097518341607 -0.790649189098406 0.892831770706443 -0.20772739482008737
P 6.842718500120597 4.141780817011267 6.151116523167626 0.19615460238082347 -0.4681287229951228 -0.29649216036032167
P 2.175910409028286 8.446682640720764 10.657741840263311 1.4028339940069001 -0.5613219566203559 0.680620371973073
