# total energy = -340868.32581030915 ev
CRYSTAL
PRIMVEC
9.25134298968203 0.00000000000000 0.00000000000000

0.00000000000000 9.25134298968203 0.00000000000000

0.00000000000000 0.00000000000000 13.54027560548117

PRIMCOORD
 96 1
Ni 3.139776360195893 6.945131354919825 1.2577728394626908 0.28595937914979785 -0.030069051471238534 0.16293954908143551
Ni 1.0845164595859702 6.819035547227492 10.476842719667971 0.9676896963575979 -0.41919445918826514 -0.981382106243026
Ni 7.029559112880223 5.729514110975231 10.916021558493329 -0.6534209287401457 1.368236972758321 -0.8634849421132096
Ni 3.836235978295246 0.6217170913255365 9.367230141407974 0.4126021506827281 0.48271999054573644 0.12661988871479485
Ni 4.465614106917189 5.102957642026521 8.806595043500531 0.14888795608437586 -0.8749173523198674 1.4802141718592765
Ni 2.9825867880388546 8.670247822418332 7.151689794880925 -1.8176874026176502 -0.13752059478769862 -0.4740227198820546
Ni 4.371888749049909 3.647508577200339 6.258653936123482 0.4476236610632356 -0.37214841354305583 -0.0028510962955499283
Ni 6.636090235626915 8.216783984571864 12.328353813243877 -0.678988749906921 -0.29299211762686317 -0.08551309137215594
Ni 4.660012581388135 8.387859822858482 5.327245356078712 -1.0805624106896292 -1.9928013822780906 2.0300674657184006
Ni 7.7825536892193306 9.16431580552978 2.8691301654139663 -0.007688626893509338 -0.4387772664161992 -0.040951502711697216
Ni 0.6980378972477256 0.7374254908830966 3.5797101086256315 -2.1668293279632036 0.20527353396295617 -0.37193655464256586
Ni 8.691313130864073 0.8332897592961185 9.97701670055449 -0.749671975355096 0.370523219234807 -1.1655152586829414
Ni 6.600481815685037 0.13732416292316055 5.501956047105046 0.2268204068957965 1.6675342066676055 -0.0875504335171589
Ni 3.413699380736045 2.0948001414079434 4.448928384338033 0.8017190737593225 0.7269310821141545 -1.380679569397048
Ni 3.336829970162634 4.057380085931161 13.26057466122081 0.08184052761657518 2.434903599302465 -0.7134690430719778
Ni 8.59974333596028 5.033156257650978 8.933847269091729 -2.2197868539968417 -0.8347662340222785 0.9601049420318045
Ni 2.9027199422715833 5.322612283408696 7.128170105086632 -0.052386226911200096 1.1420688547345426 0.09936516676389984
Ni 2.032695874567252 1.768042699904408 2.153161314793586 1.751357054821532 0.5602906871423641 -0.7437790069094288
Ni 5.70195435960946 6.316077023309564 4.174236577178715 1.8230918614626732 1.3753545576397086 -2.131200008795368
Ni 3.329919216799012 7.146024272310801 3.6605733240545657 0.3949037049617005 -0.07763266018281469 -0.5034207134281975
Ni 5.190725134878843 8.16006399946829 8.00660919455743 -0.6056472609002924 1.231227513279086 -1.4579605026673987
Ni 0.22022914979433222 3.97252676618398 4.911721276658234 -0.5980051709740023 -0.0005998383675279992 -0.568234367469473
Ni 6.231658516692358 1.0744324955078601 9.00379574982401 0.14481378601500222 0.4877264426213923 0.2933507865178625
Ni 8.486146092918888 2.4948744776995744 7.744523267630068 -1.0863756749372968 1.2137774361234388 -1.2153722914143843
P 8.74498942405783 6.972191533753286 11.943715343066309 -0.32449558755178304 0.20789657340810003 0.16093177462278735
P 1.7532405507989253 8.368903820660272 2.3347901602580956 0.7745435417857951 0.6350863920970159 1.0442450643158339
P 4.177962093081701 5.72969913783905 5.297795555299034 -3.2319028989886145 -0.5837373482010786 0.030149527000186787
P 7.635744124122513 8.212953928490819 0.7171224931162886 0.3190857293901215 0.6689192814860608 0.5018446271903292
P 4.57622316610791 1.8997448215704424 1.9084068542001071 -1.4002474642266467 -1.2917096298245432 0.16857129344591612
P 4.090971713057416 7.857554328468175 13.223189983386275 0.49422027787585204 -1.2769406990454848 -1.1128084152075286
P 5.824867705244113 5.234817036526801 2.135328425658756 0.09699023877382007 -1.0137690072141639 -0.08385575827439105
P 8.22154842631519 2.097788325258613 2.20001011671244 0.7657555111805199 -0.3899291345652446 0.7896467159758207
Ni 5.344954277214784 3.1873930235995926 3.3463977092906907 0.8562706837529576 -0.003155000689213921 1.0144261811821884
Ni 3.7985090007626465 4.65736669723553 2.2365011147947316 -1.3027733438378726 0.037284595383071266 -0.019430597920785893
Ni 1.5582869957365242 2.7757637596624947 13.26627533889506 -1.877279146138354 -1.6442760074706133 -1.1428013620251931
Ni 1.0730170399996481 3.9430149814049233 7.118082440471245 -1.0615470459293912 0.11515456838767264 0.10859337023038718
Ni 6.146305624412866 1.926980775924531 12.462240177037291 0.3594325086382842 0.4651624412779473 -0.924171461359989
Ni 8.872620954719856 6.382002094888109 5.837754826309075 -1.7255922871526024 -1.747583703822029 0.08854262222709912
Ni 7.89245039498435 2.223181030868435 4.545876910173032 -0.2037758663715071 -1.4172871933177524 -0.9787225571329919
Ni 8.185172144888465 7.795616585804919 9.9221516097607 -0.9462883478636863 -0.655007299390659 -0.28709015032013135
Ni 7.812713068021752 3.1756623204334975 0.25443969178006054 -0.20436079234069965 -0.9997410683661878 -0.8312713334951426
Ni 0.41641868430704115 2.9108703756227903 9.603345697729766 -0.196013705927585 1.249740741591925 0.681046403766898
Ni 5.213538947187669 5.897111444222062 12.869842331283378 0.7491045328874002 0.14405916723716483 1.7383305606548771
Ni 0.5173351112366282 3.696771979692024 1.5682349650697278 0.07200528669370825 -0.08355133966009481 1.5029265258551276
Ni 8.8668666192551 8.747061724932598 5.50627549924089 1.176700071655167 1.4912352055601286 0.953961548138228
Ni 9.055085196474508 4.762554469316368 11.542597455262742 1.7470211464503396 -1.1619031158516506 -0.024453247946357885
Ni 7.684646724229752 6.238671034831079 2.2974193594383467 2.2774592690076454 1.8142056147166368 0.9215831318075226
Ni 3.1792333389051954 8.581804981513072 11.36924116087956 1.2419454139172224 -0.36485316543322327 -0.9869552294554294
Ni 4.620574105365213 3.3865466884706747 10.806751168662336 0.1373467882139957 -0.22242587737252661 -0.3887577399649627
Ni 2.522230699515145 9.21821413096012 4.578048456119481 0.602505115726885 -1.0862268080642583 1.1699082455443142
Ni 8.845227727531523 9.251805758086375 12.158125397993548 0.42575540023523456 -1.420528840183502 -0.22076468762001977
Ni 2.1350064789157117 3.6011500964706045 10.960135663364946 0.6603472235463337 2.228747919844871 0.6629422379670196
Ni 6.54551033444455 1.0655049493286155 1.2986535998890771 0.23040940979863547 0.11628508244769005 -0.612098672952591
Ni 0.6644721738824049 7.129926935158588 3.9898859865474354 -0.34302218560106085 2.1491486228539887 -2.069593548837481
Ni 7.445878807815121 3.2664364998228717 10.154313142002689 -1.2369944976698501 -0.7057400498588362 1.4654082171946956
Ni 7.722299691016824 4.057287572499252 2.7900959405338783 -0.3263113006042832 -0.594323351247041 -0.39984125147263394
P 6.310887019779454 6.465338194351977 8.864290120176427 1.4347053887942003 -1.4185583467206926 -1.1875848368884707
P 1.2302066121566861 5.0792834548009385 0.06764397114341879 0.16764055410153067 0.4042108412952394 -0.13279773539073259
P 2.0164505159239843 3.793633542901028 3.615903213457176 0.19656957843105502 -1.1850993514624557 -1.1363640910402817
P 5.904123962360783 2.286025405164401 5.5070202323677595 -0.7864228097218843 -0.07135145515979324 -1.4114782999454596
P 7.534978494086938 7.602245010428166 4.255234862218237 -0.1399330608839332 -1.2031122431001087 0.9841802378134535
P 2.023453782719516 8.641947963597287 9.483487145616756 -1.6984877176263264 1.0525003623460907 -0.5953101406403426
P 8.888755297244833 2.215382148558484 11.949861935482362 0.15830410719195318 0.026453051985206054 -0.7147587084176786
P 7.985639174946557 4.703882450799509 6.842361883949096 0.45325514831740005 -0.5304067550987381 -0.655901271959838
Ni 1.8229679244289407 7.141222825194711 12.731488493863067 -0.0025757311469762094 -1.7977590391248395 -0.5258145077423654
Ni 2.417126189523025 1.9825628458156193 6.550473680066482 -0.15823545873754685 0.16625935748328788 -1.1422025520989296
Ni 5.294645472942524 7.63971295035142 10.193796949607245 -0.559596746399133 0.8125015090868073 2.41454046226508
Ni 0.9966379506153563 0.8754703334408304 7.897311975831182 -0.9129128577270343 -1.0143585611690464 0.9696828155282268
Ni 1.997661037903212 0.13486053023141675 13.155474776900286 0.48839261545048146 1.4233776224862067 1.126299250605112
Ni 6.353998279049173 4.045288580380619 8.086861821335763 0.6392292106207957 -0.8620656931681799 0.07292599873576473
Ni 1.7587636026839084 1.340584387767634 10.68881597079872 0.2807022445159166 -1.5547859337285803 0.779931802680902
Ni 7.07005224202691 7.5817717879466455 6.943791760425778 1.9005347742321852 0.3669717544381228 0.3756793095144498
Ni 0.5713185490243246 6.585133837331289 7.986366330521363 1.50496592488266 2.5562388425795524 -0.7599008521719557
Ni 2.529641025411077 2.858100714061744 8.706167087491425 0.9905825417953713 0.5019145611963163 0.3220396698121228
Ni 5.297938951118494 3.5884942589854165 0.6405528260622636 2.0754793181942963 -0.05263305281468355 0.49891871179278596
Ni 5.579059516661188 5.869070623010362 6.712917090021647 0.8394806087788124 0.07432339330392361 0.9396662145614786
Ni 1.6019533355976987 5.726433413692652 2.3875431694013987 -0.7863145662787941 -1.4813580556557326 0.30289703544540086
Ni 4.961994925826368 9.071173282283528 3.2756906184167556 0.24658293423470437 1.3863725060167673 -1.590745896762957
Ni 7.951908777672437 5.456460716695026 -0.004350906702692887 0.0387408682136236 1.4665991521790034 0.0975337699821159
Ni 4.653222095485995 0.5462252057532545 0.10201363623203104 -1.4275451236003351 0.7947202738439861 -0.41114690629344025
Ni 0.4025666481472664 7.346195584932885 1.0372883525962888 -0.9439499295384969 0.41839407477415685 -0.08025107164226825
Ni 0.03896203184858834 0.9920770384222294 0.579977806251032 -0.5708129268299267 0.5061797642305734 1.799574237956707
Ni 4.558608608672386 1.0667353779730089 6.974203700897313 1.5987163165629434 0.10908573648577341 -1.464095669030859
Ni 2.047701553222935 5.540102110484195 4.894999473840633 0.11100969298136365 -0.4578142284429922 0.4352970211770826
Ni 6.833375129173429 4.314437907834254 4.8425443579480785 -0.1695601397217467 0.6100993831343752 2.3870810805025466
Ni 5.823063693321883 7.346991200447305 1.6827314386692764 -1.9210161820149882 1.2957215791974137 -1.0570887530477213
Ni 3.9182953923987673 5.9326551047616025 11.097664280972625 -1.6512894626739687 -0.3882149800876153 -0.6544725099331116
Ni 3.2539379351719293 7.056369505447529 8.833107542817089 -0.889784756350003 -0.4887458850248421 0.9284238088784397
P 7.728572101700273 9.84046872532505 7.57804534690934 0.4324384686823649 -2.7494158503892905 -0.3077772463558377
P 5.589504283123744 0.46081032947438444 10.98662040865193 -0.2881784982883037 -0.39083519131928174 -0.3273191730435072
P 6.335680619531138 4.13862538183388 12.057385671718908 -0.1587507078110685 -1.0854912154498146 1.3013026728296169
P 0.43931668383890415 1.6664814543544133 5.58777428194704 1.2967950147672505 0.2161207610901052 1.1040214130435182
P 1.465764312484065 7.422472909542077 6.09553425298106 1.2946489149585252 0.7800595865080178 -0.27332754931840025
P 1.4684286993230518 5.017549241687884 9.07014360778638 2.1852147724489273 -1.3170331961909962 1.2435772930936906
P 3.4102023730098745 2.118289301769707 12.255764074030589 -0.14701927830675324 -0.7887262610440803 -0.07049656335866568
P 4.6157726582491225 2.6153362173886325 8.37803212098676 0.501844112969697 1.4142756601849384 1.129480219436255
