# total energy = -340865.98061215697 ev
CRYSTAL
PRIMVEC
9.34689293019804 0.00000000000000 0.00000000000000

0.00000000000000 9.34689293019804 0.00000000000000

0.00000000000000 0.00000000000000 13.68012260176152

PRIMCOORD
 96 1
Ni 4.572528103714283 1.8849318330170444 12.629379769362744 1.4400548260315713 0.45625176905187875 0.9949732146638993
Ni 7.003552161144315 9.154636772769145 9.590026265688723 0.3747079467401159 -0.37288657726066105 -0.6953368522476412
Ni 5.077101429353758 4.285241999999133 0.006199794136981343 -1.065603732497268 0.5686724834481561 -0.221306933276735
Ni 8.291264264955235 6.118850043469721 8.578612992853586 -0.7603677645060453 0.611420930159276 -1.0003568475733158
Ni 6.607552344769389 2.162011129559597 8.968839233413023 1.6893225061872905 -1.4756450644313555 -2.0061415510304226
Ni 4.696215538984408 5.563981086515462 6.986794116657365 0.23823070561526716 1.9815034407667682 -0.10529901574983157
Ni 7.022657210467382 3.414270468163867 12.59400271398952 -0.2569419088715252 0.13435299569299444 -0.26675323853499217
Ni 6.66213819997815 6.637107220483448 10.274921720756014 0.188715629604275 -0.17078218505430587 1.2642548760477
Ni 6.723173411367398 5.91586356785865 13.221264292035794 0.7426816600801919 0.4817956789592542 -0.13846778919231637
Ni 7.174590956429438 1.6242937212882267 5.792751901198261 1.4779575146146158 0.42120506186039075 -0.15699798678601995
Ni 5.310035350185527 2.85836400608492 10.567005584655865 -1.6092652957233835 1.9389753375965704 1.2772924259579486
Ni 4.0073775644433045 8.996403220914845 7.150914341732637 0.3471891724945569 -1.5807270790743744 -0.25333490824655724
Ni 0.13194167649184732 4.768775469461396 5.267667753526234 -0.914403840450264 -0.40674954855669304 -0.8438234591285404
Ni 3.9125533348041133 2.8148729128852 1.4369875933994525 -0.6316133459467509 2.0418040374290385 1.3232393250017083
Ni 7.6872213038480135 8.46083559803697 11.772210794443021 0.32919145036555564 -0.49395751113276865 0.33660599766207194
Ni 3.200834166161803 6.758046669207104 13.000507503424227 -0.3005277638822759 -0.7545233899101264 0.6716657338829465
Ni 5.183291480899431 0.2545130927359579 5.090045006801206 -0.1895908331203767 -1.0594102020920464 -0.6982635389761329
Ni 4.633553968210515 8.199636672727241 10.072715710711712 -1.315805494431482 0.27740609026314805 1.3159139949848886
Ni 6.909148541690808 3.304285578054023 1.4631579591527075 0.291046306754402 -0.9766399635723503 -0.8532532370828724
Ni 3.118721711023282 1.9775875834767096 5.265232887895775 0.770624409237047 -1.9443666838154707 0.6538965828249834
Ni 2.528680395652829 4.082638747001685 5.498314489637183 0.2646631887751829 2.7592518626431057 3.306838986175873
Ni 0.849019418899771 5.449687278725611 9.735144257264094 1.4840942236399732 -0.5354939398136583 -0.6080417292743979
Ni 0.8227266088480168 9.268407154550145 1.3381133550167754 0.5420481959924085 1.3303641089719476 -0.2811123354701417
Ni 8.228051227493445 3.7630871685980694 7.5823173847812315 1.1919914505965987 -0.7084211962354251 0.007487052405664524
P 1.5341242443706042 5.736889260403624 3.6254924912106303 1.345063105745019 -1.2611070744473378 0.1764833492041412
P 5.741478584874086 4.925831312795781 11.33693626830753 0.03441267315191493 -1.1757413072863234 0.4276315342120248
P 6.602542410113243 4.639358388772954 6.405129486807135 2.1374534459042476 1.442185242111013 0.45250952840062714
P 5.8382282744744085 7.634981518786068 8.565398355508698 1.5737159378638639 -0.6382871584225008 -2.671913545136753
P 8.915674105942573 0.42866814215234744 13.086788672847526 0.2841508651861493 -1.6003299409069665 -1.06605521821239
P 9.266219981584587 7.047258232883385 6.542833522842852 -0.10922020518110868 -0.20480765007013116 0.15826785463737905
P 9.221382935790679 7.163944845285126 10.615624383363723 -0.3254720925324394 0.2885978452139094 -0.06201783646369319
P 8.93312475520195 4.675269151737347 13.655033033706534 -0.5527496415703125 0.5399278072152959 -0.2731344594709877
Ni 9.332489453062347 0.6261390161951503 8.852776993464698 -0.12158181207025513 1.2718298601814806 -1.687416033193197
Ni 5.037629500150573 3.4048674937905767 6.137313895931944 -1.2771327604516327 -2.47750292203023 -0.36654932218872355
Ni 3.3247459268642934 4.060168816193148 11.635149824646751 0.7948362305965602 1.7284223004022299 0.7715626047806001
Ni 5.810038045140569 8.947098360259671 0.2673688093890623 0.3009458252563011 -0.4397812822006813 -0.45609441753840807
Ni 0.7029807583624009 6.415370877483887 0.7188863662063646 -0.04146700889553503 -0.938515645896803 0.9737883530561681
Ni 2.4521386887513668 1.139489074375897 3.2341044318494028 0.09977654326970559 -0.7760635779747473 -2.062213454323326
Ni 0.8351925600623875 7.721739379753143 8.506833527943368 -0.06582769712808663 0.16233636827979786 0.291814038158362
Ni 2.5199036631115574 7.024087285098707 10.70817077517511 0.5850077302730698 1.8085664141529885 -1.878416602176907
Ni 7.708747198462016 0.7507788998635244 1.1383861410001035 0.5158180586512859 1.3089229083790361 0.20982284389653538
Ni 6.799659036910769 1.3702171284560787 11.254746233956984 1.2061790549508904 -0.36403658306919884 0.9505576646630016
Ni 9.09020863921538 6.6415750353447125 3.6275441342274664 -2.3460164492517532 0.446091026468793 -0.0641762775675927
Ni 1.6759166114111694 7.854549382606103 3.242107241649016 1.4260253445216988 1.1569781677462074 -0.27139459396174553
Ni 1.2433050150957097 5.7780529772425595 11.913772293226112 -1.7081236980541936 -0.9594971332444764 2.4033942158402737
Ni 8.025513402747103 5.130145047215011 2.1395570884691844 0.8467848557497095 1.1037308783862927 -0.49604704667194566
Ni 2.4429133053453653 0.275561361116884 9.562870737411664 0.37583460414539144 -0.21226539189975704 1.386223896254045
Ni 4.180874592591424 2.540850050358618 8.535055536713458 -0.08624534155249017 0.4698906999915521 -0.6229502709551142
Ni 4.489415531023136 8.310388008064331 2.901513003000284 -1.8176460078567533 0.3398970097085178 1.2303271129520037
Ni 3.661224728518434 5.913358600530576 4.26484707943997 0.7283459601838101 0.317351263197518 -0.07500062187660632
Ni 6.248977488027319 4.532822502185719 8.842900131615536 0.26856638048433096 0.43387391557731086 -0.04397640558095007
Ni 8.515309290529549 4.595502766745642 11.042923205689343 -1.2635524506640368 1.477261774099172 1.5769930659532387
Ni 1.5867472520461732 3.2474471216285994 8.960986908590955 -0.06167099464723573 -0.7536453581805472 -0.40108309429953504
Ni 1.1086069398536804 8.131226762749002 12.99027545964049 0.3314249676817647 0.6425659883035127 -1.992938679186903
Ni 8.061695225608938 8.263186198337577 5.06222024098426 0.21811336604010176 0.26148067728214325 -1.0047043259087343
Ni 1.781517808696885 1.4471327110781491 12.954419843344885 1.427629198673709 -0.9654942313681759 0.5042352389096929
P 8.601852172957274 2.984061023353313 9.821903987609772 0.29070743535774446 -2.0673476902260974 -0.9966256626656579
P 5.284434210216897 7.477991103702789 12.542592933027322 -0.3468191907496479 -0.0921406239910026 -1.1564922292487245
P 5.833508093501734 5.234306822976386 2.119393036167496 0.13366445426640208 -0.018482375074903655 -0.2808343992184067
P 4.046148476670349 3.519049138864245 3.9585213546528606 -1.380941564809183 -0.16577239054454032 -0.19110469866174182
P 2.9855845669147905 7.541447160382974 8.389389817207395 -0.05474727094420894 -0.0919822440362674 1.4845405671487724
P 1.7419243698845033 2.4377538204009754 1.3168622590574195 1.6291293816371621 0.35833130515430545 -0.7802279937650821
P 5.535968448148911 1.1265062399777859 6.9639344204100935 -0.2741973535178633 1.850434258031368 2.3072501271168333
P 2.788626837298522 8.3289415906995 1.2673657870954345 -0.5059522216007996 -2.6874877454259267 -0.14296619128330218
Ni 5.067670414301423 1.1683709737928611 3.001159294746016 0.32068187023264777 1.2561972958505463 -0.9816682700248769
Ni 7.848670186899542 8.893858457645099 7.300616049642664 -0.23240792828590298 0.33424906739412114 0.8692835510728577
Ni 3.8205051323904358 0.6712527300223086 0.872368892341039 -1.345904884920024 -0.1978214485602851 -0.028901256415382482
Ni 4.134401840519856 5.297052515787416 9.785186587778169 -0.07837930854085211 0.5232362054922279 -0.7375890760486329
Ni 4.725387192084844 6.920701301457593 1.163728372032212 0.6000890500862246 -1.218714725524056 -1.2064729320422254
Ni 6.74254017369489 7.826789110350962 2.367591367982386 -0.33839085747663655 -0.628466572787653 2.354401845101971
Ni 2.090133522272718 4.406312305225003 13.644075671024819 -0.599266039964297 -1.5290257940453407 0.4014507620515989
Ni 7.605080808030448 0.8456489292784902 3.443587932795339 -1.4854188559886676 1.1322444124449533 1.7775280567899452
Ni 0.593021104863698 2.006899439972373 4.701707773320139 -0.20264792341465102 -0.22383098525016937 1.9835299842784935
Ni 6.458160953707467 7.208052833423849 6.420751883792738 -0.10765286069398877 -1.0566668350189543 1.4517312339282353
Ni 3.652223670544797 9.030939990606004 12.273313618705954 -0.20003465416152 -0.20483901752869885 -0.3704895377833942
Ni 6.060534777947897 3.271982715793496 3.6761227412953588 0.6441047935455424 0.49941262071006887 0.4783874246086536
Ni 9.14405608987594 2.4869184776609212 13.430337464378365 -0.32539341677570416 1.6307959707063076 0.6231212493153397
Ni 7.923613575095406 7.862120365948414 0.5555045456792932 2.1757590263526656 -0.7960605899219645 -1.5313744967831757
Ni 1.1539113302983486 3.114646465668655 11.395104787609018 -0.43510573110188294 0.8073952982084934 -0.7086127434209408
Ni 6.869433593269228 5.61964183442097 4.30275433875241 -0.15151510929457776 0.2279534920589752 0.3376730054740055
Ni 2.958375761347547 5.403681871304803 1.8828362596030368 0.061969499724261023 0.14300321516882467 0.47038538023978343
Ni 2.384822365255905 6.814913166311574 6.21881973771378 -0.4416175640784717 0.9355719898874467 0.5544190588529355
Ni 9.335779559403697 2.313739243875318 2.364034875190103 -1.2093656802089883 -0.1333039856031898 -0.2834247856534022
Ni 2.528671048759814 1.2859361941380314 7.536708285624268 -0.8623703688927922 0.7791964671767742 -0.4788828761878333
Ni 0.2536382235497353 0.9274884551409677 10.995234422836498 -0.5556362190894882 -0.046177526997326926 1.3449008691355417
Ni 1.8544142273224202 3.61898611898275 3.5035071251585723 0.028531274670473443 -0.5695831681878836 -2.8855583338825403
Ni 0.9713104283534255 5.134472658681048 7.459470235193173 0.2116277583157581 0.40555552824859187 -0.7305961896705676
Ni 0.7102984409040001 0.07983929075722485 6.3001208825385815 0.221646833114657 -0.5127062524951815 0.14519379506224028
P 5.783090952577751 1.6629244301200432 0.7793925434509524 -0.2830861713670609 0.7669505599298856 0.39653969790322674
P 8.808736302955685 8.687376244046343 2.7778723021952345 -0.04312691309646121 -1.7229196254164458 0.6418116266359915
P 3.1416776802686095 4.568920203010416 7.833046855224637 -1.4360477617547074 -1.7286750398429842 0.5512848840993281
P 0.7536381144368737 2.2917927390756314 7.0409266475548895 -1.05188278336675 0.08841278151745419 -0.6328333343967811
P 5.516031525347492 7.40348701947864 4.59476997033325 -0.3896146886486193 -0.04559054414560536 -1.353696613050301
P 2.5819857265185076 9.146962973603666 4.995405845643714 0.14024904946245526 -0.16692887274648668 0.5022470048350706
P 8.11700079157987 2.944514319006007 4.064159004821335 0.6163075688276161 1.0298466295023168 0.17376415050076527
P 3.195459702678064 2.059522447647942 11.127466787701119 -1.7887216115129192 -1.8204978754832517 -2.412299231639387
