# total energy = -381173.66267181333 ev
CRYSTAL
PRIMVEC
9.17480884797500 0.00000000000000 0.00000000000000

0.00000000000000 9.17480884797500 0.00000000000000

0.00000000000000 0.00000000000000 13.42826015289938

PRIMCOORD
 96 1
Ni 8.690021097195586 1.7554069968097654 0.5972259228398965 3.1076021453252993 1.7368388066006994 0.26415719567304186
Ni 8.291760995917064 6.905392334292655 9.73877881376824 0.6475439011340784 -0.7373818451338333 0.2987650155548983
Ni 6.2213094138303475 1.221066131106183 8.869406041772335 -1.040342129717002 -0.5988225246689751 1.2351001088606148
Ni 1.4621709320990477 8.243253781683292 10.4720955933229 -1.034679789224902 0.27470206106842365 -1.1109145406189256
Ni 7.250521117691894 9.392527033769378 4.7116138895222 0.03684082297743333 -1.9543927005929052 -0.4987042817891347
Ni 7.851553668711399 9.265547679694212 10.450623788240378 1.1072391486498672 0.0919364783999965 -1.2951860184089177
Ni 5.718676687410275 0.06125377612803619 6.5054954471205635 0.020671155196106336 0.21882247629198442 -0.040328781526033766
Ni 3.3926699804384692 7.631174760843953 8.971246419679439 -1.6858993394383546 1.8224557705405708 2.6946122722858497
Ni 6.66368199591764 7.05829969809444 5.9955705826499885 -0.35059768395547364 -0.492010671819043 -0.27141310590450674
Ni 2.538458580018374 7.347159378997798 12.444129918673424 -0.2779614485459858 0.5342729229223636 0.6371836409456768
Ni 2.4504629886213434 7.086475535982071 3.307138742690614 0.07157848356893479 -1.8822807131180035 -0.5504055668181681
Ni 7.18360923696428 7.057345517977112 3.5560714905690953 -1.124163949429664 -0.07530992558690901 0.26422610123776424
Ni 4.234651360700892 0.13534219231501368 10.504659742269357 1.1493296500620143 0.24240412026666638 0.622573861452302
Ni 8.42478654900491 2.324070822310688 9.507866307894025 -0.5294292216768172 0.1389647834333929 -0.8928248287279075
Ni 1.5104579509211278 8.682782173036243 7.370006487922507 2.122993047504544 -0.4462347511355089 0.5583132517010192
Ni 4.263487784823597 1.5515243952015063 12.73638244387859 -0.2603856444457516 -2.5422828946200924 0.5798097310118983
Ni 0.23531090922274436 6.613238897022752 12.06153213353231 -0.43741278196850475 0.23856829146034397 0.11114621855922795
Ni 7.630560048652983 2.4701246039235887 11.767869440211442 -0.5055249042553939 -1.3495144566481532 -1.1090075534041999
Ni 8.155937126138976 4.082523855648846 13.287290261869275 0.9809308776382203 0.9574240527655318 -0.16165399750079257
Ni 6.811653312574017 2.3481179962291137 4.74597721847835 -0.9324203316323426 1.7838971935410823 1.3418492267934117
Ni 4.930588134159233 7.799431579802366 12.6240552594897 -1.2923745171020515 2.4005186940646914 -0.5025493665668378
Ni 3.5228788672184357 6.067952484396361 0.7196536542592308 -1.0044317889736378 2.7812589630418163 0.5450098497238937
Ni 8.714462787893291 4.440846014131906 8.567175911974921 -0.013545857005234736 0.9198980307956157 0.02846314043669937
Ni 2.406350507812572 6.487534841373631 6.235453299107968 0.5457315583812665 0.25960968551167546 -1.1952526378463737
P 1.0094399908534555 1.3661382081752942 2.625574307249522 0.627774431816635 -0.0798954880750624 -0.8562303174333254
Ni 4.031374296474783 3.2857742828712913 8.636748487260467 0.5365637758390696 -1.3967157969243043 1.5096502177322066
P 1.720863841600734 8.164680718944874 4.939934511904635 -0.28626816863946825 1.817085250257277 1.15497167883914
Ni 2.7325791850416636 4.834986626250042 2.4729752170241057 0.8814330419511981 0.2430006162000847 1.5873075605053695
P 2.5764331137262575 0.30391829462037917 11.884788616414971 -0.9180524929464446 1.0471275280699512 0.4425138506404959
P 5.3589874824129655 8.560757215724127 3.3209697669874574 -0.509220093718794 -1.16060213765204 -0.011663038160225075
P 8.140495922894141 4.2769288797455705 3.9422685532104764 0.21466500248018514 -0.3764385562779775 -2.061693320153798
Ni 2.302143029229789 2.6642452089468787 3.893523711428255 -1.1220880407372418 -0.14234141321510968 -0.45677653120709716
Ni 8.273796720246603 2.1497861539572325 2.8875995073147998 2.136864149059681 0.9027711413073419 1.3690322149661067
Ni 8.711958065085305 8.646780223224757 2.4736596577621115 -0.6254997768498454 0.8984768848073623 0.630947430227978
Ni 6.223474668711976 5.949478178097762 8.175809762044091 0.5956253578879163 1.2685223930748024 0.9677714574381269
Ni 6.049300098064366 7.750557373215777 10.067797550359632 -1.2218638126759989 -0.7931251614427244 -0.05571657683601372
Ni 6.525546074316797 3.755432746390632 9.012591778147959 -0.2341326242864935 -1.2835409779708218 -0.5542218552404649
Ni 4.0191442763171095 1.1354284655760105 7.647824286410442 -0.4553459694081577 -0.21289068418858173 -0.73591168834621
Ni 5.216300855637174 4.70565852111684 6.61129658999546 0.2659232864345291 0.07715572054639615 0.330209864327741
Ni 4.9665442099266155 2.6177931518888906 10.984920614861622 2.2276192055570667 1.0916320382402296 -2.0862869503327617
Ni 5.011198004455793 5.055282960838103 10.180098127802944 0.049301417338289286 -1.2949237658864665 -0.376669441341861
Ni 3.9305247979202877 8.40798747405465 1.3513933729199332 0.7676794676761102 -0.09253040323025355 -0.010611456967259143
Ni 3.2827282463428986 3.5751752774950565 6.28407703341376 -0.9565614476549203 -0.7418938740715739 -1.2432355934835557
Ni 2.710027504960973 0.09819247392008966 3.0895875109016337 -0.4962902730310033 2.1363686974805014 0.7255807387338472
Ni 6.584971311046915 0.9003460090928955 2.536611691002815 -2.003715715197749 -0.5416648445110608 -1.3605588873877728
Ni 5.8649414896260454 5.919834370798856 13.12490256811331 0.42869185715573915 -2.053240561400754 1.0759585933690308
Ni 0.7973367605420645 1.742351243858251 10.993421075233778 0.6976521306443791 -0.2324866040426383 0.866386946251353
Ni 2.462858155337784 1.1917159176895318 5.6839812303748225 -0.9866963193670878 -1.0146784064023107 0.3891259219376588
Ni 0.06882299340491557 9.070748138818209 12.334864367987922 0.9262604826785338 -0.35524726691234304 0.9993096372557241
Ni 2.802206809180133 2.967674486257127 11.56733197389912 -1.734479305229587 -0.6584908870638854 -1.7192105519959746
Ni 5.867730631507465 5.0386123332113275 4.536469541582267 0.9441448191581223 0.2587699632191995 -1.3433610354522478
Ni 2.5423211745317875 1.1674118491241334 9.39630430256076 -0.8591060963192236 0.4970770305983569 0.15704735196671663
Ni 1.0558461738673417 4.7394768664290545 4.475907546039293 1.0859411585030394 -1.3681125313653146 1.4585973649204493
Ni 2.2026330527630815 5.895273407586485 10.611252671145461 -1.071800348226283 -0.5548062669890251 -1.228416269082536
Ni 1.050066044310452 2.1382350696522736 7.708506471948963 0.7777605060611961 1.0202294181275269 -0.6928117718329423
Ni 3.393128720879492 5.30239726160837 8.155143505176007 -1.311591970570767 0.5096913769282576 0.5897789264094682
P 3.6335545860196428 5.215741192299126 4.457725827399789 -0.5950435172425171 -0.28183738656162427 1.0451297809136324
Ni 1.795785330428609 3.8599980425174127 9.322058997142953 -0.07471394387412295 -0.5545861805584191 -0.19315695320508025
P 0.9876131206695816 3.068588208473365 12.809405664761512 -1.1772410317603015 0.4762284692841218 0.4377737648523493
Ni 6.391236047994084 2.542504670708196 0.44157345623903077 0.07718014602642836 0.10845710176283903 0.17914341253480762
P 4.26095553758915 7.009654861728361 7.376331601123332 3.3905109105742315 0.4255543399680219 -4.41943297137975
P 8.478844522575061 6.312112496726439 7.313043769879799 -0.5814374964233083 0.09466467596443696 0.01796712600138196
P 4.131361363000154 6.689912774335334 10.909373404072191 -0.09165108594909376 2.287865294832318 0.6865773608874562
Ni 4.478370982207587 3.274195674139871 3.700989430850023 -0.4520958379019762 0.40338911672489236 0.12938459594412557
Ni 0.0922059111647396 2.568588652184764 5.587122773657229 0.4233660740674515 1.2530896034594998 -1.4649798714080253
Ni 4.703364818911724 4.440974461455393 1.4428662168599182 2.504637830573809 -2.150366297311174 -0.8378937239076666
Ni 4.530171952807903 1.8587795677898866 1.4740734115818304 -0.9203919397128987 -0.21338613576776153 2.5832230844778796
Ni 7.2384470692841685 4.998674390415866 11.023581424269276 -0.5551327970905084 0.7948208039775925 -0.032923233090582
Ni 1.093040848825486 5.433441055990998 0.6182931188534364 0.23451289044404774 1.052301873182039 -1.0782425043072013
Ni 7.625073512978348 5.219851506650692 1.7420209507407145 -0.057990460471854965 0.8070402288619198 0.7004029539166389
Ni 4.46604921396171 1.1159503464501743 4.470965994008594 1.0721590171172823 -0.028844177925201935 -0.13805769823809125
Ni 0.23917625617880411 4.454562353318494 11.095945893878888 1.2915445650015887 -1.381153423709673 0.07132394435596748
Ni 7.2474383819282195 8.2027194763145 7.9733648529779995 1.1765851433438574 0.9210758531538007 0.3489097547300894
Ni 4.0163734840533305 7.999965376191158 5.078071350986361 0.577883974744095 -0.4605899914159164 0.49712948110284705
Ni 0.8420767982741549 3.940626262431614 2.1973465279207325 -2.9049102560465907 -3.1762254029206525 0.4124126603797414
Ni 1.2869412584370847 8.075474052783543 1.0487402844358955 1.2364728208384255 -0.8694357603800058 -0.20254173685408988
Ni 4.745101024235996 6.294028948541312 2.8674433698171313 0.3605200852755081 1.4018112091693407 -0.037243457732490694
Ni 1.181027265413696 6.584503395797071 8.399913642292645 -0.20725148362493337 -0.6802763583700928 0.5410338957952812
Ni 8.948851628829578 7.181710051538445 5.144782303400808 0.5148834626521585 -0.11999518430942559 1.0983837551417663
Ni 7.604200822911801 1.9622438868582126 7.19592274788222 0.5705535025209528 0.2762390665382404 -0.795439668508514
Ni -0.11053075682184407 0.3400037351921298 6.038460061442993 0.025695347883575102 -0.45229715527950487 0.2024016117317998
Ni 1.1819172218692806 4.673684312377536 6.816332465072452 -0.871793461978905 -1.0704731447744273 0.8928533679729979
Ni 6.428761016069766 3.467921762383881 2.652228961834722 0.22741047507131154 -0.30427694651206305 -0.1904056157121882
Ni 3.5751936271126974 4.897567997214399 12.298111001334041 1.4140463177829519 0.41423505830046076 -0.5905052630525315
Ni 2.832768097361085 3.2814804723433157 0.5258220557137855 -0.33786815220394717 1.0308339331162504 0.5990055872140587
Ni 7.759723007227416 4.608607393414014 5.922534517034718 0.4105568381179252 0.3440292867093365 2.1419302507286786
Ni 2.174126921757913 1.0752784189490756 0.7301377082983703 -0.24097921489468174 -0.2679439164089837 -0.35469782216677626
Ni 0.2716449871135295 6.179206216153257 3.0989604955926158 -0.8352971668250839 1.5370707758370046 -2.376863773649913
P 8.59653897012392 7.016334122549655 0.8940108036023681 -0.5636891713009518 -0.18723750239685172 -0.6779479673472324
Ni 6.3608399063719006 7.40763971874227 1.3260947550783972 0.3627993682279881 1.232752948784677 0.2808814504062582
P 9.30178817453503 0.4977196162967169 8.575018538554648 -1.3877403328985713 -0.7291401739503314 1.2998762247957354
Ni 7.262264872982083 0.27585714184300264 0.17108541251776122 -1.927531100315371 -1.802381368388199 0.6364552474200845
P 5.854904248776462 4.020135155669719 12.439147997483914 -0.17595035951880664 -1.5047473811139502 -1.0172556802111834
P 5.5873576487630325 2.7182664832817465 7.239269132154482 -0.19972817866469472 -1.079231607693348 -0.3936916869314704
P 6.251916576055401 0.46347188993170435 11.776879102473133 -1.6196944614765074 0.4543977465622755 -0.7699088712272611
Ni 7.15009366034314 7.489910229435332 12.193129168886811 2.23433595545561 0.26094331672143445 -0.24479396065508163
