# total energy = -340855.08224896947 ev
CRYSTAL
PRIMVEC
9.39140159765205 0.00000000000000 0.00000000000000

0.00000000000000 9.39140159765205 0.00000000000000

0.00000000000000 0.00000000000000 13.74526553558417

PRIMCOORD
 96 1
Ni 4.095505706866926 1.190679458047555 11.172908199627832 -2.5262289264810236 0.28682532669451893 -1.520646054622078
Ni 2.747501489534188 7.127735709534362 0.2939489912054902 0.7973021756385494 1.9625798643893875 -0.9165648526573246
Ni 5.563015509318094 3.114282678280775 9.104657673103643 -1.4088645164716962 3.62015773117523 1.924220290774583
Ni 1.4755112765981948 8.492944974563523 4.282310075714919 0.743965411888622 0.9353650160829633 0.09287081728880779
Ni 4.18084537303362 6.176339772369518 10.81685011320645 0.766291586189648 -0.1332934440802285 1.5401275603854572
Ni 0.6190699225386892 4.0962476275918265 12.026516167830346 -0.11070064638137708 2.507830112258862 0.018128334169594588
Ni 8.1077284645134 4.59673420064734 3.036315262355178 -0.7236722088572247 -0.8483108054759326 0.6250444344799816
Ni 5.688672462472091 3.734875886155905 1.1749704606229894 0.17512374985245321 0.4530708002207358 -1.326818043491902
Ni 4.119002993622629 8.448833561337489 12.286205326068288 -0.3801849106942872 -0.14503567221782118 0.3775305037905756
Ni 2.435397040792277 0.9016928834374739 12.83175560047015 0.5493110482024088 -0.45830762313964296 -0.06957585131660922
Ni 4.749325693535691 3.2580556450845513 7.0610257666839304 1.6520014011393294 0.22472701470187748 -3.589782461317482
Ni 5.146272064160502 8.367635503268023 2.4545611348584986 -0.2008671773651444 -1.3231344239927276 1.3186560765064002
Ni 5.387274211532539 7.783950503606286 8.620274536339098 1.660398366953773 1.4943732369684781 0.18713542960134869
Ni 0.7794112000116946 6.3654544260064405 12.804594727957692 0.5770933605219997 -1.0983881260171406 -1.1186741299596863
Ni 7.149044799721688 3.3365489794986845 10.779862078079617 2.086592140278006 -0.23801087629497722 0.8181903319414684
Ni 7.887049310162682 0.5388983446620284 7.2288961308044355 0.7337879571349878 -1.3737933838001761 0.060949543100178895
Ni 6.162449889431195 6.0424089944226465 4.097559606392695 -0.24749027654032216 -0.21520776235753258 0.2740824252065538
Ni 4.042951423619559 5.077799355233313 13.18083024067589 -1.1787520690881892 0.7488289106285103 1.160206444875518
Ni 6.684959299194193 3.9247512433208893 5.085390425131248 2.4577319100508896 -0.8690817194746969 1.324568585336093
Ni 0.21576839046400476 8.600814613123074 12.856661597463006 3.6245044381797 1.2775202256980387 0.006677412020175598
Ni 1.4018263397935418 6.454560044207122 5.513294611927721 0.9456345163297712 -0.8555289204909264 -0.05385406970597821
Ni 1.9277072627241236 2.67552578781728 3.624214183906317 -0.6847763031229755 -2.0906771089806573 -1.34377729705406
Ni 1.656746544308645 8.959866678368483 10.76975880825876 1.1131858531516055 3.7794761385643105 1.1810151540907532
Ni 2.8071556723768025 7.042142475524981 2.702663181825784 -2.0875799581125727 0.019121808431115456 -1.2068681105981152
P 2.4458496707519486 1.6371560806106453 9.208558505355057 -0.2537647966951242 -0.7507196998933201 0.835870779940367
P 9.379202150362437 8.680660309364873 8.562764410477428 -1.3573285533759334 1.781055610327229 -0.013314457720719005
P 4.03399202651127 9.286274231718282 0.9692311479073517 -1.1859244184669122 0.5244999026959999 -2.0401202219687122
P 7.807194222519302 2.7550240022005816 6.778807575193286 -0.16342111670354437 -0.02551948442734315 0.036638477158640124
P 5.584117988670638 5.934201265406178 0.8911773310872101 -0.643506240729595 -0.1128068940911025 0.4663268938996937
P 0.9656802589695694 4.567029197446586 7.522701433565737 1.2790580024988036 -0.16828384411248437 -0.47670206648643065
P 2.3222963915520993 7.074120197908341 11.529762676903285 1.551023895582987 0.2064367010331219 0.11150283056769829
P 4.75189893756889 3.94000287948846 4.586437467953914 -2.440455639468945 0.7307414569991802 0.10219929377858528
Ni 3.411323318886735 8.648429019138826 9.282191789451014 -0.35252086912011543 1.4508143785409207 0.39824845306421736
Ni 6.958173953989116 1.199986337014342 5.1982807069760115 -0.24317467988410374 2.337809487960929 -0.14370281233901058
Ni 1.2283014127811058 7.270193880116796 7.670036558989192 0.34800189820383937 -1.920487563205028 0.5370011204868043
Ni 7.542009216076148 2.250658780292108 1.7057461820575968 -0.1982837329086843 -0.4189990553480074 -1.4360037958906493
Ni 7.746121938037954 6.678958193583923 8.552496791128904 -0.27823038593665633 1.4690884942597604 2.256083888655663
Ni 1.6832021225623675 5.360180017971307 9.93297459684848 1.8207704124183481 -0.9301950418462497 -0.23904420265549794
Ni 4.313743096806579 5.220304482823653 2.6964225954751986 -0.16359749438040858 -0.485296493023661 -0.00576364195665459
Ni 6.626770174998216 5.455728137656566 10.421907867679028 -0.05239831109605815 1.583855340290711 -0.7676534995341812
Ni 5.940822203520794 6.456344410507516 6.72192949065802 1.4515276025578616 1.1210500863910307 -3.0771466570489197
Ni 0.28270842265317186 2.1481798062400594 12.775097274731879 -2.396874669554201 -1.3400746513914918 -1.3308623887646045
Ni 4.0632462424361355 7.261065437780049 4.437466360375045 1.0567959043976507 0.2903654786372935 1.6476585507896009
Ni 2.423667180217588 3.51783120421704 5.641606514308671 0.19340326488793144 0.19124328112213515 1.798846101541431
Ni 0.5576877218051675 7.297306856481191 10.12924362020982 -2.7602008568199365 -0.9780638405030705 -0.3842480250200673
Ni 3.877174402911462 5.275544706923189 6.577618396543652 -0.6462889456810547 1.164771438538381 -0.9935066574207018
Ni 0.7623526581799368 1.8709174573637188 7.890030141024497 -1.3151611759792639 1.1042366143781177 0.037647635149444844
Ni 8.358225318883845 4.150220012477926 8.56251647747569 -2.957588817387229 0.02623630798870965 -2.143970163976843
Ni 8.08979088749366 4.5560506489983785 0.8052413109201214 0.4676265865477237 0.3561322406204576 -1.2995494375839363
Ni 6.019484583163386 8.082531334071534 0.2930380252521316 0.12983813854177642 -0.3261079263442255 -1.2758487515328867
Ni 4.685022766910473 0.43792669056373296 5.3580284478690965 -1.3038637486885738 0.2254975743193149 -0.911400791957882
Ni 7.7061803071138915 8.209766042691141 10.658793763738105 -1.1674014199620604 1.4307667158614261 -2.1988747864345224
Ni 5.467176256183825 2.4809077728538815 3.0232302225323484 -0.3268543175919467 -0.8223542335111708 1.4537564918883803
Ni 7.163948954030761 1.7585211632421172 8.881049340599807 1.4000962833607629 -0.39048037908302424 1.2033557265694823
Ni 2.466041184151133 3.312460034443378 10.76852196067054 0.4738327153584355 -1.611187709557077 0.3078024431668183
Ni 8.626706707281935 5.726698247473626 6.894749123411722 0.819751248670685 -0.05029000650380371 -3.170200279772495
P 2.7060102773492583 1.1576968556950262 5.203407473099088 -1.836369809518502 0.45291164893505226 -0.2272783203688215
P 4.362625342035769 3.8933651792371338 11.427318451037085 1.8696666238984188 0.5163348503867042 -1.401659514082825
P 9.01537925311387 5.335292803781615 10.279919267175643 -2.1491169982851055 -0.04843238446977465 0.9766314789319179
P 6.653019142417157 0.4876269268706287 2.7095902796319415 -0.8003859567701958 1.6545069411700024 1.0428924069426813
P 5.99854175763772 8.797677173064335 6.5233107386211096 1.6569037235369528 -0.4459372744997481 2.1322479904439082
P 5.934567530067838 7.277002646263034 11.762263727564186 0.21623466096015018 -0.13673280877908064 0.0071551229875425155
P 3.1493501717842887 7.742834947484598 6.315564483387609 -1.092954099485763 -0.8066553347186753 0.5681520921683118
P 7.344639520449512 3.070546921117982 13.105753498156929 0.39216676564651165 -1.6079506906770178 0.017333349072124988
Ni 3.416497981157875 2.359167034159169 1.5462595221284638 -0.38399168603488704 0.2611675169170986 -0.1795902702642391
Ni 8.681853017365663 1.0852046268911624 10.796837036437303 0.3276742423900808 0.09705117391874253 -0.6508161441274468
Ni 1.994160820311394 5.133809674262493 1.0104415571850087 -0.8496099839033303 -1.49999161159652 0.31156345287114723
Ni 8.830509512991567 8.489761289427557 5.705054823390016 1.8905789485710536 0.12387677875201891 1.4795806520403356
Ni 0.17468194768721712 6.562767773223591 3.469071047208404 -0.6545522141311114 -0.33593031175128596 -0.5387569268356464
Ni 7.730917258878288 0.13795968922512764 12.744926458012708 -1.7823434759007175 1.4401995791395519 0.6531602188795912
Ni 7.988551578450306 7.187990942078161 12.503559924259326 -1.3174612848673504 -3.0132886820526945 2.1810506137689085
Ni 0.26044516606521495 3.2043368280411384 9.877292976874635 1.7442934631065314 -2.1511247727437532 1.8059698570704057
Ni 3.0634658043258964 0.49655627149385884 2.8870971609147285 0.06435162680319238 -0.7288236711511771 0.8448770972040353
Ni 8.841732237880882 0.34413382383396635 3.8812502711976227 -0.20445309494418978 0.5346606452790856 -2.5770717201645033
Ni 7.184976302170656 6.776187374152184 2.0633566671603214 0.6888910966222974 -0.40835314559838704 -0.35430958558942205
Ni 6.38198329278903 4.977884233812882 12.768059358387067 0.013479522543673558 0.569670071474735 -0.42569703619347327
Ni 1.9162309699921218 0.03588360630090471 7.215673037378365 1.1882859767205536 0.07574547046243084 -0.940838894713341
Ni 4.310916284930694 2.6177498852908685 13.126632462151846 -2.780564250967637 2.4843099176497345 -1.4152524222759109
Ni 6.591017109179288 8.537544740671768 4.39276704541004 -0.005665682926209598 -2.1876346947443293 0.07346233085520897
Ni 0.8704082464907927 0.9664785281039558 0.6758447016565644 -0.2785489456183396 -1.3731002143878932 4.036261467253313
Ni 4.383568167561435 1.4420309299618719 8.264300033391786 -0.8954188147073289 -2.4947426829472845 -0.2832661485883509
Ni 0.027776009316013445 4.440339190118678 4.909286619244665 0.8164229556284004 -0.1441239590368292 0.3402186547139947
Ni 6.157472446593256 1.590659251383034 11.738497846723266 1.881278497105734 -0.07084597627828443 -1.3910940798621527
Ni 9.454230057593177 2.076730023011688 5.45882260447751 0.43303625016736386 -0.22470336055279366 -0.2873560023870083
Ni 5.6390201223132586 1.2297758628293254 0.0392992590559203 1.9242390598276602 -2.850040600591905 3.9197706965527197
Ni 3.0361086515203963 3.646709408113325 8.393931427694868 -1.7973959993584656 0.689535929295148 0.2819086061191919
Ni 3.45480550820684 6.381588853922627 8.715542792257242 -0.5399303783184571 -0.45704906814219354 -1.9439784472381163
Ni 8.028558949185435 8.962627750433303 1.506288777859501 1.1891123292765908 0.09566817752828687 -1.3510167522252925
P 5.568190171589234 5.610113388246891 8.481859364137291 -0.8648643389592396 -1.9772217826722784 1.8817644356032173
P 9.061077813207095 2.4141912560223426 3.085647355720098 1.6159133971675201 0.7286022991689903 1.5765737190276332
P 2.0837829655990316 3.041461750421575 13.586837435546062 0.38723487556253305 0.385451044189233 0.3083513736917528
P 5.565898669603468 0.42246656528106413 9.849802466166684 0.8517504272851009 -0.9646529664138032 -0.9551110883616389
P 9.288274600255038 6.368102801252287 0.9053386255312242 -0.7543858358909976 0.21345401289121949 1.5826782892634743
P 0.6994312067272865 8.31280850083805 2.0670953841297237 0.995704436402969 0.8214204088429917 0.3921965904431826
P 7.851493463776955 6.849985007775809 5.141031662078295 -0.23775325175821635 -2.7958147493688044 -0.7787048722523363
P 1.6861604140603876 4.645381660837004 3.1331509431971942 -0.040145718980950214 2.2537436705582605 0.2401271513070316
