# total energy = -340863.91878736985 ev
CRYSTAL
PRIMVEC
9.34335587023198 0.00000000000000 0.00000000000000
0.00000000000000 9.34335587023198 0.00000000000000
0.00000000000000 0.00000000000000 13.67494575696770
PRIMCOORD
 96 1
Ni 3.2372766417008734 7.204951451578411 13.296217848021612 1.008998582408714 2.5701168861132255 -1.133979649968505
Ni 6.367786754449874 0.5457977464462248 12.035729983497077 0.543273069538445 -1.22056206314544 -1.499941989305507
Ni 5.365375463198399 8.389885202187095 4.618562887210179 -0.09286696063406587 -1.2639090626725071 -0.744135618917899
Ni 1.8995416471542415 2.699949581799478 7.20182796766937 0.36629941096144664 -0.7767793730948493 0.2482731774529337
Ni 0.9523215597636842 0.27057798359401947 10.436363268721388 -1.002316799513164 -0.1499534212344127 1.1105281038137842
Ni 7.5277270277726345 3.5162505649917644 9.909713796050779 -0.5497589343731049 0.5920011308717675 -0.8279836638828063
Ni 2.4577137342798974 1.2012846235994763 12.79560550550154 -1.1700244594072042 -1.1156273727135624 -0.39352045146092873
Ni 5.371971872530684 8.233187778799342 9.729286117107591 -1.4215205146728098 0.7688076677432824 -0.29156952624772364
Ni 3.3799496877405244 4.222187827174205 8.40696018526748 0.5391366787725682 -1.310886202752994 -0.6743029143954774
Ni 7.683004261049188 2.3400902256621388 7.350720885794718 0.6595064728125931 0.21464340521363032 -0.902189557772259
Ni 5.600024505650252 3.801811554258946 0.26236330500344573 -0.07450979828311684 1.8789989570429382 1.1437336440314754
Ni 3.7485263950209546 1.4503224342832266 1.0817634793791868 -0.013778027620698852 0.04336653991109305 -0.8845181086344251
Ni 2.594369659058937 7.302869822403266 10.986984989867695 0.8988494376554327 1.438261995797207 0.21769479044544446
Ni 1.9864348579053057 9.100176468263083 1.1470370986940268 0.6149664814186893 -1.3326279653054596 -0.4833388550766579
Ni 7.519439471005302 5.186291358847253 7.60160120628063 -0.792310635961229 -0.1658541516250692 1.382138927551394
Ni 8.697935649333612 0.608839238013922 13.105466695039837 0.26505939577233706 0.8018304025262062 -0.2890652717686312
Ni 4.132108532028934 3.758635906207261 2.053402427661992 -1.474522263680822 0.4740725992833835 -0.13892236023123172
Ni 2.494227569507334 8.326602652034735 8.419827855143433 0.9749031833869015 -1.0498040464608502 0.6720663117554748
Ni 3.206789271090043 0.7180724129484055 10.382524982808507 0.8196869710916528 0.057771145372197276 0.7247602997150808
Ni 6.901395158665364 3.307940443089078 5.310706552937587 -0.23818416864804784 -0.6095152284961309 -1.0765885136435458
Ni 6.661523180212451 1.0495018054649554 4.375763635324115 -2.067551835817104 -0.5067893727901144 0.8232700604572207
Ni 2.652971187857935 4.2266819814076735 5.472371838707742 0.4820119087351183 -0.21216846131057654 1.6285583396250405
Ni 0.2856590945051263 2.052230770820252 8.954395822019581 -0.856027714504216 -1.0482906951401172 -0.8794599773852273
Ni 0.3852704814362285 3.318666615771037 10.955368007517102 -0.9901523962364882 0.42461023088719774 -1.0007342855173926
P 6.783126958483968 7.524699780430339 3.1574357960546373 -0.2169432569914006 -0.27756472732819937 -0.15328711359333602
P 0.2568638056649429 2.2387708732551985 0.8958727401858742 1.2491090215451972 -1.2113973659270363 1.3381021010461538
P 5.9742913167314775 3.6732656624833386 3.006997486847759 3.3828947887898706 0.04115976206776137 -0.7640225876498132
P 4.324516262028576 8.521224757405129 11.918398921921954 0.49710531273313097 1.0338794048107935 -0.7179160230997378
P 8.242073310350339 1.8015298427694384 10.989843122466487 -0.23673818023014065 -2.4933491450338674 -0.2853945077852634
P 2.6802537873625703 8.310737633555668 3.4171362445995825 0.35642097550547003 -0.015509922710141032 -1.3857806380690394
P 5.958220744420529 1.040457436862049 0.37502829459479653 -0.9592307669569673 0.22430458245247822 0.3772363695889245
P 0.34419708848335967 6.57917084047483 5.0216175124467926 -0.6728453560133445 0.2945584336727185 1.1562469460071376
Ni 5.756806019241958 8.070295710387079 0.19911252226146645 0.4192803340338521 0.2552429239025475 -1.2030317675711604
Ni 7.458184429103799 5.287255663726394 11.41551707823076 0.8175239020020629 -0.4419836891686388 0.4006994857078712
Ni 7.780829198314096 8.62469308169086 10.144361904167033 0.9840974482916599 1.346832538940616 0.45405219029739863
Ni 0.29639554487867986 6.504638889704803 11.644790887978841 -0.8230054939419246 0.7273709978650504 1.5455623582477833
Ni 1.6283320526949774 5.304241884924828 10.271744548121294 0.1603846438700657 -1.593419072719746 -1.1595628977542483
Ni 2.3314102479430274 6.5403772263846776 1.4893384202460542 0.2138383928138317 -0.023286995552398607 0.3446504652331032
Ni 8.414532975301215 8.352231477528301 4.388467796470161 -0.31815190472194244 -0.6854105942728648 -0.7252475237641445
Ni -0.07641837434536371 0.2887526796749841 2.1974816487788513 0.14884399022031786 1.3327359516382338 0.7500707534554113
Ni 5.357545730874809 4.750694759016567 6.37837744846991 -0.2532965988094541 0.3435189227318213 0.6257859406316963
Ni 6.819397866455542 6.927584585518615 5.951501002789112 1.6021050305295184 -0.2940794371537709 -0.22615654805955243
Ni 7.3502219505846 3.0738426586409138 12.646056683785362 0.6633842106004446 -0.9913924392911764 -1.0691310289242362
Ni 4.884500960217212 7.410850987634455 6.9952678563444985 -1.3368018941774913 -0.04283920665271332 1.2850916102873935
Ni 8.750949851247755 7.86951633341615 0.6698167822423815 0.49528137215051476 -0.32330079591273353 -0.5336237193741391
Ni 0.22575229887366383 7.778783003351249 6.972129969559128 -0.18208192633784123 -0.5013054668574076 -0.0623263688430475
Ni 0.38500139278358 4.513055842646397 8.12533835488768 -0.2835037185204537 -2.9871199940771263 -0.47121250412676907
Ni 0.3236790787189147 3.1251750564760052 3.455877535896165 -0.6071498135877479 0.06537441164075193 -0.05438114585404183
Ni 7.7194433494286665 9.311579241000029 6.446957681471288 -0.4170596722334495 0.028719479421879572 1.2795889353016092
Ni 1.746955300404173 4.010766367725269 1.644207348865637 -1.2222988433308886 0.2693135430630007 -1.5394500747024584
Ni 4.730363616372016 2.7512072327866117 10.085299747917496 -0.4153177498416783 0.46548665738658546 -0.38672374025406947
Ni 8.64804212832171 1.4313460782579135 4.73587993375131 2.9239629018026676 1.1277305837349998 1.054524591864971
Ni 5.223767559742147 1.22310135984719 2.7028394818086507 -0.9123577565545126 0.9451550055901916 -0.11521473220164674
Ni 4.537376598300701 7.898499423711828 2.2333096816762743 -0.4925269493338292 0.2087218975228728 0.14160119261497547
Ni 4.74452814406004 2.1877841795919126 12.540677643198707 -1.0503560623095782 -1.0771880949007577 -0.597978431501125
Ni 1.743059120954367 5.8712341001095165 7.313333446781773 2.249569998796545 1.6288452747378401 -0.6235004870316294
P 2.472737850719436 3.2459939928439643 3.5691881513867516 0.9202091342781313 -0.21419037683661177 0.5072251747759522
P 0.6335991313999781 0.5229083929303154 7.132482513812024 -0.5967895533993464 0.5348604199947176 0.22995175343592655
P 4.035348737347426 6.055186092933921 5.32053856645085 -0.10826298347416194 0.0034424500226456845 -0.7460094389018442
P 6.0174015612912 3.427432622905784 8.27823770406357 -0.9517326588077093 1.1307151202846204 -0.5320286069728772
P 5.5863645191859455 3.9959291184056256 11.737096704857658 1.0746643000376397 1.2842238629704592 -0.7764219897554306
P 9.099727987175337 5.715975553544952 1.340418406388321 0.18714134313861966 -1.666982962149826 -1.173893198333991
P 1.1343207911851882 8.460287389607448 12.86104076487509 0.2219473950742113 0.07883773623450938 -0.5758898271322017
P 3.0765802619473726 3.2366039200692525 -0.06591083619368121 1.0256189645742142 0.0008785459502113901 3.6894679875352776
Ni 1.270593638368444 9.354754889051714 4.70084515177784 -1.5265305384273131 0.41021565272842253 0.6247536427124402
Ni 2.057033255801547 1.249580430736278 2.935532025515206 -0.2598588254080041 0.7991824233803978 -1.0062932676624088
Ni 2.1867190370085123 5.3081287210186385 12.972395815955977 -0.8860882813350223 0.053041343996695745 0.5771108440234964
Ni 2.764764442334976 0.3799998943195967 6.6819748521493345 -1.788916501132545 0.5163885864427752 -0.5802103088844266
Ni 5.633408316619452 5.743127346065662 9.142426189735689 -0.5681490068445182 -0.4494437449911098 -0.0011508257749915664
Ni 0.6043918005604266 6.643284949310723 2.9222541823110837 -0.23297485653296648 1.638525478140081 1.6379114987051662
Ni 4.635734106857309 2.393758462495915 6.8453359570325345 0.1750018795626083 0.7379354036444582 -1.2100997301615353
Ni 2.4307394655230885 3.4759246405184747 11.78422085515272 0.23627178211668343 -1.8807848452987672 -3.3933967167624592
Ni 6.570901970419486 1.445529292657926 9.07335356187339 -0.17365642127830738 -2.1525699898307122 1.5206609670204132
Ni 0.787257161082643 7.43298539798599 9.548161423807194 -2.3207995836664934 -0.5323353395800187 -1.1705903592130034
Ni 3.6479731978055825 0.786348052544355 4.554112417558475 0.11612001762473549 -0.3793012225377532 -0.44997724889707663
Ni 8.409366099436124 4.934899022452829 5.526866028211453 1.3933887894336003 0.7512372629596868 0.059358030243342935
Ni 4.323553896361118 0.7573621592418789 8.339788930350108 0.6230274040499528 -0.833049765551804 1.2316869694140078
Ni 7.2960117991031295 6.035854689380808 0.2903167574685033 -1.2119198140894094 -0.8900192409583123 -1.0566452377523996
Ni 2.6623519172766517 5.401197890082225 3.442709009957181 1.1151470906430343 0.91489157871996 0.8242689340353804
Ni 6.97326425297689 0.10709728375408636 2.024343656182757 0.5564430312614996 -3.0041748926768843 0.26108061363024715
Ni 4.690364709358542 2.8456218451134405 4.329720511317645 -1.2702144360652445 0.5346809569940598 1.9793989928292555
Ni 0.22651378238723496 3.755328358185124 13.168904344901712 0.32201498722177446 1.6644442548883722 0.8838910165733874
Ni 5.770232421806397 6.791862996339049 11.51003820481593 -1.582041427010424 0.132648611407378 0.878417395053326
Ni 7.565726456603235 2.1982767683740034 1.2525086385050286 -0.8063576009725983 1.4219630015268672 1.0396785279910739
Ni 7.925071928160863 4.911615379313942 3.236285311629832 -0.6602230392636437 0.1494487136838523 -1.0795406542933343
Ni 5.397217620428466 5.781799496527882 3.2212705385462876 -0.29522203539864644 0.4116863237366781 0.5970474350464234
Ni 2.298530978197544 7.469872967453216 5.505888325332067 1.1894110914639322 -0.9979770344872297 0.02782833506617788
Ni 3.897693073476949 5.129231483787387 11.034861280320333 0.818967319316809 0.4127031950369666 0.055347623532369196
P 3.3344662307581396 6.137136668363769 9.131486054201451 0.3840006848959516 2.9680933164629786 -0.4626126782729001
P 0.008003518745092685 3.09663110391208 6.2066886103886 0.13113885963107094 0.39255654488576264 -1.061226686475495
P 7.69610364615381 7.5404433352814735 11.988893608566652 0.2240796109258657 -0.19021921073299497 1.9050989965640999
P 4.793132281944668 0.1597414887708389 6.301237767041752 1.5569947684544412 0.8761113726279685 0.5470937288361158
P 4.7637661140532055 6.084972711845146 0.5293067231155121 0.8922668993419084 -0.7397560017929647 1.472350967061116
P 2.2451617287556 2.7064805876398004 9.637363377824556 0.48840907051071375 -0.3309058619535011 0.143875590471449
P 8.746810744542087 5.495126647897327 9.595176256837116 -0.6689079686321512 0.9454028599349397 1.3954826958481514
P 6.9136349550184715 8.156796500186363 8.292241526028485 0.06307738807645911 -0.38392252335984844 -2.2230452130331395
