# total energy = -381173.80199722806 ev
CRYSTAL
PRIMVEC
9.17186799821797 0.00000000000000 0.00000000000000

0.00000000000000 9.17186799821797 0.00000000000000

0.00000000000000 0.00000000000000 13.42395592201250

PRIMCOORD
 96 1
Ni 2.3429262116694987 6.252379993341838 13.162242605801003 0.37885153659484433 -0.5460246641416532 0.49581256206363644
Ni 7.920247534895473 4.762061476069159 1.1552023007336174 0.9279167873350341 -0.6951396486351705 -0.5328269345044565
Ni 3.53714930839965 3.8384176625972257 0.1407019610437277 1.9102293758121294 0.08086736507002847 1.4697572381920108
Ni 4.626959857737797 3.710873663648418 11.593935693370717 -1.0879900706122683 -0.3524249669721995 -2.4597491975912344
Ni 2.5610974401316935 1.3083761681321984 6.223547308522661 0.2544803347049101 -0.2828578574063387 0.9382842466122872
Ni 4.032668658838905 7.2194617745271 1.6236141947588636 0.8983814968800785 1.5744111641586758 -1.5977745214749643
Ni 1.512780422452141 8.329734761780879 12.523866822481901 -1.6127805079654933 0.43462416347977406 -1.5961526696008252
Ni 6.685989233547779 1.3493010439634638 2.5481485966313397 -0.019855087052714195 -0.46317703541680233 1.9612500898343708
Ni 8.33304580619484 8.968738818070497 1.6789609161206276 0.7362299909175772 -0.30230876704209875 0.05032523061711333
Ni 2.280364898795213 2.0354576745804094 1.2567679002417087 -0.9824843381682692 -1.1767036711995928 -0.43383483480925933
Ni 8.24437218460437 5.573267357489215 7.1748094514663805 0.026576207826631653 -0.21529826518880987 0.38693791314740456
Ni 7.851192539347826 2.341449540892082 5.734163937897641 0.20437313363587384 1.7231872772555352 0.7843268464248041
Ni 6.992164537223106 5.811882680130678 3.3095686603688104 0.661001569300881 -0.4234306087567998 0.4730143332221983
Ni 9.018395312411705 4.251234277632957 11.91965441376977 -0.4092969975688951 0.6083674880449329 -0.38125654649191115
Ni 5.465369500187778 3.2576182817951054 3.7615940946988213 1.4143736192153835 -0.6423942386123388 -0.12269072886371774
Ni 3.9815354937202803 8.01733175960949 8.07310038690766 -1.169042297999593 0.10922071940174093 -1.319830042209843
Ni 0.5890082028256489 6.6145312085362615 11.419799521240545 0.19564372418267598 -1.475238573021556 -0.9475906116148777
Ni 5.184141677969431 5.301477387630879 2.007351401721303 0.9751597794823981 -1.779575683347593 -0.28091487474735494
Ni 6.750926060281387 4.622199658150969 5.470154463818701 0.2741665002799278 -1.5511257112681738 -0.16892327746869618
Ni 3.2418334966526556 8.926520708825468 0.15796066540313883 2.3595152550691365 0.5166377263391038 0.7111617350950398
Ni 4.976252113740058 7.801581904347532 4.077378764669176 -0.342574556540681 0.33265472632380777 -0.3397455717323181
Ni 0.15938597371873245 1.134761875301623 8.410404094008296 1.3523624676199097 -1.4850493884643907 -0.4910467652438769
Ni 1.165836164704655 4.411338408630396 3.0903023108455985 0.5924880978105151 0.6361775682786657 -0.22016947723818212
Ni 4.49826937526615 1.2678273388964238 1.4856564566754038 1.2653218838596336 1.1959908015639789 -0.38172294460536843
P 1.1078240984489949 4.89015578710893 6.9243853485396745 0.5601791012651643 0.7706123250521889 -0.002478029226847345
Ni 4.5449633561843426 1.7185788007358564 7.856437930761519 -0.4230652549975811 -0.11105674416921518 -0.944680122836302
P 8.288360464408662 7.853485506393504 4.421086270134984 1.1213421637101526 1.181806796754113 -0.7171932860011003
Ni 1.0563148867348784 8.885091380244154 3.3916568806040917 -2.189907807049222 -0.29167982657334285 1.839698873891735
P 5.7544851290432595 8.669983555754985 1.8678894772558787 0.21963674466316366 -0.2952654870420721 -0.08666777380188945
P 0.7827840962954639 0.8079040088742784 0.2254536917992693 -0.3791559552091406 -0.022246470103026206 1.823377253913576
P 3.3486307297721662 2.807022741714779 10.086318115518624 -0.06331418667761354 -0.14102655105842807 -0.011807791268205471
Ni 6.388747329482415 7.409686320636569 10.717417855808382 0.5788761634540353 1.2474213494301292 0.8681910893396273
Ni 4.3009366313150785 4.560702281985878 6.695372971885512 1.1275369796669548 -0.253716202845376 1.098916487716785
Ni 0.7352426347571892 5.134099965164549 9.397440191611869 0.07596761377556593 -0.8891746335698298 -0.4902312113211171
Ni 2.7050315675230094 5.18471033379676 10.842475361292855 -0.1675546792559437 0.04329377769162866 -0.5387312158040335
Ni 2.7041418963092863 5.932951340142489 8.03833166900063 0.8060305566504827 -1.6933617092536708 -0.9304621794647072
Ni 8.960529996046969 1.564564790211739 11.988720415559234 0.6281212736330924 1.371679937001599 -0.06469152664111438
Ni 7.252242031412116 5.7471843219698195 12.065438506973539 -0.03366705323514201 0.7491418138832389 0.36464593451842364
Ni 0.7126963483904439 3.5228778815073487 5.207649176121725 -1.1506776794494764 0.09471481247608204 0.749612068651438
Ni 1.6242277927402873 7.9429662523840525 1.5249478227833284 0.19325979733153167 0.16372836353131803 -1.9422504088034165
Ni 4.613220399200093 6.140987654262787 12.004118147864375 0.04277467196336504 0.9081308629573586 0.410886453543202
Ni 6.926585679716707 0.4748853985886053 4.823455210123786 0.17714823648164973 -1.6149883142500896 -0.5212477143072893
Ni 2.9569369271612236 0.6889797316435845 9.81789238690971 -0.4722232047794706 -0.7231615877693932 -1.0208343987013773
Ni 0.6870362127756676 7.324121962360039 6.851734980664404 1.5977670652757965 -0.10262532557241036 0.060179240593057653
Ni 1.754679273903015 3.393939758594769 12.180253787258376 1.4430576174136374 0.17707727403439827 -0.5578499389113554
Ni 5.974087168941957 6.225699028798324 7.569110816201668 -0.6162306928430935 -0.027548341931913845 -0.17605448919683875
Ni 2.696483386376721 6.846423551799795 3.3710100881379863 -1.1399032145417918 -1.2628399979780445 -0.13184231345599873
Ni 7.162697082344289 1.244393215689592 7.686946392679074 -0.7852017928305896 -0.6668148335485484 0.7097124042430228
Ni 6.685989233547779 3.7648409360355015 7.779088814816245 -0.48817072924766247 -0.74454930941655 -0.03999890899044079
Ni 6.924815509157443 3.2289378499877617 11.840304913373846 0.9545462169971045 -1.6798793584965197 -0.9190894188513915
Ni 0.5029659902167996 9.194522697124343 10.360434988334916 0.22027514957811095 -0.826373639083209 1.0674685536201487
Ni 2.4802841095738093 5.779982922591202 5.382214591682848 -1.1440632594567521 -0.4308832083801031 1.089133183077776
Ni 5.018470222985085 1.4997013384235922 12.40838016144609 -0.01190112231296015 0.9661634895210586 -0.22212171586854648
Ni 9.20332769057975 3.18194119741954 7.589529229150024 -0.8628668489132366 0.7463616800349404 0.548117799225256
Ni 5.554134840460076 8.556087296662055 12.841893097036111 1.3483024386179232 -1.4001680171389628 1.072023519980683
Ni 3.33113080527955 3.363993608978211 2.8227359862854025 0.98815259219764 0.06578373126402864 0.1332582199669189
P 2.070118164442882 8.982891010676424 7.6459903324959875 -1.3110612948782776 -0.029393622670768733 0.2501575389598401
Ni 6.940398513199873 5.147821079965889 9.714500668446439 -1.537343569882417 -0.4947465826929673 0.09803822042236018
P 8.138097747971273 3.447833656036391 9.805770845919435 0.742650035511308 -0.8181751624328167 -0.10930428025448272
Ni 9.06959268060761 6.630361853019624 2.1431482476609163 0.14615770163740635 -0.34784428958005253 1.2252995778304252
P 3.1094834387761066 5.282473276756298 1.8946704151625824 -2.0356732419409522 -0.29088689835840226 -0.6894220294251031
P 5.822155172495316 4.538488017247347 13.022781598522398 -0.27618250226869206 1.1407663338730352 3.207589776164547
P 4.161377485046917 6.969510022811804 6.12727112539554 1.1125667315103678 -0.40327290286200224 -0.2249108485779094
Ni 1.788560154969957 7.472935523624558 9.276450409666428 -0.48408807453785657 0.8615417023439098 1.0533650243392312
Ni 1.2190421720325733 2.689366016666936 10.00051161992207 -1.3942706778179215 -0.6849259413269624 -0.20020100453605522
Ni 8.799086772294853 1.5062317085696841 3.9475289580592348 0.36677069417091024 0.4430892635279918 -2.4817251876416937
Ni 7.018295189675656 0.7180481334750569 11.114257076469826 -0.8561688680677707 0.1599778953499503 0.9356918032947628
Ni 6.914387095033699 6.841544117926592 1.0907699267500583 -1.2787335292798494 1.7526341217617427 -0.6070744802651222
Ni 4.550521508303066 5.179766696846277 4.558896341140701 0.43326867789314416 1.4727219772472895 -1.546473557208143
Ni 7.31084109723147 1.4499256097960087 0.3856330321158064 0.08572957825833623 -0.4828647436537168 -2.2312781424658925
Ni 2.6212282079375604 1.3947017914678934 12.092998136488955 -0.19969115477917224 -0.41729672794492 -0.4206201358911982
Ni 0.1481788679862754 6.003996631085785 4.747073726271789 -0.4644494743713227 -0.22431846640954917 0.1257997068063446
Ni 5.8413243769971865 2.1183255036112216 9.680780295072696 0.3916923971132545 2.3272000878761987 0.9137158132443038
Ni 6.255810272042172 3.2315701761562 1.3573768738983427 -1.3456716858632953 0.34802066725691677 -0.5419612927055569
Ni 3.2600855143362546 9.171437104908454 2.9253884521731455 0.6029463170293616 0.47723197084797164 -0.03389305320301905
Ni 1.4294723437485586 4.239870332954576 0.7663829616111364 -1.7247345671379974 1.1213043684936816 0.8407612752634488
Ni 6.706561733881604 6.881616010016865 5.410834489160186 -0.4258312477784924 0.3608301603167592 -0.632621218385975
Ni 1.9657423045236075 1.8292007028875585 4.001291697785844 -0.07187801708722459 -1.154402179488915 -1.1712074239717118
Ni 5.313703487918436 9.095301427123754 9.45157897793397 1.0347489518999406 -0.10390264962293719 0.3600135779527348
Ni 4.8436177279498445 6.417968901512538 9.529357337310195 -1.691186555979223 0.9242923032085695 1.001307127301727
Ni 4.423720430677059 4.341329538791747 9.10418071271144 0.7486790153142073 -1.1995409808090824 -0.5562178026245711
Ni 8.086258349002579 8.140243965126027 12.33613243858404 0.047808891953162826 0.6014162535380804 0.5486232781067648
Ni 7.691491970550427 7.933115665955819 7.146968245597754 1.2077546269681263 1.0047832587757857 2.0518099996018146
Ni 0.3276530673987859 0.5175501778141316 5.9293073569134975 -0.21733689288539343 -0.7551031736729963 0.17709732863905628
Ni 5.759089406870982 8.786585515961816 6.5779803966413315 -2.7056693014309596 0.18882310171641675 0.36450632361676577
Ni 2.523089218382531 3.2855007610705527 7.943156110055436 -0.17148255355544015 0.04671951554372599 -0.32353502341072665
Ni 2.573736274487472 8.28034425161697 5.1259104040642045 0.28902773366247647 0.7157344420673868 1.7998912549764936
Ni 2.9328332575770535 3.3211793283013065 5.308516796461111 1.958767432621833 1.3283090262151318 -0.06302082380691083
P 5.817110644994823 2.343990148378693 6.138318640621618 -1.1206052855441282 0.6032329950318449 0.24384650914014777
Ni 9.05850389197471 2.6349309790025335 1.7908769688729103 -0.5459598723419888 -0.5072462578218748 0.09912862527306154
P 7.745064852605654 8.858584681196113 9.433309533700823 -0.33457122662023026 0.15471021919310776 -1.5507341322567099
Ni 4.614513632613855 1.2323688965020554 4.763141922141084 -1.0327170090715763 -0.19955488631162405 -0.27324835934103264
P 8.280867048103383 4.026395101001929 3.654175008916523 -0.5140036311503664 -0.22743078678628573 0.0709462493015746
P 4.090203787949064 8.557435561284914 11.283116672834483 -0.11869909120582137 -0.09114457862632046 0.09136312239502975
P -0.26504406080995013 6.443585929346856 13.405619045216111 0.896916739409094 -0.44606454410623175 0.6192563670432948
Ni 8.354517149610569 6.810625750282666 9.552567666933367 0.8344067938003306 1.7148281066575628 -0.9343897966538875
