# total energy = -340855.6798868789 ev
CRYSTAL
PRIMVEC
9.38192544839471 0.00000000000000 0.00000000000000

0.00000000000000 9.38192544839471 0.00000000000000

0.00000000000000 0.00000000000000 13.73139623327846

PRIMCOORD
 96 1
Ni 0.47233210637838646 7.566870131475177 5.475133228387157 -1.5505652107790135 -2.439153118607438 -1.2651192809305245
Ni 5.094432513005205 4.458722615953207 3.1520971460174034 -0.9068995616534187 -1.1265522471561824 0.5020366885964773
Ni 4.288890998656092 8.05230034419035 1.9501739658305668 1.2831144319563643 0.5271139432800793 -0.2950410297360918
Ni 8.573006597179369 4.290739238000227 6.132070670312452 0.42650950479243965 0.4013422614981927 3.252564541103024
Ni 9.004068551015038 0.9667323781642568 1.3461721627449303 0.03515186531078462 -0.06413976790270244 0.5639269983433708
Ni 8.028629745889576 7.926038389401676 3.195048539628492 -0.6126198355633837 0.4733460055300041 0.6729366301755701
Ni 7.585268087586085 6.876172768453763 10.061186400455417 -1.1927630386553005 0.38408733107248694 -0.7788910201212135
Ni 2.5029664043878173 1.7327196941637595 6.586909238208229 -0.3878815080075965 -0.7191023300983551 0.34753781408322726
Ni 7.36329172777779 2.742712131291501 11.79562673977509 0.7450141648681105 1.4134174259497012 0.49382278532711726
Ni 0.16319953408712046 6.758636004477503 11.17426743612811 -1.4333789566732926 0.45193642950597657 1.8640935006860155
Ni 5.153932685190505 0.769708187694345 11.853078837600874 1.0105839246179629 -0.6527390721817725 -3.743132309827953
Ni 5.128263736735919 5.553912319497649 5.81369502491539 -0.37991597330361665 1.7805298197307464 -2.769051108121715
Ni 1.5829747795864055 2.1067958318762 4.2932451503292555 0.3450235323018058 0.2937757898704231 -0.2432818948859294
Ni 6.592144352695677 1.7428146461144667 9.69345994999227 -0.09320608914103948 -0.2789883471486034 -0.5079561394047059
Ni 3.097667904621469 1.207284950669949 10.588142892282319 0.14642946724155428 -0.01127583002413542 -0.4147461936089244
Ni 5.043479275045828 0.9315754883455915 0.127730226145817 -0.831507874985981 -0.5707483921405784 4.029405106453112
Ni 4.81054482613119 1.892503269138192 2.244603184314075 6.290333981905902 0.6499957051086805 -0.7937162580595041
Ni 5.850418696310048 7.677379833173483 11.369074677577622 -1.609522663149828 -0.01649388388996514 0.4836527867726509
Ni 1.8119406739702364 5.0416497995529035 6.00324275887088 -2.171700540012576 0.6623408569375948 0.47658096752753404
Ni 7.278713668451004 3.917591910922657 4.1970973003466945 -1.1836145393868132 0.5143322181343787 -1.7872239439214705
Ni 3.1331128195562 7.655229106820677 5.304644876297709 0.7022855156513325 -2.3023706875373446 0.1681997690391103
Ni 9.151655622703299 4.690625053051324 12.78302374727636 1.5873962635644339 -0.2816931476742761 0.24082109205026267
Ni 3.8013967623078755 5.173550291630029 12.477211438456614 0.6088909646485706 1.5769668407009938 0.6878680546744218
Ni 2.573903143885303 0.2206291152914533 0.6835699141394889 0.034221125966399125 0.001983348978615939 1.308881513618139
P 5.115100895112461 3.890431236296917 0.947289275540981 -0.015568800972534476 -0.506266924627741 -0.4032919290253958
P 5.562806384970949 3.544754187390043 10.785791918997507 0.0557335461168782 0.6696844417868596 -1.7581573655728173
P 7.504189486509868 5.170135270709902 11.53871208901472 0.5705846128692044 1.815918997863318 -3.228775923323859
P 3.021430377157301 1.8288562858355937 2.530133646361481 -7.187737688253743 -0.054831088907266866 1.0570419589701858
P 8.310087514031961 9.216906915284309 9.303062076305254 -0.12088787132702405 0.2520771245800562 -0.9635365934211728
P 5.139109242735006 7.988109209202676 -0.11708267877699055 1.0208441688933902 0.28861687137730296 0.0001339544747029951
P 1.7353184875562742 6.091008796518159 12.753363727669516 0.03545628392508087 -1.6339648553525925 -2.660410172482844
P 8.943892880186196 2.6603388244818293 13.671774498006528 -0.5876824488917556 0.5022662881087802 0.07134657006378681
Ni 7.684284930418577 -0.25951062957520293 5.313844792545723 1.2077782811172102 -0.09895121915493281 -0.3894727637541163
Ni 2.136273842126312 6.202503600404963 10.623266945361367 2.2534091700369774 -2.443093591312425 -0.8767009265828515
Ni 8.302769612060258 1.995000806370044 5.193433406564169 -0.3203419703947257 -0.4251529907645452 -0.39024666580566336
Ni 3.7695263610285523 3.81063795902855 6.311581620255984 -0.3980422505906822 -0.8358396695921154 0.5055007358856778
Ni 2.1023769449163643 3.83226329754749 11.754432580829768 -2.1959714967447987 -0.552604631352016 2.2844349289945303
Ni 6.905819653364761 4.126048915934512 8.805038504850831 0.37688232868361543 1.0939429457615935 4.306313431144235
Ni 4.977449282639625 9.098769708069344 9.754564431455982 -2.278148067544554 0.7908487067037219 -0.4433373749830558
Ni 9.433526195572295 0.3586316117819069 3.7345139528642006 0.7961482645397643 -0.3042373515233793 -0.12379501767149002
Ni 2.765256898519706 3.6277091735872093 9.757970070450506 2.537871138705642 -0.6243468941923247 0.2365551176850571
Ni 6.21408089660122 3.928840839722748 6.897801859742946 0.33744392018233493 -1.4026689291839458 -3.7389946335104955
Ni 1.2538005378182808 1.2787658418525105 8.974140208335896 -0.21375997416741252 0.09912656839053251 0.0042430915470701115
Ni 3.6360497054498286 5.408661347284968 1.3910731204966853 3.548535281742237 0.4903780213116264 -1.1143672750542162
Ni 6.088231746539154 7.881408569299898 6.0125805894252835 -1.2397882583649036 -1.2338292125679913 -0.5396930654966705
Ni 7.485904113506218 6.072104216424596 7.415434593903848 -0.671672932971798 -0.5102212812897987 0.2205913952669491
Ni 4.120598017158155 8.045104407251511 7.509700429610096 -0.483576939229393 -2.23925113336904 2.4886810501342365
Ni 1.5802915488634484 4.039547561858752 8.069735714734211 -2.5619950283370394 -0.5443084527814949 -1.742677010549031
Ni 4.207530939811733 2.1602728078232527 4.633082888739734 -0.5919175700190257 -0.09765435472038021 -0.39863694675188766
Ni 3.3303208957679646 5.662798948066333 8.20478384285173 -2.2184136277983986 0.00022060065123832972 0.363115099696194
Ni 0.24002999924950796 4.167395062074629 4.204265091508721 1.0027096640762085 -0.2229341844675128 -1.808249911353834
Ni 8.559543533936559 2.665086078837831 8.131019390976974 0.9079233749322428 -0.5444604049783268 0.015045324368896669
Ni 2.5977613806981728 3.4502688146246445 0.8672877195241891 0.02534542074332409 -1.5984630629015566 -0.5147227687045781
Ni 7.395349767569209 0.8481429621351442 13.333309335312022 0.01937300520997309 0.7668222618821374 1.9604329932497138
Ni 5.996654770711228 6.058772500140252 1.370971406695956 -0.8102019144193531 0.5619757881542708 -1.728362650808888
Ni 0.8314140505893212 8.169724525059353 1.6820413466246023 -1.1608667041673362 3.1563913989138612 0.8185808825116677
P 2.838313953203865 7.921384954301722 9.797585251316548 1.4655056620045082 2.1192731754507954 -0.8745663967383519
P 0.6060930343029343 6.081176538484385 7.632953600857329 -0.38630593599036056 0.01653990663655216 -0.09220053069466057
P 0.5706584394863684 3.1844600983909754 10.00680969784287 0.34336105699771835 -0.32981854242659325 -0.2713143755431134
P 8.618274388222268 2.529066921420221 2.9271908108427462 1.2509828415291424 0.031314750952881554 -0.14815956255878357
P 6.204417513228331 2.423398293333965 5.275039271859372 -1.45304455342302 -1.0244982207062099 1.234798775570112
P 7.706595149506662 5.575884789263966 2.5159622477355112 -0.2730105322986137 -0.5739756408286244 1.704115091115433
P 5.264705080805744 5.933176662069514 7.835038401998441 2.6160524723030756 1.1570637854814783 1.4051204760482316
P 5.664440785047164 8.859934027949322 3.708850633564978 -0.21250424738344045 -1.5184678160238365 0.6605891643538107
Ni 7.7099069692451385 6.0714099539298445 4.947271380739398 0.6055678138126087 1.123902468238161 -0.07465737960457465
Ni 6.382899265933022 8.217253360172998 8.314099225420552 1.4355901053919986 -1.1087949231727612 0.05027175167135858
Ni 3.632456427943211 7.588167102597952 12.145818371282965 -1.0895378747153623 0.26712142050768833 -0.23837340184071848
Ni 6.819280771586582 0.9164180493385636 7.343963084646892 -0.02198627446310407 0.7780708382127632 -0.8008053036958014
Ni 8.300433512584677 6.871312930990505 0.9781970912532567 0.4864655736310977 0.149804040140742 -1.9135052183499237
Ni 7.02066380469246 0.9948312453504717 3.2300909699547797 0.1024630889629332 0.5699343808797153 0.16787915247489796
Ni 8.930701892785923 5.099911557558377 9.478947850195112 1.4017608155473793 -0.7776424924260931 -0.43817177162171633
Ni 6.905444376340572 2.5291044491226398 1.2379310106578525 0.9062470156710845 0.4908287356957998 -0.17210193230699394
Ni 7.754780719412639 8.23489138030992 12.174187437926596 2.1763778908835874 -1.6662501977488595 1.5077242043540873
Ni 4.8260343853046255 3.1841223490692045 8.608803334324277 -0.08606870676530982 1.6693602041327509 0.5983093324779826
Ni 5.881604217020224 6.593345239173085 3.563503027518568 -0.39037290697088256 1.6948244098421266 1.1917605655327153
Ni 2.1646260213038553 5.128460757173619 2.9023774940033134 -1.9684232105440422 -1.6473754723315437 -1.2010144800308153
Ni 1.843782929472745 6.465629085915675 0.9431537227344088 -0.8858895350606549 -0.34948722450011427 0.46299345865108643
Ni 6.780101850261162 8.69216643428525 1.391512194614987 -1.3609782343133787 0.2825714365141714 -0.8698774759031148
Ni 6.84873063605988 4.636847855484919 13.349114127185779 -1.1596901673607318 -0.9662336806373616 1.8949199991485688
Ni 4.8695102285570195 5.8594441087418145 10.28576343004135 0.03552107572474528 -1.0062066214858736 -0.7257689434852533
Ni 4.435962064436094 3.0293674862189164 12.454087806418595 -0.3673584483535802 -1.0627328387073762 1.4106169803864288
Ni 4.372746649711313 0.22513243958173149 6.134460246763981 0.669135511261925 2.2240816247174533 -1.3087251905459332
Ni 2.7023698511910927 -0.07527681828224153 3.7719872401146777 0.04443689015713637 2.0398844518088226 -0.7833305439498058
Ni 1.660000388801372 8.384195344383851 7.946674872961876 0.27896032212414534 -0.5211772660806703 -0.3901865019916893
Ni 8.763046882229107 7.925888278592 7.446398701169753 -0.8678211075947182 1.4612515147138447 0.8436337117152375
Ni 1.3726976810072293 8.949465743995415 11.237294274148237 0.29365314824962974 -0.23831143825453152 0.08156079159262727
Ni 0.2668942050261382 6.313810765779672 2.958003869106414 0.28996207255128775 -0.08110364945055065 1.4236966963885223
Ni 0.29115117367720944 4.293994766185074 1.505578584310052 -1.007851099067832 -0.6483319442530125 -0.042186403560062834
P 0.5663868487585275 2.583510235704563 6.262477559833303 0.9945122158670807 1.2503732329696013 1.7309106140417223
P 7.50243506642178 0.6644129602471576 11.350797748307016 -0.70017309729402 0.4699578057840616 -2.960935622372275
P 3.1531150849455183 5.261580899579363 4.529863881428877 4.6128089825741725 0.3299501829084511 2.5029912961093217
P 0.3547868986690819 8.11573154320404 13.14974820808492 0.2318775097037297 0.34510297938948953 0.7690228690778821
P 2.8597797989875238 1.3850818228054942 12.743106468405845 0.5763526257012332 0.9156454261668489 -1.018832023559368
P 2.6440424197063854 7.371819898152504 2.985672105907371 -1.7761010945354316 -1.3603133470358701 0.049601465077211346
P 1.639106840479602 9.10749489888176 5.785353165856012 1.4932851461106218 2.7736340995067073 0.21937089259628673
P 3.8397406922544732 1.4912007833207783 8.29512240449983 -0.8046059083888143 -2.562870231853141 0.4120701894386581
