# total energy = -340890.4689917514 ev
CRYSTAL
PRIMVEC
9.08696131955609 0.00000000000000 0.00000000000000
0.00000000000000 9.08696131955609 0.00000000000000
0.00000000000000 0.00000000000000 13.29968641530068
PRIMCOORD
 96 1
Ni 6.274128687985687 1.880119527050756 11.603723192765665 -0.138932901754193 0.9405213634729223 0.1862298870679438
Ni 4.70638253813051 0.4619647493758512 6.101590012761663 -0.4580695389869079 -0.6458171482509588 -0.5416499321127253
Ni 2.5919738912218997 1.4729691448473263 4.713727528844589 0.8052779947551745 -0.9424268080257511 0.7491983781527871
Ni 3.4257934482228967 3.916044090330142 4.64544719391367 -0.4570431546049226 0.4195351303571355 1.026296193146897
Ni 5.137722410969692 4.367357103821985 2.788744765799177 -0.5279963458850326 -0.5139298404896375 -0.11690266142703093
Ni 7.030218379134609 5.9125403290909215 2.849164879317653 0.2762766046443952 0.9931857837461735 -1.5327304965904378
Ni 5.271564262049331 4.418198651570684 11.5441672492545 0.23472140691042803 1.2140713132147736 -0.06920766934391306
Ni 5.596323167320241 8.16034556598182 12.276141962849264 -0.7595678943125693 -1.0473782106281768 0.604650701314978
Ni 2.15868940869224 6.482265533594971 0.14566489625851883 -0.4060702631014813 0.39700686734763235 1.1422480606248844
Ni 2.561441701689169 1.4012457603289212 0.47560518678882197 0.11591124404803908 0.33770308738099264 0.24095993162097207
Ni 0.3189023587965508 -0.03437324801948205 4.716294595375243 1.0698748490687962 1.4130541290730114 1.259241996214141
Ni 8.92381386960115 2.286279430486606 1.4668490764990247 -0.7269408523061675 1.545399607417674 -0.4679045227994587
Ni 6.805715916457334 0.7614173764831591 4.882620515247026 1.159436656589029 -1.0587262886511446 -0.18012814504558008
Ni 0.6520803335918873 7.189930808666535 2.1159934129367377 -0.7935643058626721 1.058235722167971 1.2547163404296457
Ni 7.514535235597545 3.8826222471452065 3.7871655374418056 1.506194397973122 -0.9518954096378188 1.1801044693510256
Ni 7.441521502592936 3.8364241365546112 12.385558970998837 1.5040069034035002 0.10714789603311224 1.1023165145372693
Ni 8.195566627478504 8.745763952427245 7.270313158484266 -0.22133367274961235 1.374207845629775 -0.687198796521539
Ni 6.574007493571889 0.8599754660340365 0.5090470212883323 1.1329874612585649 -0.9971733076390117 -0.4965905778802415
Ni 2.0470470037520236 6.563966401478536 9.455105771834758 -0.48197591329086026 -0.5275044938502786 -0.9032213414708833
Ni 0.025442582581158377 5.165937425403956 1.3199856100621226 -0.9764833833898279 -1.7039502834027946 -0.9755804119595843
Ni 6.481865707303471 2.077969932615084 6.94840755902088 -0.4444010403608798 -1.5043295768502416 1.1859128485026866
Ni 3.5365998527354314 4.461688847732484 0.597753027538202 -0.0582074615786675 -0.49701969499786014 0.18039733954656675
Ni 5.825441806272106 5.452776441710554 5.073737482584047 -0.10312463380633208 0.06340443239857467 -0.5640020745556803
Ni 5.311174325791346 2.955797642564597 9.61232201313316 0.31403633989167207 -0.2941468000565966 -1.1704327505892165
P 0.40196899694403576 5.878900398837895 12.452708887960153 -1.5150446492749003 -0.23292240602847625 -0.009518223903080382
P 4.2548423506094055 6.078150196422474 12.683484988629509 0.7126599169071209 1.1780185333562745 -0.5335789821791327
P 2.2712495967106725 8.286590717522957 1.3454763535374845 1.1691531125458443 1.4331956370178929 -0.1501393119929737
P 6.350422813972831 7.7750493253933355 5.6691906002500065 0.02969675573348434 -0.002634095188737399 1.5363488100693155
P 4.502343912009102 1.0082165157843794 12.860304531260933 1.1551994785792299 -0.8756781417452919 -0.7588166179688416
P 4.127161459203335 6.28533291110886 8.070050250223236 -0.2452829844763582 -0.6745026891111093 0.6289077740901298
P 4.759395869598948 0.9843723296731042 3.8661521300237562 -0.3450651841730186 -0.02467487703886073 0.09564015250382883
P 0.06051007443406323 5.558466887084124 3.6551792438331736 -0.013528887724370248 -0.018796306770896658 -0.10036198345953039
Ni 1.1795420816921478 0.7337075970899721 2.6516516000127495 1.0358061895198614 -0.525435784246708 -0.5674753778162613
Ni 1.640251013034242 6.63645309073526 4.820631083534413 0.06980545082891204 -0.6266189780559531 -0.4010316722363093
Ni 6.205513044187578 5.6150786551760605 9.018996153077202 -0.30615385181980176 0.11341033200305631 0.6591220928899809
Ni 8.716394893924331 2.5211137680146876 10.390858315765339 0.027818564874164994 -0.9329846887762447 -0.13719997822348629
Ni 2.3454809825121234 5.317644242144711 6.922180771690712 0.9016128593331827 -0.21758037635476718 0.6681327810290234
Ni 0.4331354563664641 0.182973232736058 9.624198671382944 -1.0054052086305008 0.4877171866500117 -1.445478311039988
Ni 1.542438962995459 1.298563099102774 11.528474067313123 0.0622363802324025 0.04096512955845203 -0.05033242970596494
Ni 3.987985561916638 6.715009870053847 1.730940702907622 1.5471140190056194 0.6081779977419461 -0.5151261747905839
Ni 5.838636073891608 7.92654714202717 7.884320033468062 -0.7088873372385662 0.16034659154327868 -0.13473197629896796
Ni 5.5105240799488 2.785862381715909 4.899604045674607 -0.5174260265683541 0.6451545749662954 -0.3682344232006303
Ni 1.1155335272074591 7.4364055434539695 7.06362295709332 -1.0412276176457487 -0.41086614182822784 0.6048396773973326
Ni 5.062718633468752 4.354035618746098 7.357027302845573 0.7188256793982007 0.8059313120684571 -0.5499882767750914
Ni 7.976470906697652 7.242716966105711 9.131218306140093 1.535530427933078 0.41808785638764767 0.20836991350009276
Ni 4.658112600393051 0.5801125098179967 10.326261834892922 -0.67632765813499 -1.2774862871363095 -0.14108877175493123
Ni 8.028948107457033 7.455351857494369 4.416306746254995 -0.3621658484090472 -1.8571713196448854 -0.045428050425812085
Ni 7.5923377971389865 6.285432867681735 6.8066064386520395 -0.5203041194470974 -0.25869437278625773 0.41638424343297964
Ni 2.224360877071122 5.245312031227885 2.5627302327831396 -1.3783349804242715 -0.660231781014392 0.10388799433491787
Ni 2.560996440591817 5.142493065584181 11.589811963909813 0.7091984407210818 0.5803193236584651 -0.5472929893311155
Ni 1.333175334201039 3.0397520768184356 3.6269705902717284 -1.9187672380798113 1.306223764280318 0.054575778363351174
Ni 3.517544495160986 2.4851203148185133 2.6588602863092716 0.8050697353991104 -0.22847234067692268 -0.09103659229354644
Ni 1.3033428406784335 3.525422890495771 8.426814341432607 -0.6959032662740724 0.21347792415061945 -0.22602413624674625
Ni 3.747617265035749 2.631111432983052 6.853341588647809 -0.5210595095558833 -0.42938451234738956 -0.06262950190576311
Ni 4.226627336175141 7.022630766557278 6.008345978103269 -0.8516005319707978 0.18565910216613832 -1.1442728043643968
Ni 0.6937513201273622 7.796939814852962 11.36677613676545 -0.17965840449801315 -0.9817078650135609 1.1540285981995801
P 0.14539592220787337 5.654997675597872 8.293098799113238 1.226318763123559 -0.34046419506589753 -0.561474165927504
P 8.805974157142682 1.6821146431465304 8.142533304695492 -0.1198224061769872 -0.6323656507317432 -0.2574949531615178
P 2.083731065997153 3.325382527289364 10.610143954034655 -0.9929458998212253 -1.5813819390495538 -0.8221382608456228
P 3.8440753578601345 5.795718356283546 3.7779222805392183 0.8070746816442811 2.355572982591937 1.518938585012668
P 7.176809236736397 4.052920986440713 10.25307363223384 -1.1807261620954246 0.7933113093116015 0.1395671929040822
P 6.257363244626197 8.054764164142297 10.033110106661209 -0.31476036254189016 -0.32907575072329776 1.5889337832548827
P 2.2927402598787996 8.607951099316116 5.637963258187736 0.8741421647167398 -0.4818208757702347 0.4823667209713757
P 6.856303029293261 3.8041381635159826 1.649493361240712 0.9212807700757554 0.6726980318022027 -1.2181074309573603
Ni 5.100075130840494 2.734766399054437 0.6990199402139922 0.39798285810765655 0.6185115184574703 0.0576688154663781
Ni 1.6847044270801104 1.0423471419406105 7.1032557382382615 -1.3023833074883053 0.7911132732190181 -0.3983232721662108
Ni 6.969290304486704 1.0386033139383828 9.29932708779352 -0.3145665013635292 -0.432302714435449 -0.7719654966459738
Ni 2.6289033014186307 1.5825215487183382 9.210404811867795 0.8741311089731462 -0.12177233081450642 0.5337394190163969
Ni 6.562385270234877 1.8330763290713077 2.693466160534717 -0.6157748362525975 0.44736577941615857 -0.46040410065735543
Ni 4.362041231537269 6.654454360813932 10.488092435073682 0.37205199717450765 0.9717373840644103 -0.03828192629933407
Ni 7.993554393698108 7.597153886559327 0.25504828265175994 -0.5342883495413314 -1.1779493706812358 -0.548141710484656
Ni 7.807162646169724 3.658183393196126 8.083801548562487 1.0921958811634995 0.9813911051040906 1.6337044026023544
Ni 3.0706295708756435 8.507258482586298 12.381010038236907 -0.13844464926386482 -0.5200444380278076 -0.5256617842145851
Ni 0.3000659969863136 4.7775243571340065 10.558514566752478 -0.4144723711222475 1.4783331527864798 -1.380270249773771
Ni 8.785619364120862 2.3220184487700073 5.800591693559261 0.2826128312750681 0.22797123267078803 0.15644879915076926
Ni 3.899269560009481 2.6193983400343344 11.640270950593237 -1.409718122721243 0.2811516733485093 0.06487716028935923
Ni 0.9833636769831836 3.593938577721006 12.542800655788517 -0.5270892606897309 -0.8294394224927264 1.6978397996296826
Ni 3.2412372668509453 8.388219291253332 7.892060306993057 0.44751644606140994 0.04501873080253537 0.9174027751775876
Ni 5.587317988800319 7.841865750879694 3.6233003666549815 -0.932766916338484 0.19982433792292684 -0.1031706565529191
Ni 2.904147355271728 8.122889112037202 3.4835201864504497 0.9618664048076015 0.4360899493920231 0.22144731550934119
Ni 3.464849207333515 4.511939743005103 9.403835319518814 0.7437463538992803 -0.009378098780790302 -0.8187904274193125
Ni 7.339138711085414 6.3787286980188 11.42090625576174 0.47980050290609627 -0.4894264560316345 -0.38355974070379106
Ni 0.5029414920779033 9.245710382103367 0.26640334933036114 0.07936635504446976 -0.3307675366034239 -0.2603331939412613
Ni 4.496782691772783 0.3867892283087898 1.7571011554212466 -0.057553630044752495 -1.391118762452501 0.19347705554866035
Ni 6.36932369320738 5.6119527405334235 0.2681507719634398 -1.216369365220331 0.6416522182399917 1.163695174755067
Ni 7.601061279862623 9.097865523860055 11.50916245743367 1.988836998313704 -0.6297649798841024 -0.20142664941304017
Ni 9.271244742992346 4.894291808174359 5.885005019352207 -0.14591241839581967 -0.9741022847521611 -0.33313320862212303
Ni 7.838876140654614 8.781984579652681 2.3442687818919845 0.5319776991302838 0.5124913082708981 0.6772249731382788
P 8.534510279136494 1.7174992699442844 3.605039209486834 -0.30050308129192765 -0.5693252865408066 0.8296175999418035
P 1.9157404148389416 3.198192331786498 1.4793636394229759 -1.25626080209863 1.0992162783453907 -0.39001603785209604
P 4.736960162469092 1.2207514506001633 8.178841166748164 0.3647621483813137 -0.2856369628133726 0.6978470202640046
P 8.434517358416803 1.8207634966853405 12.648321174988196 -0.13271057499356498 -0.49050169137368427 -0.9296324844745603
P 6.162159152443334 7.683261930610564 1.454028282983629 0.014364496251788166 -0.10302538922430643 -0.26919835764137506
P 1.8320767633425576 3.2774760679987223 6.161691173943056 -0.6139467819049234 -0.2900877994958746 -1.0568802365813412
P 7.0637765267371 3.96307820134842 6.159017789966708 -0.5177571846555277 1.2207754647078266 -1.9605960011901398
P 2.3614740341721254 8.538762976964268 10.133031240387655 1.3361483197538924 1.115508073526879 0.5570274430100601
