# total energy = -381168.51904991025 ev
CRYSTAL
PRIMVEC
9.21828045162176 0.00000000000000 0.00000000000000

0.00000000000000 9.21828045162176 0.00000000000000

0.00000000000000 0.00000000000000 13.49188523901457

PRIMCOORD
 96 1
Ni 2.0081931230608183 6.813461352048105 2.4292141036192922 -0.3309169176970946 0.6417062114063787 -0.8473345576055923
Ni 4.304319228135806 1.847767392758511 9.110341512443366 -0.8224128546632481 -0.026162260217664626 0.6673020575976121
Ni 7.693936166970509 3.2008634334810258 7.741279410416272 0.47966809109329006 0.0723259032579206 -0.6454875328256818
Ni 2.6299384676393247 0.18774686915595243 8.117662712767375 1.8241717247904132 0.903588752112631 -0.025604330831665578
Ni 3.5906307568529834 5.110337993891301 3.9905354229597245 2.7914107067638376 -0.3554956354777232 -0.5071799233603136
Ni 3.5671149240654647 8.003191031084848 12.132510427923807 -0.10829512226367802 0.012308385053707837 -0.5510038625237995
Ni 5.761056393135103 1.8633831594155301 7.042250770133837 -2.634231457204947 0.5172383360375801 -0.5186264746343584
Ni 5.542177548091261 6.803782157839208 4.893317554135566 -3.396282522950686 0.08070615690181585 -0.13618696357793963
Ni 9.301521269145407 4.5160999974264575 1.863849604393597 -0.16760301599537586 0.03809320732729569 -1.0896170646927297
Ni 0.5800243302260835 8.566215930796048 8.72800781022384 -2.3487744716128645 0.4907356617613613 0.4237147156561219
Ni 0.6422753764095854 1.5661765875212188 6.931267285678592 0.9347610639503773 -0.34744036927341454 0.765907720487668
Ni 5.874616386905955 5.462845028699106 9.517405094952611 -0.8883603651986507 0.72899747772488 1.0772035215197253
Ni 7.736386347286669 5.771980055170857 8.25336409374808 1.4836653636326707 -1.1411239743227701 -0.405197887798857
Ni 7.481971032075878 3.845967900083669 9.857535666765308 -0.9718715956494294 -1.3867923671630051 0.8840689369121484
Ni 5.954677150433826 6.807266667754411 11.536047138618938 0.4370664543726795 2.392319703193667 0.021065048200415333
Ni 6.351938935607529 7.801301476447668 0.7821295926199188 -1.1612739669080838 0.1412859753674018 0.8267518483582343
Ni 3.545802260245495 1.7358113797422765 12.267766565970904 -0.4685717240698124 0.1803628867642055 -1.209209614247098
Ni 5.09780113282073 6.715185266847111 7.4955514024649705 0.07524024869123817 -1.4167007246866632 -0.03499579934889457
Ni 4.276664387538959 1.7114843382972502 1.1296218829994964 0.7010984373217668 0.48872788730271316 0.7403288435772991
Ni 2.294079646870821 4.015556600903731 7.661096965589774 -2.5549229519816063 -1.186171758591028 1.0349770087503465
Ni 1.9524686192581724 2.1042844758546617 9.27298608278956 -1.0823899508166714 -1.3958940723539572 -1.0292619606434403
Ni 3.267935640208578 5.492389616736737 6.453262584242295 0.9103345554768968 0.6200786058342741 -2.2372901529879274
Ni 3.9909991024537317 3.8803520852257485 13.396308066531084 -0.26962978875183885 0.22096343389438722 -1.3424855748258298
Ni 2.1109677289989 6.2888858990467185 0.031316341491869196 2.119172131096557 0.6862235770924634 2.3510763802731636
P 8.683232779641505 0.8154840958637755 5.257193493912736 1.326700029856799 -1.3625201248792018 -0.048516716653464825
Ni 8.154702684434772 1.6604150659950736 3.3506687831661246 0.09678840717565912 -0.18225110492585386 0.5000355990060485
P 7.098416829558013 7.575481266414016 7.300161657196069 -0.016292823622752587 1.6482473334135357 -1.0177233638762215
Ni 8.327536219884864 5.45685314656979 11.035808867170797 -0.33192813257042836 1.2669365366449212 0.8003677019377505
P 6.528063397088647 0.9345123734486435 2.1934565875311742 -0.35549486414677484 -0.96744981243265 -2.1362383425502243
P 3.699618483645156 7.700702384636538 6.124681595690862 -0.10702859684642857 0.7767983992582429 -0.8808437451066313
P 9.040800650278536 6.571960847396041 2.3175410918051655 0.42645551162605266 0.97803530125798 0.06702403142903296
Ni 2.4401248600627685 1.1050597754093971 5.018252905671921 -0.47317168473566895 0.4284851404615717 -0.03969783281025421
Ni 5.107295961425647 4.118939613334944 1.9128797931157666 -4.54509949504234 -1.9437025678689106 0.10512778027928991
Ni 6.3064282862653185 2.380040109726019 11.64257911556611 0.07237835376241082 -0.3167627376838996 -0.2722345733645376
Ni 6.552593240698049 2.9872205715901865 0.445030913164656 0.3851515106709431 -1.8256668212787008 0.6110278084859154
Ni 1.54327837950703 5.507000590852072 4.30621819385679 -1.5597584472425075 0.3112757464273994 1.0622456146583126
Ni 3.5056013402978787 5.395459400444791 8.898262070874269 -0.16391296873829836 0.5711929358771647 0.9989041742871895
Ni 2.650080409874028 3.764791724651725 10.446483292223974 3.2868170345279912 1.0693336318533455 1.9807673339316918
Ni 7.1521133117168905 7.809726984549506 9.427103743951728 -0.40750082490042083 0.3701776629699302 0.666272330781517
Ni 7.266668879749228 2.4467988949268076 5.407520598257095 0.3476429722025239 1.1458638030006008 -0.5805406956406518
Ni 5.032102449842822 3.9095095054950235 7.8541388148920035 0.49016719085240096 0.6874391946671193 1.3385656709461333
Ni 4.301599835477116 7.420328392385507 9.763969200917957 1.0222122528855104 1.1236849529107165 -0.36389928616038614
Ni 1.334558079242429 0.358364330046218 10.89019046035206 -1.2252116461023093 0.9570550994618874 0.6219423985158902
Ni 6.963608699928584 8.63523319464558 5.094239189351856 1.8363734090629276 -0.4072174893320471 -0.24171686439165466
Ni 1.2171171895078199 5.97253295917919 11.691730063758886 -0.3933584719617677 -0.7991700820852236 -1.8093639703536193
Ni 0.5906069158944769 3.8389712254126667 10.053869363926582 -1.4002199534228206 0.6903825935661595 -1.096477282147673
Ni 2.5118430800105904 8.202186045739557 4.184319343817969 1.1040905757185566 -1.014922661202633 1.1671214268277963
Ni 7.4764124091159125 6.118651918612729 5.635290474552824 1.6168194539215577 1.5817223531081082 0.2667645513889018
Ni 5.361296454027486 8.911283813483303 8.02147917717154 -0.4410519213829888 1.113620626696179 0.12237654005740857
Ni 1.1651353074659472 2.756145941843134 3.5168623913889148 -1.700006211153382 0.2893326664974049 -0.03284892820922084
Ni 4.789053274117335 6.677768267519577 2.54710576725563 -0.5597142458136039 -0.224220250268788 -0.8202824385838066
Ni 9.275249170578403 7.47011632374003 4.78743362228638 -0.6458318035389781 0.04919214545393463 -2.6432406026820927
Ni 0.3003656765184912 3.697028146909252 6.343601001167579 0.3818736112506197 1.3574229128619526 -1.5785740372871138
Ni 1.3184445254546664 3.9945020489293324 13.063140061752653 -0.18812427587717923 0.06093231670899829 -0.02180783990371083
Ni 6.238812201006028 4.606964585347497 3.5466927461127136 1.3811801631825504 0.6473369273295948 3.5014912929795563
Ni 7.489078326109269 0.6500537612414584 7.127249766364285 2.4936630767298604 -2.0926923396384733 1.155337803929307
P 6.698915002295966 4.398069137759117 6.237311464989639 -0.8191328983603957 -1.4297431596929182 0.4450260755393884
Ni 1.038531447213583 8.539381517136908 6.429732924034479 0.6543151584196408 0.6391505348640605 -0.8826034081102154
P 2.324112803758996 2.248891637335573 1.6238295555414852 -2.0030762818415373 0.18754732032778668 -1.4655480852066698
Ni 3.459344010259553 2.696162592588574 3.3233080057076245 1.6245705586218862 0.14781940561054543 0.6849403395046655
P 8.296249376889632 4.127964309649714 13.159175183037283 0.36066458127317236 -0.10739086528185376 -0.0588396958460277
P 6.842139421747034 8.705282905877393 12.178152898672863 1.8133664066447932 -2.031488000215011 -1.3221496914819553
P 4.637984098216961 5.9695831095155265 0.38541168597795394 -0.1336621402735569 0.5368026313227529 -0.2635727839244815
Ni 9.071792508307402 2.3514910959498745 11.672909101076693 -1.0851757410919247 2.411957274918936 0.4148816907455242
Ni 0.9945879055051935 8.512298209912396 12.913959711465044 1.2054270072762143 -0.2080536678112546 1.181139081263127
Ni 1.4943108750902132 0.3742584887652457 2.4480488937217846 0.8269503375222854 0.16614957137830094 0.17065517255813836
Ni 3.416949139624587 2.223108107619113 6.921201845529359 -0.9628269689486578 -1.3532109316631342 -0.30905559884762906
Ni 2.044190507237714 7.374273864511558 10.135320244108453 -0.5849213412068507 -0.5787185548302484 0.08383904610384271
Ni 1.3084980011200003 1.6335714340557344 13.058390803794156 1.5902111073054097 -1.5370193537737786 1.5186801891449588
Ni 5.3435881377653045 0.5380885299450252 13.014298847774562 -0.8954715223221352 0.07402668799911122 1.0853631745123824
Ni 8.926263518806595 7.808620790925633 11.085134962687354 0.054308383634577434 0.0033825433189877225 -1.543326012718097
Ni 4.949460567859244 0.2740106134296963 5.352635879780573 -2.029979533990285 0.16875898397669 0.5670079512615396
Ni 8.689925251065944 4.695238836532632 4.144410643352659 -1.1717170166182789 -0.47599398467581244 -0.044827954947967964
Ni 5.632544348881557 2.0856082401715916 3.7200498798781063 0.29332790369972706 0.07543256720770233 -0.11031883756192613
Ni 6.349708111799384 4.79681506604485 12.281972857585504 -0.5845187064517933 -1.479263120799917 -0.38479438444184055
Ni 6.542517660440598 1.7624798643578357 9.176154502095741 0.9891969743017546 -0.3377077153666829 0.5942729576250797
Ni 6.7009983336209284 5.180848619133061 1.0831396269243165 2.8044287162900607 2.9496456512807523 -0.11763928248273935
Ni 4.8144404177852405 3.4946868965423232 5.671813300701059 -0.2623368546348514 0.8327826279333466 -3.088035793157598
Ni 8.667202190375534 8.817967163029344 1.5798325478079416 -0.15150251088908748 -1.4180875777318611 1.0490692251773546
Ni 4.584020285932314 -0.04893892774819981 2.8265772898751833 0.6150006770907344 0.02641602809968354 0.8882536644174573
Ni 3.5477841904882688 8.357615468174034 0.9472216163589344 -0.3785651157026771 -0.6029445172571486 -0.09461222545994673
Ni 2.504155034324667 4.516072342585861 1.7922484566043013 0.21424179889983747 -0.4254831204104543 0.12338466960694879
Ni 3.9053520611252974 5.61866161890194 11.293988928014837 -0.15665680139651728 -0.5938212147996419 1.0936117876744198
Ni 5.4935326834814076 0.175305878199451 10.617640944333898 -0.04559748612414083 -0.38901407895014295 -0.3672797725968449
Ni 0.5601100795122942 6.1223853220933036 6.604574200911902 0.23340063121647545 -0.6747240610932961 0.5620909735758964
Ni 8.312409022078388 7.286110232688812 13.13015419331495 -0.33783035698747627 -1.5736969117004704 1.007021146967369
Ni -0.029327036624936024 2.151721745758453 1.4333374825422858 0.3226503068129282 0.25607698976806864 -0.8905578870706017
Ni 7.7584549100829525 0.8804084433049727 13.445189840942051 0.2550171810449866 0.8906512181153565 -0.5363945972510569
P 2.3925677525163906 3.4509461569983104 5.152996507339957 0.4005156518318393 0.5112954881905839 1.5622218211813352
Ni 7.139770034530497 6.830920774744913 3.1626997534573777 0.4842631666631402 0.5782112761765268 -0.1518120717097063
P 3.2889164459413855 0.24973703800982408 10.477419840571647 1.708180262323742 0.08785562346240354 -0.9773670715463617
Ni 2.378500656932795 7.236672595981848 7.813811604505661 0.3291431136261235 -1.5517296634007598 -0.11140975663325975
P 0.7309303425669367 5.694260734813519 8.806746672371183 0.5810112075191671 0.40034030259623954 0.10715098135690579
P 5.125105678770017 3.5890452126587644 10.299516251012133 -0.5083965693762341 0.3119123515701338 0.18965331092719598
P 9.035085316555186 1.8097788600586424 8.943932196463921 -0.3162929971363327 0.05625599427925151 0.21097264123026246
Ni 8.129278667646071 0.7596996732398362 10.57825860766795 -1.2381890321985838 -1.4921546320506045 -0.413371681858901
