# total energy = -340895.240223009 ev
CRYSTAL
PRIMVEC
9.06776447169536 0.00000000000000 0.00000000000000

0.00000000000000 9.06776447169536 0.00000000000000

0.00000000000000 0.00000000000000 13.27158988801040

PRIMCOORD
 96 1
Ni 6.199548779725219 1.8959697506680155 11.326717467593493 1.422702450796053 0.6181266243142258 0.20666115833910212
Ni 4.63493326877766 0.28756328602657044 5.820030203632938 0.9635954716835662 -1.2324454448465871 0.8415750294139959
Ni 2.995327347822762 1.6427796384280013 5.0623813261487545 -1.1507342437190247 0.8983709553571173 -1.1440401195283008
Ni 3.4075660442863223 4.272476597820785 4.715422371001257 0.40835134582617416 -1.1610713639789747 0.5651495578965622
Ni 5.082300483786375 4.425195882626541 2.6335217423360846 0.47940198191609695 0.8062372733446502 -0.3264835645160893
Ni 7.217124211480185 6.026699058375775 2.6729112032829865 0.36515449872372596 -0.44845618426685996 -0.36700595011016796
Ni 5.09194858490461 4.582993115389264 11.357985838914933 -0.317811233553072 0.5196096644832341 1.047620665656286
Ni 5.529921596192938 7.82614245904039 12.649430419188237 -0.3623591953667759 1.3416695066824378 -0.35317547198497884
Ni 1.7265476441895244 6.461933604873025 0.6212298056202887 0.27425597466994056 0.1098717227221785 -0.7702755105380605
Ni 2.7223785773716247 1.6322700997099233 0.33100513079841554 0.12869116942152675 -0.6652665152248219 -0.20165342071186562
Ni 0.6298650374763937 0.16887441352027535 4.777852114026471 -0.005693450840351485 -0.2510900780764385 0.17681682128416001
Ni 8.755987272074558 2.0854406838123136 1.2757446533220695 0.48187204072314427 0.1642685523055042 0.653171531733501
Ni 7.086784168741914 0.6464390968973628 4.891376894815816 -1.466850606068177 -0.05363012662063022 -1.2441339369281088
Ni 1.0314944498155783 7.527803948804422 2.9250322261227755 -0.33210013937191835 -0.6424055514662484 -0.7867894490326836
Ni 7.7143913329303 3.980140947491088 4.015478931389468 -0.3049911989702683 -0.5558506490931395 -0.5887098617150055
Ni 7.489565187135625 3.747734150817799 12.760460658043721 0.8285637047559924 -0.1371495846015251 -1.6702333507663236
Ni 8.106327305330204 -0.1770970621048769 6.816328126671795 -0.7124112912314247 0.06955194005720924 0.8097594275652958
Ni 6.8501880650041285 0.7712405492568558 0.24603020562069197 -0.5839139829882589 -0.11766705039688122 0.5247994362142897
Ni 1.781507363059474 6.546853216689074 9.07971824242462 0.2663745150393348 0.18137950095417793 0.5950576583099042
Ni 0.12705297821255493 4.57981033015195 1.322467215184683 -0.3177703530128076 0.0769942552678674 1.4464087932740572
Ni 6.342964538452676 1.8015743252536989 6.954657776454498 0.033673480993045235 0.2726868304106078 0.7640547264393293
Ni 3.2474746671787567 4.233303856438475 0.3433309426875299 -0.1296656175196541 0.24081312163046267 0.5040349499734288
Ni 5.830835351464224 5.579458792065985 4.815609377415776 0.9139148166289873 0.16801516383212997 0.2572080180487183
Ni 5.287649072060401 3.092533780141828 9.15532616717458 -0.34936766820311443 -0.7968324350909826 -0.3293020078014909
P 0.10098134255921747 5.532487773464047 12.680393206855836 0.06503656868535897 -0.6086842479544032 -2.051115030417319
P 3.7777575181133614 6.226017583450905 12.781111584252999 1.303118385882117 -0.7162139528069664 -0.3968950243601165
P 2.4319290219973717 8.456089106394664 1.3264080655098571 -0.41440218000594436 0.11900196715822088 0.5633472145805009
P 6.392211565871038 7.7111269378151075 5.7759817254355195 -0.32708803086930766 0.020678611395274066 0.3931769520785809
P 4.672709574471805 0.987243760476302 12.605741024453488 0.24797724347906971 0.4643306894052713 1.0124387184385144
P 3.8981139524576673 6.375644760661436 8.289315693841584 0.8526210028155122 -0.8050440243674974 0.2773623815094062
P 4.853266895398785 1.151460970298903 3.7965504594362405 -0.0009117131809919783 -1.564179202018022 -0.5462789462443044
P 0.23419677332811914 5.450143406683317 3.60723095795423 0.35711928712407526 1.0647223583335792 -0.26225637910590316
Ni 1.8375733491629052 0.9102947133998477 2.690124540080681 -1.2597729290169466 1.4986654365859287 -0.28060299993389093
Ni 2.0231814147542257 6.284196358615002 4.841701868926795 -0.7130813207152559 0.9819485202694572 -0.14714937612671433
Ni 5.88069898684879 5.734055104062977 9.363053230000594 0.20941223872167805 -0.12060427864833426 -0.6339962443566308
Ni 8.59606818248696 2.5474886090751863 10.115432829703003 0.28233155258922343 -0.5827780696116027 0.35054600478193176
Ni 2.6773843313672216 5.115406890912952 6.952455216528164 -1.2340019907004296 0.22138920857789615 0.30322176577467136
Ni 0.5937372513154217 -0.12310668722885555 8.805433790305514 0.19133121285025112 0.2665804604025538 1.2120509403506352
Ni 1.3046336433151022 1.1547344331783043 11.339750565090899 0.7601438214206973 0.40723934370891796 -0.1740749968729647
Ni 3.933305945352284 6.800732479008963 1.639120795569723 0.9529660169941782 0.0576292204776943 0.10438601701725894
Ni 5.560008437837962 8.077509950674422 7.998653952784842 0.2817669383350051 -0.02345180326503703 -0.2470799284757809
Ni 5.51676427032587 2.9438496504090184 4.6650300849633135 -0.3822057977790579 0.35069512876528636 0.651048314742911
Ni 0.7815206735404495 7.415318333793413 6.845883597334179 0.8403396143449979 -0.49269587081152566 -0.3000883623520122
Ni 5.091114350597394 4.668774164805155 6.975905361548717 0.365892405331015 0.20289654909034735 0.6307702812201653
Ni 7.998547859943599 7.358526926553273 9.274598096919508 0.49515615942656016 -0.9231743875540422 -0.19562752623275986
Ni 4.540873350639071 0.36976619568564295 10.453619629754842 -0.8087433275959557 -0.32338821342021723 -0.6862078933631794
Ni 8.300567882448368 7.204356799474098 4.727870597707191 -0.18312425155942658 -0.31521570491175394 0.3204661546774158
Ni 7.127190126056631 6.204808082966362 7.2442839788385855 0.03730002200203899 0.08289313725080563 -1.251496290830451
Ni 2.311681400823572 5.175607777495627 2.6664350060850133 -0.562548115717973 -0.9388504035284024 -0.7597674119178851
Ni 2.3431465426283444 5.2808663844321675 11.474404143263328 -0.28179830579357273 -0.046286541771365444 -0.06665327835317553
Ni 1.0857831541340714 3.24800966526708 3.918078448916332 0.04520590711267698 0.015975292382333778 -0.6581607574179762
Ni 3.7984410882737896 2.5291717253732724 2.45438171295495 -0.5269949012037117 -0.17546364969037523 0.23911953597812363
Ni 1.1749192763072445 3.7717999970281353 8.333562756075176 -0.7089698696500436 -0.7701068461706801 -0.5056359759119614
Ni 3.614855134101046 2.832878352020891 7.259413543421083 0.0967765801011172 -0.8794301525885565 -0.20744791590645562
Ni 3.987821343775999 6.83904378279143 6.065169048031898 1.2000312901819397 1.2283635614677295 -0.18454427183540476
Ni 0.7742456063156746 7.146876242154082 11.372836116359798 -0.3168537547358092 0.7142992522827569 -0.06614085749313124
P 0.058180588716939305 5.715384577556916 7.992270246781799 -0.0016676175104100312 0.109888692003043 0.6589356879107877
P 8.440755517117468 1.711730917472234 7.945289253639233 0.29527911388882694 -0.015861649622604942 0.5928696495196499
P 1.823364162647609 3.334516135819681 10.580575582890363 -0.3450651841730186 -0.42188511864655087 -1.9095616603211438
P 4.023793164392579 6.100873369604316 3.7688529736602527 -0.0454362779559282 0.804591253100795 -0.2326763514559412
P 6.839343019010323 3.832363594179165 10.403253640233107 0.8516838357132235 1.1166583850812382 -0.03663050673884014
P 6.158489943387464 7.897723389705195 10.25024600052551 0.629162056192781 -0.5949249893867818 0.93773814430083
P 2.4052607274590905 8.576300456511628 5.77509217776663 0.6521788288029284 -0.1886230698904687 0.757381942404844
P 6.979621331321511 4.021480884519317 1.518084278909752 -0.7509544416119455 0.2133372848076971 1.0737009076831054
Ni 5.279533423093465 3.000015381918747 0.3864862461103748 0.027548856152546108 -0.6376161004974051 -0.13717478141250566
Ni 1.4149248593875645 1.2441335205135344 7.081335349228806 0.25507168843200584 0.6089698975156222 -1.0720764847058053
Ni 7.005319375089444 0.6299158169559634 9.278725743187385 -0.6426917152480996 0.7570225021828962 -0.6442410620130905
Ni 2.4937802416660606 1.6864409230937012 9.189566951603688 0.649192749591411 -0.47094768050115665 0.6479357372558583
Ni 6.5978231193071215 2.0431849025989886 2.562438631926347 -0.13755170513595022 -0.11181933336685258 -0.11155399552060788
Ni 4.176458042613081 6.957115140555102 10.584862821808317 -0.8141536999782495 -0.2891650305712891 -0.3143307312036393
Ni 8.316264182293919 6.991672389955098 0.6908303365818764 -0.046144359766546336 0.6285154237477175 0.20649557929551532
Ni 7.647444029776227 3.9997907925317047 8.18145735890636 -0.021536845630511295 -0.827367370455046 0.153475061234426
Ni 3.156515924399601 8.353949810345974 12.384556492765096 -1.0546683165316868 0.4854592438537703 0.4771244987358299
Ni 0.07615924481386202 5.019515284404172 10.178698620588277 -0.6360227878683563 -0.05766084504657812 0.840193832795753
Ni 8.65181679684308 2.3093963242429374 5.728933630837807 0.18059171494555992 0.9448716700218178 0.7422242608277991
Ni 3.7189893382756876 2.662622011235184 11.40795284681148 -0.296898651770121 -0.25767210216933045 0.14731264117745596
Ni 1.0358197733432082 3.3033592979980106 12.519182867644897 -0.9311111259026157 0.5219853638042623 1.299465362510562
Ni 3.123772227841379 8.400775744720569 8.048794154977777 -0.7359266007445455 0.9181427386674058 -0.05542064286214972
Ni 5.766300073589711 7.8012242429944205 3.615964121663791 -0.8129121142616645 0.5874942441403495 -0.18556602823169976
Ni 3.200013989309541 8.337827325582607 3.6838218283444344 1.1682401138132719 -0.4602899436769944 0.7637310245513235
Ni 3.2892951957100562 4.450005285502004 9.306887498490864 0.846314086760878 0.24420903468588911 0.22965581946206254
Ni 7.2576571174938245 6.438275808052088 11.6196352683854 0.6732449054446082 -0.75089170669481 -0.5425287351732527
Ni 0.689577171568211 8.835520631950539 0.04659561316368946 -0.038127917219973044 0.2979934274961965 0.3053958906078547
Ni 4.543330714739675 0.16414104060324622 1.699666257192335 0.6706578614437224 0.5625530008139796 -0.5331706909971204
Ni 5.977687792826844 5.740819656162792 0.2384731309290213 -0.3928169976360009 -1.203508964317895 1.2934816341233013
Ni 8.095554801450069 8.860248424948121 11.298966482008675 -0.39326771202017435 -0.13683642423648046 0.09592348807220255
Ni 0.13200851135270134 5.03011550076434 5.8058427797517425 -0.35991947557703174 -0.8553080627293721 1.0111092009938134
Ni 8.015803815233076 8.709460573918856 2.707629858885901 0.2598948208522621 0.697209900900638 -0.5269499068983892
P 8.579782477967834 1.6139260127153832 3.571065993960002 -0.05849002581609281 0.4126669424823925 -0.4889970818036998
P 1.7598807454213237 3.097285288587275 1.7238463572317027 0.7129365676072754 -0.17524099215660788 -0.41889801099376894
P 4.595842137273229 1.0789732632132114 8.328054996094709 0.2719923754467444 0.6276939562876868 -0.9353549887806343
P 8.591216928635216 1.547187268138114 12.425579058046015 -0.7785572909308786 0.5348059126076983 0.08821377813277066
P 6.49745203727916 7.9212814411198345 1.40844775541317 -1.1450433639818343 -0.6786483358483667 0.1391882122981087
P 1.7776172922138693 3.334026476552402 6.056104910928713 -0.022047466718342675 -0.8935462802749643 -0.00799458816970236
P 6.904005245583761 3.822361850256783 6.093305413595594 0.17427142915448696 0.8087407564927942 -0.22830727585396812
P 2.1792557723172625 8.568737941161432 10.343929606449429 0.7458376892106703 -0.6724676609589515 -1.127349546246497
