# total energy = -340862.63537591946 ev
CRYSTAL
PRIMVEC
9.33311382997941 0.00000000000000 0.00000000000000
0.00000000000000 9.33311382997941 0.00000000000000
0.00000000000000 0.00000000000000 13.65995549577887
PRIMCOORD
 96 1
Ni 2.8013527642541547 5.108069164932716 12.51478625368994 -0.697422016911444 -0.47353523872267483 2.1950548984678004
Ni 5.2488405199236725 7.910532569725486 3.1159720294364877 0.38799437943637693 -0.10455339583305864 -1.7977616102280007
Ni 5.301983269729314 2.641009869687781 8.499648043993478 -0.6638693777669793 0.41891292339210434 0.24822072694844347
Ni 1.9166762431219049 6.589224987097387 5.4323734022740435 -0.32943287695240037 -0.35942479532880034 -0.4834686957863029
Ni 1.6476305724778495 5.402248910959032 7.711851110415237 1.1152237095172406 2.5760571628570603 -0.38291002293493404
Ni 3.443134999525527 2.519240734332281 12.547256156495319 -0.40122039120834774 1.744134311820848 -1.6422787745349263
Ni 7.379114404782832 0.3807070437867855 5.1373592758767 -0.8177283047033852 -0.49041530230746505 0.41221545676727067
Ni 0.8374593652590985 3.644562260906871 6.141146861562791 -1.253231528354003 0.33369859420728987 -0.11310514205781165
Ni 2.7784866355179725 1.1106405386145835 7.813440187177523 2.2348350065792157 0.033512529935148735 1.0377764258723547
Ni 0.807091279674694 6.408619902536623 2.7211719838571984 0.9215484219148451 0.2974918052694296 0.5757587008709761
Ni 4.8746293233207165 0.855575872397794 12.561572219706925 -0.5028170184059276 -1.226992392151816 -0.35390849349626147
Ni 4.57106046484191 7.941686503489313 10.879498724172745 -1.5445033208556498 1.1748668751011702 -3.199620899026457
Ni 7.436970377042259 6.155907180989841 13.045257107584952 0.1309820223382325 0.24345544434931624 -0.4652447165791084
Ni 7.41964811788538 1.054772519588139 9.050718013289972 1.321865327472317 -2.198705864956826 -1.2340032762520101
Ni 2.60074681688456 8.19772181353817 1.81991611942415 0.7007878480598834 0.39092980791561704 0.6207756319012986
Ni 6.051226976946974 7.446499486201296 5.282864386171735 0.11244205455251603 -0.3819677136263228 -0.010297011050633879
Ni 8.933749831657693 6.449134949411631 8.941820175134499 -0.04735329247298297 0.7015005578561919 -0.18800034870480525
Ni 7.764525337909633 7.287565891814173 1.8062011087393255 -0.33118714063934573 -0.2476861946012121 0.4252229247705322
Ni 7.576425762991664 7.830883776813411 7.058754341320651 -1.2059707955948262 2.092514162189396 0.4645330352240645
Ni 3.5098854292076402 1.3542721404632818 1.8157908831378673 -2.1429964872096643 1.269945241564258 0.9128035858426795
Ni 8.778596148347367 6.343717429380944 6.054925689933974 1.1048099703830843 -4.2690110951493505 2.895445768199581
Ni 5.3891825516812135 3.9760931282402088 12.095193724692367 0.5659962221675736 1.236120322595013 -1.3233545104233337
Ni 2.904409006501065 2.895038560276115 5.368676767417432 -0.06669878687913028 -0.3641749084192761 0.6517054887109357
Ni 4.821486573515074 0.16686020791187484 5.01312153192907 0.6132307296745052 0.6889921409765359 0.3565783270189407
P 6.540515466332433 0.24760190844640112 11.054181948046525 -0.42758114059006364 -0.9261869491281212 0.7635433340205494
P 0.1444822010258565 4.101987499881991 8.392594429118933 -1.1785150133767186 -0.12944475975809966 -0.06616579719379573
P 6.305498328493325 5.9047810887839365 2.587455529564887 -0.9548907448207167 0.35407278698826766 0.6095658792284082
P 4.6206566314150015 9.115278894481673 1.1171139863253656 0.3191957726054245 -2.9924977134492723 -2.2971978850871535
P 0.12321016812156775 8.831934893542176 3.168317731326183 -0.18910643728479046 0.006657871636149823 -0.4353674694037018
P 6.089623406996221 0.7745765779232193 7.023566635785486 -0.13277665234481004 0.2531593019006414 0.10780249889797562
P 3.231973300482208 3.4691930531710047 2.2598483032604024 2.0264046721548326 1.328375617787009 -0.21221217006431842
P 3.8168982066675285 7.244773565179317 4.487008308853211 -0.6891016699712067 -0.17758892356349415 0.37319408119875086
Ni 3.712833988133473 5.540892316010458 10.630600446223708 1.2651519339406727 0.5334265157616684 -3.743521317736256
Ni 3.2514235095786175 7.574437809758681 13.06886148562033 0.796573525002641 0.6855139526199484 -0.34182687974137904
Ni 0.7937925258640055 1.183420159792033 1.9920719360890495 0.18322221058987154 -0.46857892315866395 0.4544352846684303
Ni 1.5438183480155807 3.1783265625329924 3.3476861783124385 -1.813749758126141 0.4053225863021794 0.8172912171659668
Ni 2.0788670942147136 8.195883190125505 8.109218695592618 -2.834655376385086 -1.227612542234318 3.3978976899566065
Ni 5.157404004320251 2.8889440369843893 6.2822131429488755 1.094202370070567 -0.14806905972750628 -1.9998158659227105
Ni 8.208548225511219 4.985254720834991 2.8420218075063652 0.1347286338648583 -0.3049598315117006 -1.0166401581143718
Ni 8.400241049230589 8.513339721893878 12.590913662776643 -1.258292230706362 -1.8656891273079097 -0.7693360294429267
Ni 7.7530176086313825 2.2820489809847935 2.258209408482413 1.3818681903885104 2.297904938456507 1.3251681665933048
Ni 4.301669468988369 6.0155371498909895 6.385701508363329 -1.8071512789730169 -1.1035830399545186 0.25569132429387575
Ni 8.371672387981015 7.500239555288211 4.423175410535559 -0.5808592553223351 2.009294494837107 -3.2103321147963744
Ni 1.8823863831314012 3.4834353847838275 0.4224372620746303 1.1827632471301115 -0.5488479925230613 1.4378483052985558
Ni 0.45448344151485737 7.550535705394043 0.749306239079918 0.2997291792403806 1.773225058539217 -1.2185954263373722
Ni 5.947666746556491 3.7396760233356208 2.616728840904086 0.7164602644898178 0.9944399678682487 0.7237876513891663
Ni 5.704753794468073 1.0800745910182576 2.2690414203237252 1.1710130485727186 -0.024316208147861347 0.6152541878624371
Ni 8.252796517894174 4.20868365649915 11.394301146670898 -1.6616399526703578 0.8999174739086309 1.4473644723191073
Ni 1.1426811181865486 5.375537539349664 10.484029494336154 0.3105527522184458 -1.9225645003387146 -0.022909043387689575
Ni 0.30895033187851356 8.625729077910659 6.36206913098664 0.654613149276034 0.4976395879700462 -0.44590796392370946
Ni 2.1451602013221036 3.2627445765814707 8.43933932943533 -0.8590353909822883 -1.6045727753437204 1.8680540279956601
Ni 2.2955353303822563 0.8485228383219029 0.04470468164630246 -0.4061643654771844 -1.626607643656573 -1.6894986267538388
Ni 3.5641014870968175 1.110752535979822 9.939338708301369 -2.2204908220424016 1.8434334012335027 3.220189981427061
Ni 7.222000767580833 7.626049928906065 10.458799287882064 0.8185801111807192 0.31731526775325997 0.71213798296538
Ni 1.1481689890832325 0.5230864942802902 9.87576527054652 -0.1575425464355803 -0.8044249027262598 0.046058999141591644
Ni 4.41261219237082 4.780934194184987 4.221158296363959 0.28863821153354163 0.2934808843378236 0.8932644873684875
P 3.511994712919631 4.031401160440461 7.209696923698013 1.588270181528955 0.4704877101456026 -2.1176901472343914
P 3.6032259000201146 6.597727453741738 8.56667753377731 -0.4760315227819673 0.3540545321558225 0.6166225289648735
P 8.950446772191992 8.785241325351514 8.502557175555546 0.8042649801096277 -0.053557621511481954 0.3802113930568484
P 6.593228892904661 2.1779380968818884 4.045122704304925 0.9103304417118386 -0.08039479630898412 2.0018141272996623
P 6.194695601817423 4.4593244267890215 9.581652722939346 -0.7216148121075636 0.7404154897538345 -0.011852014242579588
P 2.648196367290581 9.092170104787474 11.592931273855411 0.1276889534092575 2.2878002459223374 0.016139842984656073
P 6.2640593033551 5.422091110833778 5.966518703060253 1.7879883328913204 -0.9579778683864727 -0.38838133046215045
P 0.5059564972670699 5.241598023638253 4.511664528810455 -0.10266517767141028 -1.3205373526895128 -0.22848056820703877
Ni 7.841570192079914 3.177682577682871 9.51012933887532 2.5306296266518804 0.04062240150705262 -1.3786638245186
Ni 0.04072130868932176 5.137879130313682 0.6646362309596534 -0.0539761971061393 0.4790052606983105 -0.10575795766412109
Ni 4.466632254870829 2.2796690369734764 3.7608453919884406 -0.9378147631750364 0.41851054574736307 1.2572792160608153
Ni 7.362426797362304 4.463486995530383 7.564445778156657 -0.1834052731349551 0.786694318215716 -0.050222129380345766
Ni 8.276810619624051 1.3981004427265933 11.603312496301639 0.6829073682350368 0.7591855712724861 0.35145591819071087
Ni 2.5757060726399974 0.6297695845381713 4.222565729920456 -0.1857200373110608 -0.4172041682311138 -1.959247200471729
Ni 7.652733301174124 0.3130569019372565 1.4645932784686582 2.075946230528386 -2.5453741319509064 -1.5634394956385202
Ni 0.8573164981158747 2.7126415178715364 10.66705932185433 0.523884123488872 1.01837231031413 -0.250337259070814
Ni 0.06953729745379676 1.4554617599562172 4.730538179761817 0.9314134876343831 0.011776938030270039 -0.22823322808292307
Ni 2.2082240510651183 7.442383583028785 10.411276939188637 -0.5772915925757348 -0.13053182217469134 -0.5790651395363898
Ni 5.819439096472242 8.066703562436729 12.64812191694044 2.8331489670428884 1.530103600490552 2.278814240373643
Ni 4.9720950304194735 4.079924018930018 0.6448593628812977 -1.661926630672841 0.34642735462786794 -0.003680277065064629
Ni 5.456558299985908 6.655574092887396 0.7850156656748194 -0.8769786057242703 0.15886435057079734 0.184984701806933
Ni 6.48088620245673 6.6664471704292945 8.620360670870229 -0.47003031089320985 -2.920251514389351 0.7540515924800304
Ni 3.1574483870297922 8.300563394168371 6.401410072149399 0.8248831705806118 1.418875877961111 -4.102354502227645
Ni 5.02494845369825 7.8513232959694275 7.524326455305493 0.5345909683834148 2.15630451717248 0.3116177031478504
Ni 7.9770496715633525 3.9999858994910773 4.8799230654509875 -1.0125886137528175 -0.675541671898585 1.1290405607956748
Ni 9.059121548928363 2.7221612939168045 0.40148628828402505 -1.3550094183244534 -0.331571520561958 -1.1785641214470992
Ni 7.84175685435531 2.3097216633124593 6.780228093709162 -1.3401852088274275 -0.5318272895953486 -0.735015916004818
Ni 6.12430525776506 2.2578482169795193 10.598240674160813 -1.7338468138519108 0.23013250198816496 1.9911787590730028
Ni 3.5831223729598136 5.709523015604478 2.2086235083344685 0.03755301855310952 0.09675395439329788 0.3830048966415855
Ni 0.4584537481125603 1.692569515279776 7.755015828289511 -0.3681488054653595 -0.9590011674446645 0.2924269891520125
Ni 6.351575911175175 2.085129613554297 0.10782266344918234 1.0183057187422526 0.7316865945212689 -0.10496065857380635
Ni 5.245919255313702 0.2028188286444317 9.1385650133375 2.272274382372596 -1.020901761604203 -1.2531564521416934
P 0.6873912956419745 4.176204420580001 12.42050593832084 1.7537849475367346 -0.8034620245923582 0.114059535551281
P 9.508296315330917 0.6033512727011761 -0.12198659690633773 -0.19219536062275933 0.9018771687381629 0.1525119259902083
P 3.250574196225559 3.521841147946844 10.237671689955278 -0.0713347429892449 -1.7556484831080343 1.5151888881622486
P 7.209083738123332 4.183288253931333 0.21199421279159136 -0.1626148187521651 -1.1029502914665263 0.09070029200005025
P 2.2145892346561697 6.2569008050936095 0.7012379032309544 -1.4290661882305518 -0.7182101573013889 0.38062945443087354
P 8.969383660031058 6.489286004849614 11.437343600754787 -1.15670768769364 1.41900546156044 -0.3603370227304246
P 1.853201736373016 0.8597776402169897 6.102229643765185 -1.766129070924384 0.5363783993011407 -1.2565947883992812
P 4.921668216720863 6.308643587833772 12.10830768285041 0.9199887907372092 -2.271690484844668 2.45294091642015
