# total energy = -381166.26627767243 ev
CRYSTAL
PRIMVEC
9.29447506223885 0.00000000000000 0.00000000000000
0.00000000000000 9.29447506223885 0.00000000000000
0.00000000000000 0.00000000000000 13.60340375352132
PRIMCOORD
 96 1
Ni 3.89080658416206 7.711830251243057 7.1730881000960744 0.03205805687680931 -0.8841946638567353 -0.4823160702390984
Ni 1.0792651236728599 3.8420012967895696 1.9667396885183348 1.51844699008823 -0.6441973532593487 0.1599616974000342
Ni 2.799124042106102 2.056588447326395 9.153634730985736 -0.9744681527320123 0.652943731993411 0.14940243382694918
Ni 0.18516080992569042 7.537586731461669 4.067526152040198 0.13590311378893372 -0.3699786595852467 -0.5534880623982339
Ni 7.090039179079238 4.2918445844569 9.284037142405422 -0.24440675251899194 -0.492656532933158 1.583051613442493
Ni 2.02661376597498 8.300505109560339 5.760592817306436 -1.1551853375118426 -0.8326399317078952 1.0822500828046975
Ni 3.2169013915835465 3.7251604536054956 5.511459995968182 0.2047310311959248 -0.18449722064755325 -2.420513134908748
Ni 0.12634165536311817 9.091148906099711 0.30308817721828574 0.24176880067551265 0.7516609807606668 0.28776326512775596
Ni 8.715243165765871 4.38562583556877 10.740580800345644 1.96367618277736 0.12468873313035299 1.0804842491535265
Ni 0.8614546825374793 8.905268703821587 11.410629715314016 2.3302003081551033 -1.1212598884089915 -0.6589768255613683
Ni 8.712306111717174 2.4829260081293136 12.19082559268839 2.2831000122331906 -0.3537184889726424 1.2132596159467557
Ni 0.4826527838442283 0.5976124253211625 7.295069717312852 -1.0737268758250347 -1.1534531853120846 -0.7530043821624386
Ni 3.1100706977996193 7.412715462017867 10.904528830349369 -3.3178831598051763 2.2318232163360854 -0.9406746012213348
Ni 8.940132278937604 2.5940228658637214 3.883853387536015 0.7719816945958898 3.0208639232967913 0.418914208943685
Ni 5.585161463640796 0.7985933608680138 6.928077378348316 0.44687418449172067 -1.0805418418643389 0.5503703427048586
Ni 7.722016995665119 2.5505061346738533 5.925982420357482 0.5580756817689163 -0.513580941790651 -0.07057343934318813
Ni 7.051941126719718 5.935711876617531 0.7318711143509893 -1.359512962621762 1.5603801399869062 0.2718082844603964
Ni 2.6832219408806304 6.592989253711492 2.8877301296283693 -0.22160543835376026 -1.9952508722598477 0.6876255996463125
Ni 0.2728960051556697 0.5772696082440022 4.8779764744586 0.22691939436750597 0.3005879276962501 -0.02399662002491351
Ni 7.342319109597519 6.568628435162017 9.546609774358915 1.3396753590705444 0.7351624688850112 2.075680121351193
Ni 7.343731869772842 8.225015384928959 13.692097981337305 -1.2791382209174358 -0.7900048706461879 -0.6790617692367014
Ni 6.349390362691573 9.112080063434096 9.500875381472785 2.3008501371277603 -0.6585171123161305 -0.8884845494813407
Ni 2.0601947035634027 4.616612124234 7.583598099697962 -1.037679238172858 -0.8217916761394815 -0.2760837719072987
Ni 8.971798554709473 9.029359237379026 9.411337987571786 -0.8376726090357961 0.7419553234371287 -0.11034660547606802
P 5.092721597792524 4.828488972633026 0.26721429268741537 0.03464638642927582 2.656852794148889 0.6630959899360644
Ni 7.248760925881754 4.506388947134331 12.600656166179645 -0.5872289062941047 -0.39192431061840244 -0.06335172478376831
P 6.187712972890685 5.374678786467417 7.794682129393337 -1.7178789776687449 0.5672362652222618 -0.5250771153557086
Ni 2.227616078813958 4.261944258904187 10.130576981170927 -1.3464712989464553 0.0614503939959974 0.25779320112822696
P 8.347079722971793 4.860452671599698 4.462704915397385 -0.13784069713127875 -1.389656833194994 -0.09648450278199514
P 6.67535688972273 7.468157004424437 11.63296377735288 1.1386487733094002 0.6222067079208704 -0.8366647365965719
P 1.0422638193441829 6.3288588677752085 6.490510233046552 0.26927266252273624 -0.2966055460097344 -0.1912844187727157
Ni 4.920532156950255 5.446106825594742 3.2137087394768145 -0.16393508022548542 -0.828404810580625 -0.3936667472308059
Ni 3.74739283741715 3.055168234933632 11.399924339196012 -0.48428270704716603 -0.9501802267189248 -0.4225608045573368
Ni 4.347918151152431 8.84980857246534 5.2049068385304205 -0.49082256504821276 0.43718832466252444 -0.44856494193058233
Ni 2.4002609489232714 8.453798883057669 13.135038279180286 0.8404586564213654 -0.9302153535612239 0.6224134246150377
Ni 7.255508714613887 6.40895865192606 3.4657665320464774 -1.3887165807689117 -0.7619361374344297 -0.16836663363427778
Ni 0.08819527173444283 2.4990890998719837 8.499392929373752 0.8702937375049269 0.9363260944446519 -0.22707288922623473
Ni 9.245548722102722 4.8518459879000355 8.470662778203097 -0.06071094472681157 0.39846185462660405 -0.5998491661612767
Ni 8.66723720322942 5.251322516422151 2.105983933851076 1.1558921337708803 0.602153388814421 0.6719662958425008
Ni 3.5879089436779457 5.844142710517023 12.329513098978355 0.10139582404068344 -2.2169534983131043 -0.15791201395985707
Ni 2.207549307639476 6.018256107650684 0.5052681000191936 -1.5996678818429353 0.9341437420813525 0.8627071834069208
Ni 5.3013082020990225 4.7383325667078395 11.13186889653579 2.110613185782952 -0.9812370960247294 3.7088278801191286
Ni 5.68722409183301 0.5443420722366662 11.494114547200738 -0.4997018698157136 1.0615097649335525 1.3255214361676657
Ni 4.327070644091586 7.06679369751028 0.836495299808459 0.8731684879495608 -1.2966191513110186 0.9927754356816322
Ni 4.62589730459681 0.788348990701958 3.2143073036563594 -0.7317935524127783 -0.26385791926506813 0.09731008400708402
Ni 0.7306684093069976 0.5443179066020883 2.4098835187226886 0.7140868791616347 -0.10797707680262696 0.09447235744797278
Ni 0.7207437690753571 6.441572964131367 9.991318794125931 0.21905027603207436 0.9500686408417252 0.6406818839069224
Ni 6.5143394076353145 2.90820399880074 3.633673078883558 0.4961084960375005 0.37274979457248064 0.633179147771974
Ni 7.6650883372845255 1.9878000390529618 9.886423210003201 -0.5293582592295657 -0.49608407055746817 -0.03204751535384803
Ni 0.3487649443604236 4.461162032574336 13.466172534221176 -0.7786976731634847 -0.3161824397003974 -0.49112338411808315
Ni 4.165458315614561 5.089329114476782 6.922350122953358 2.5358134848456655 1.4344156254679232 1.0844375773743193
Ni 5.0702289686854165 2.845828778165284 13.386374820502548 2.09903962201274 -0.5305628210606282 -0.43383869146400117
Ni 1.9600932095619328 2.2639388864794867 3.5033115631531566 1.294436284727087 0.1255737068384676 1.8035157391029586
Ni 7.174934912246315 1.4200470435952275 0.1066029791504049 -0.15264536624427905 -0.16271457755482302 0.17263980708833493
Ni 5.566033434424916 0.0703917051829279 1.216090946652845 -0.9000159471597081 0.18473427635902379 -0.7811186239001515
Ni 6.156009519219467 4.688040163361326 5.216347407608082 -0.2090815948551367 -1.1133393480103344 0.21630716606929845
P 6.767957742530218 2.581261551911631 11.675066818919943 -2.5916814996578785 0.2896615105917334 0.23313375070833398
Ni 3.4010714104915443 6.404497304003989 5.151445948711752 -0.09723860733920027 -0.4073717555217242 -0.3646145670598559
P 4.2005077802273325 1.0224851768896677 13.146927771392606 -2.035348511611682 -2.408484485878988 0.3457053888601788
Ni 2.768647459113454 0.8851611700583845 7.131992579601414 1.2187399223350368 -1.3261061050265421 -0.40376089824201433
P 7.6321858963592515 1.1016741025064294 7.797960290668575 -0.011411584271051314 -0.4505871145669337 -0.3012870106458037
P 2.3693847035126043 0.08047528093429232 3.994285690319531 0.3641391700853342 0.8893900920147457 -0.5094658911810129
P 0.9454990418094283 7.302938419710405 1.7187761121146563 -1.3152105411599606 0.8907481487045369 -0.3108160331821615
Ni 4.607141054374437 4.347388366086685 9.242954634175534 -1.2185573740105853 -1.576283441480724 -2.996197273788046
Ni 1.0358506317062057 1.8173114871059828 10.696261026529802 -0.6032368516865869 0.7407775010789436 -1.0195262214129153
Ni 1.6521951416151641 1.3443342515677459 12.919750358515845 -0.4647029851430255 1.7253218071000351 0.8255102626416494
Ni 5.004080191265874 6.588862506883577 10.052261736188905 1.6002502367089666 1.9236533625275192 -0.5467474012402906
Ni 2.8821887637301633 8.534995415239361 2.0626428682356392 0.23647644192832176 2.797127554642957 -1.1522733060713704
Ni 2.9316260753916135 3.933375278918488 13.591649803424392 -0.32364712350855873 -0.8966714561675073 -0.01800363566627222
Ni 4.821471644130602 2.1010160370503534 5.1322509992770415 0.5073863829441648 0.1422791925186066 0.3367759475810329
Ni 3.045325386080563 6.1624412958071195 9.021967341540645 -0.5331017854323981 0.6920103589775695 -1.3003202543116894
Ni 5.0273349673096694 1.753597862093905 9.094704972172595 0.003742240651251619 0.14801326678890636 1.2233285701469834
Ni 5.8184341931160874 6.9702798707961415 5.404904418639449 0.026982185015798694 0.7682047440519608 0.039711973877641284
Ni 8.112552239393418 0.12061161162570812 11.571776390601675 -2.2849059550936777 -0.09418362256296037 0.6618477193512602
Ni 6.338701716628278 3.018966255440993 7.705294376537223 -1.0132645567739196 -0.26789018035291284 -1.603560274918806
Ni 8.919015232106469 7.277090485186905 7.90190412056793 0.7314497959201145 0.23159520257662047 -0.7022780594521648
Ni 2.7582190583456128 2.0240670798694644 1.3269944793106296 0.15865994786947513 -1.2784072562886821 -0.47501233748883365
Ni 1.7504098572245916 8.295737043968625 8.713809957745905 0.9421010492552162 0.15025424030428317 -0.1642916922339558
Ni 4.711192700181908 2.7938447803983184 2.289602790401201 -0.26477348910080206 1.9743961402980255 -0.24907150498451297
Ni 3.056488050360578 0.7334195738589415 11.213598002125682 1.4329382695914483 -1.2469012152606012 -0.7134934685520099
Ni 1.2618179039591062 4.563122421543335 4.7950362987973625 -1.5749544382566554 1.4713623778956015 -0.560220496026061
Ni 6.978273119156519 3.670871426078793 1.3632921918940968 -0.10377383735455675 -0.7862970827772974 0.17648926274141216
Ni 1.2343992031880444 2.630652391198893 6.216021154903709 -0.5818357603029914 -0.5594123983024689 -0.11194943118681365
Ni 4.16585797803258 8.743805086941963 9.060954875142126 -0.8924499618869919 0.7496884304153282 1.180375206513909
Ni 7.8568798255593935 5.638697638705649 6.566335488219568 1.3185110662881034 0.216140301474131 -1.002538428605667
Ni 5.136080322910152 7.780841726912595 2.980464822873519 0.5913475564481686 0.10832571839129732 0.921138073850304
Ni 4.734010635908334 7.74644287553846 12.380675465169674 1.4644422537370005 2.3031553882221685 -0.1102897840962036
Ni 7.803882730035125 1.131611605958494 2.77742051391271 -1.871070446224481 -1.9726030529533447 -1.444712122297925
P 3.72652674140663 2.7839275757465476 7.29271635628396 1.0509199052328482 -0.07935735618340527 0.8950226077101747
Ni 0.13161069314858087 7.082538537885256 12.764454555138483 -0.16023423433513048 -1.2948080662442087 -0.16241170160242352
P 9.006448356904224 2.347765755040235 0.9013084611938306 0.5323294260427477 -0.4884118987241911 0.24534520517286135
Ni 7.802878926752658 8.57017500249986 6.028946612608947 -0.2880062343764976 0.3135879395003438 -0.5086971313357884
P 2.8856091304704177 4.486006163815369 3.2119400009152104 0.353081883829908 -1.4104691419546547 0.28604165445095897
P 7.329910985689259 8.444625236392909 3.695554762905135 0.0912034568887139 1.4089994993876638 1.021223663719996
P 1.3299556989939043 5.448253849282239 11.83648489287286 0.5494712279293569 0.0413857620356384 -0.07676825529999037
Ni 6.341220519309281 7.546992739997369 7.763516825815219 -0.7718235717514706 0.03376449804495475 -1.2650550033514922
