# total energy = -340876.34401015006 ev
CRYSTAL
PRIMVEC
9.15969251766821 0.00000000000000 0.00000000000000
0.00000000000000 9.15969251766821 0.00000000000000
0.00000000000000 0.00000000000000 13.40613587551422
PRIMCOORD
 96 1
Ni 1.0512853694353321 4.100794262554766 3.0947660170235145 -0.7955705376594234 -0.8529724726176601 -0.9148810371969985
Ni 3.363237515604945 2.864583864379836 7.578019569538676 0.7262191436487945 2.094442232450045 -0.25563733112748876
Ni 2.517239170990648 2.0971848397722006 0.9016846942216271 -0.3814678911717688 -1.8457666773523695 -0.5863187357750096
Ni 5.290363507312389 0.6962685177385369 10.656899016160192 -1.164806919762007 0.5353764403991876 0.6566515198623014
Ni 4.653728250612352 2.7548599097871542 3.5414320024099326 0.8258524764724164 -0.11101612073926687 0.21992265133469865
Ni 5.283594494669932 5.775158544020532 0.6782688063127019 0.7172907308109131 -0.3387929780110617 0.17712483944288204
Ni 2.292954944247481 5.552880289900773 6.800315891043674 0.04761323100258897 0.4037097332891047 0.2602696876931776
Ni 0.9126314425423312 7.578940118619282 13.256670679050156 1.2495358246699706 0.6684443987321713 -0.4397838533038426
Ni 4.990346944266333 2.9583058364469794 1.0011461295117259 0.010939272620323097 0.1368467086491256 -0.06477688726606909
Ni 0.3203034496502683 5.051121502970937 5.244293002728132 -0.9871912567256353 -1.3095150334370804 0.48105340147659087
Ni 7.825161808527109 6.210179812529609 11.974293599521353 0.4833455399448772 -0.5121807190090146 -0.48542736217457044
Ni 0.15489772529642873 9.125425935265913 10.993942719538952 0.15098160538861094 -0.9240081963092474 -1.2855032439035152
Ni 0.9240664024649878 8.582008867554082 8.450732156875201 -0.0379026885830444 -0.6773327023607367 1.1553426890253136
Ni 7.938284008979537 8.134273946071081 0.12378316637198762 -2.088950613207854 -0.33032273575652144 -0.7905316896839353
Ni 4.212918056541661 5.362752555909597 2.9023080572999422 -0.24331737610955512 -0.466685562790693 -0.3644554157741723
Ni 3.5539606295985022 0.9832105359323011 8.81442690109901 -1.1210881387178175 -1.58663675969059 1.3285651080899956
Ni 6.054171932521048 3.047200650648664 9.45156685684722 0.5782457289588879 0.32231632051227715 -0.8045943384245885
Ni 1.6882503750597646 7.12061659278624 11.21041189677394 -1.6476379819643108 1.019259855125406 -1.8892445460303464
Ni 0.617380667423029 7.4089911868626555 2.0299169751647046 -0.18186672500324164 -0.33872972887329406 2.565405596680485
Ni 4.680804301182179 6.622274371100837 7.0773535339055185 -0.23612240102301268 1.8032737982954814 -0.45384753048576026
Ni 0.06475261308974405 0.33858344766183973 4.759996253283519 -0.17253284919682543 1.1040206417125698 0.9167355739072341
Ni 8.662540882645397 2.456684444902309 11.256301039449777 -1.1737340470483077 -0.9730262780791631 -0.19884577605974144
Ni 2.15915931817391 5.590141918357491 1.3918656300282348 -0.3844778816426862 -1.4874927077985607 0.4070367407798086
Ni 8.310927772623751 5.6469961287387225 3.2915949819337995 2.1755381685911113 0.4935016545422726 -0.13491992394005795
P 8.579178522619685 3.437137913438968 1.186310226221511 1.7064753638174934 0.12943601800735127 2.902255077811931
P 0.2748200813452829 2.4657433806308475 4.449348951302639 -0.4369157877274282 0.8887614572918113 0.19495286876323845
P 5.054647984523502 5.909970895944323 9.566725256907791 0.04508789347757396 0.25958526003164323 -0.8237516280793297
P 5.6347038216126375 1.1543227486166556 8.476002832083962 -0.6998383396624205 0.2863080207384682 -1.1682190307673495
P 6.094227267142786 0.8486583192710893 2.409283952989656 -0.7634888266335302 0.9320526638802786 1.1163133430369936
P 8.548337838496339 4.877508694276581 7.143753975648008 3.2868381175739136 1.4136475396826365 3.8783180858348882
P 7.035513891215106 6.629336493898313 1.8536799146136993 0.5636326070314036 0.2073682117084558 -0.46757567870513017
P 1.8415195070573722 9.078271839077322 1.4167470183123623 -0.02759282201660409 0.9671844745864052 -0.4396905222590879
Ni 5.558110474229383 0.6658656669092501 0.19840901183968068 -1.0951701333004753 -0.8580869110260899 -1.7700073229328674
Ni 5.502025678005075 4.614149219992519 7.680281122778435 0.07229222180650775 -0.8344255628534082 1.2303474246669779
Ni 5.420760887526215 2.604833308879438 6.164288837915301 0.46818734414720015 -0.5814644930065018 -0.11406467775760355
Ni 6.174301297616884 6.0650811261031405 3.8622410670776075 -2.6497084697946236 0.1664313642847779 0.21251118936197594
Ni 7.471112220341875 7.6109898821320785 8.072665855363145 0.27890324363396485 0.5030324768508434 0.3809050766897633
Ni 7.363632390373554 5.4137812019598375 9.036352507063514 -0.3205234902779125 0.4967440727389703 1.1573301517689876
Ni 2.8584560302014816 7.021105695157482 9.041795196254512 0.8781841959965972 0.10475059944552928 -1.1154558801327048
Ni 7.094190880372859 5.513759243898156 5.989566790478047 -2.546362464006105 2.1042157668970405 -1.2976267666399264
Ni 1.8998484279060404 3.247935308374569 5.643058376999897 -0.007993816838753975 0.6399090102966399 -0.4334975060744986
Ni 5.274260768171064 8.071914760590909 1.817282045145051 1.2934111858966821 -2.2897766529224177 0.10798633277400757
Ni 7.6107334107464375 7.640099384402346 4.572631998472627 -0.2535174565710085 1.1209356723003534 0.511419672473274
Ni 1.514500170980244 2.326360342227238 9.01038477926735 0.8199078288532073 0.2616938217342138 0.9725778776878347
Ni 7.381887657215795 1.7673534781453644 0.9226594737208993 -0.032431895276460274 0.09157858083994551 -0.32128967901997574
Ni 0.2010378435425023 1.7115343129990415 2.359653991960394 0.0385169251282756 -0.4975729963981689 -0.5066065673553468
Ni 7.391377098484518 1.0112849929676604 6.728043170539239 -0.21411915727904413 -0.8658783820460507 1.2336577199871335
Ni 3.96762149556061 3.2899599768503367 10.43403545769963 -0.9534265015703645 -1.4087573014698704 -0.4320029238068431
Ni 0.852957878857516 3.4733186981990554 13.117059564307173 -0.11468971293611215 0.617235479958524 -0.45638675196784634
Ni 3.0551970620652606 9.00858489972169 12.819858690687765 -0.0920282667828544 0.4718871615962905 0.07573775715294698
Ni 2.4220058496866903 9.035578513060418 4.647236776647928 1.5131428042664972 -1.0643896575845087 0.04082063356078776
Ni 2.851677857866681 5.2766331284882435 10.904403062996225 0.20466726783752495 -0.9234685217556935 -1.1692765254975863
Ni 0.814814172028039 5.9065360113152 8.600854018583298 -2.5774656131688123 1.0450819583948323 0.36731011161414806
Ni 7.299761855656568 1.521663050393507 4.347837576865881 -0.9199039443328868 0.9069406993039993 -0.881860873517236
Ni 6.869567745012952 8.144056497494821 10.989049611888612 -0.5879755546521422 -0.006050577069454097 0.3245459811737443
Ni 7.91989134675213 8.846916329844335 2.222630490304683 -0.6275862270652288 0.4188566162328721 1.8830569291623958
P 7.6156888043047175 0.679905643334633 12.148063954924032 -2.3981311676691215 1.298839556001105 -0.16487661820314828
P 3.9304331446426466 1.896303626968786 12.508795538674452 0.5971849890655521 0.3026530377553949 -0.5984553711375435
P 2.4567760418257523 8.125416523574117 6.98892677998263 0.7916277509615915 -1.49520524595147 0.1121090966931295
P 1.403832768076097 5.475206098820888 12.636797659340237 -0.916087398800274 -0.3335728672627029 -0.29900464236953017
P 4.072298459671568 6.515719670059292 4.882179221402953 0.693756909355031 1.5033319888236625 -1.0311661196446884
P 8.545855561871026 7.251261284693363 9.969781031073637 1.0784610480759103 -0.4773615544473004 0.1411965009773891
P 2.3510915115569184 4.518714385456986 8.942616795457853 0.5752722481528608 -1.7115026418287558 -0.4558817873069697
P 6.408624547169433 3.8416024482873725 4.397225722017252 0.19287978828429364 0.19952686128716604 1.4739129122315973
Ni 5.061700947628633 8.136481431926063 9.028227859954097 0.8301624167016799 -0.37483675900849633 -0.5750254222493775
Ni 4.170096494831937 4.635418025616044 5.772655200102829 0.268572294021602 -1.413336693310437 -1.168322389114433
Ni 1.9142566239636654 1.024703942252098 6.725134052250681 -0.4463077704652894 0.4358446661504365 0.4314599068191795
Ni 6.8411543793608525 4.208182495599645 2.303348447150588 -1.0951284814292623 -0.41981563771203184 -0.10212627444880477
Ni 0.2694195267390683 0.9957226756746503 13.09307582587279 1.7920517043274171 0.11028412766924878 2.345631297998193
Ni 5.248851781607903 8.971112598341051 4.265590867367708 0.3421973757069203 -0.5549834159968378 0.4024516925122876
Ni 7.71194801115124 3.287120472223596 6.3522558004824505 -0.23013918685638432 -2.4595519939787645 -1.8675709177116548
Ni 3.2480360649903566 3.9344908883511827 12.898244589862802 -0.04593969995490798 0.4652105209070633 0.4256661829555378
Ni 4.214310329777999 7.465286656010885 11.161573333163227 0.4938058160462528 0.6192085445244949 -1.4933368252841634
Ni 3.018942999766418 7.409339255171741 2.3953145061953243 0.012021707051224458 1.196008799286108 0.602233350122737
Ni 0.5205929463282392 4.464653881240774 10.521926369620376 1.7373851660224726 0.7121289841043155 1.1847003162518244
Ni 7.4602579849138495 0.9315223920332691 9.401736298555617 1.3139663843402143 -0.2995198914430519 0.38168026429289104
Ni 8.882804004449405 5.612399970754204 0.7409815559173646 -0.341582882051373 -0.43745083429529175 0.4053410982449406
Ni 3.2842351691351332 6.394481982189793 12.971535868155927 0.9333359014680764 1.0963924357433505 0.7529259635160194
Ni 0.1390514575407447 7.043675177093901 6.446058377842224 0.4392117828504565 0.7992083915223268 0.237288653416972
Ni 2.1457953270435386 5.738483135873851 4.286786395452479 0.9874460530489189 1.8501774048255555 -0.5413542552491774
Ni 8.514465296207021 3.3354012105705384 8.847594147077814 -0.5637251667452098 -0.9089230198413507 -1.0573355789512047
Ni 3.8567067809631657 0.5424021738000794 2.4637795425922238 -0.7232973420163091 0.6026899780441813 -0.4863061652350979
Ni 5.054135041752221 5.086899261267874 11.637585140882397 1.8148910708194355 0.12827927869508873 0.0394638624225772
Ni 4.6582439789381045 0.028171549774209156 6.652285187097787 -1.4174645994358814 0.8484804982845774 0.3962188242286983
Ni 7.125462070036388 4.129125190975767 13.368222908234765 -1.7624644775886036 0.5497602199246854 -2.4618924691864823
Ni 2.3049999396802696 2.023687468401328 3.3570574711802283 0.2011039759662988 0.1513040217250362 1.341850255234676
Ni 1.819069101121429 2.0770976344610936 11.487409236989468 1.7066023763136609 -1.0313075303185593 -0.48768196253670204
Ni 5.9581875164448554 2.6566496884712905 11.749887548870007 0.6876914198872414 0.09479168846060448 1.5437312185763155
P 3.0999879576290152 3.7234698961225994 2.0974834457426255 0.31614824402835234 0.06917913009882279 0.2659824218072387
P 0.5560904180394403 7.5835016454067565 4.289078150477029 1.7415678366452523 -2.3650022463256364 -0.8476292060278757
P 7.616476537846329 4.297370419956347 11.060302858635124 -1.8130838424073679 -0.815090352859906 -0.3848344936511566
P -0.010210309056220232 1.2477332911440926 8.005474016202106 -0.9883971041082785 1.3681922355633145 -0.8368465135900749
P 3.591506208517894 1.906470885470988 5.355871795020539 -0.7766055665211463 -0.7468496754149525 -0.36195398950855723
P 2.296774535955065 -0.1111684380753818 10.54074862141873 1.2653535084285177 1.0801363788958043 -0.593233717727288
P 5.215483022397523 7.701176212954312 12.976187159928376 0.30616105090865336 -0.040498731444994766 0.09665162448747872
P 6.487846726255509 8.21174662391939 6.324049443877333 -0.19790603785429142 -1.1272999239554842 -1.457733217147941
