# total energy = -381164.20108738134 ev
CRYSTAL
PRIMVEC
9.28853685905856 0.00000000000000 0.00000000000000
0.00000000000000 9.28853685905856 0.00000000000000
0.00000000000000 0.00000000000000 13.59471259292271
PRIMCOORD
 96 1
Ni 1.9200706250550899 8.097384251519733 10.054214261515638 -1.036203682068596 0.12211814418969938 -0.7939425151376971
Ni 5.109707767632721 2.678098836207314 5.955585103457905 -0.2273269142185698 0.48556080242864114 -0.8064532460101982
Ni 4.177445180556354 2.510663669323392 13.271321323240196 -0.8079138897161248 -1.3975717171666964 -0.33528882151254513
Ni 2.846072738233767 0.9118733196389495 1.8819839081855219 0.6483216598403674 0.1243200369370246 -0.09371002536065151
Ni 5.6230852043171975 7.929057385089553 1.501916482520392 -1.4073997590007117 0.6796963174969068 -0.7903684246331937
Ni 4.686187637307674 7.483226189034162 12.827332044060046 -0.5477251917725275 -1.9021957068743758 0.14983772159215486
Ni 0.8272324556251331 7.86205916813994 1.3848251858523168 0.1293930805845578 0.6717274403588173 -0.10258855879720397
Ni 0.6863532158532234 1.3734309375877818 5.178851636615519 1.1713771167803568 -2.973644071077879 1.1112459558164154
Ni 6.221489908152202 7.791317670803428 4.223048181517926 -0.34780983679769134 -1.9163437162399832 2.1955176970368315
Ni 7.844438813564393 6.030870553065558 12.75321323469208 -0.05968430323451011 -0.15222936175278298 0.5404551404736756
Ni 7.315419480672632 2.4429409464924436 9.944899327973893 0.7178152358558153 1.5013429834180918 -0.5934198655961651
Ni 5.173139186397301 3.723022087831284 1.5114604542264405 1.178291584512003 -0.25033057420259464 0.9441679590865739
Ni 7.013997168426424 1.2357005118385975 5.869857480622086 1.128608872574895 0.0016030828210617553 -1.7157948414462063
Ni 1.3226040634510448 3.994656062110293 7.508034013494029 -0.7461801601517536 0.6164471797292739 -0.4262158848114208
Ni 5.354739372115017 4.803864111802982 9.586842019442244 0.47679745441371435 -0.6248251193803239 0.9956969802038013
Ni 2.5246336288814426 1.5002751980430598 6.724189242770232 0.06562663686087407 -0.01908478454559294 0.2711778499652491
Ni 4.102003683528106 1.6649238038449237 10.63701979641328 -0.10281558720634551 -0.6203915090890025 -1.3549379416565699
Ni 6.711627425412315 2.874244870773373 4.066423013925001 0.11457581306606719 0.01941439997086979 -0.9889272655801357
Ni 3.502818742590125 8.498862683685703 7.216631246045208 -2.999341990064615 1.4004580375755558 2.615956055934527
Ni 6.140270941147153 1.4464202608638197 1.5984531757935134 -0.18879533380227484 -0.2603403930301129 -0.15654521551931752
Ni 7.54711274610881 8.29965143192938 6.783557855477172 -1.2247784152196326 -0.7033013585103565 -1.158749143603701
Ni 8.98200593262985 5.948118977465378 7.707929830422844 -1.5481445171526627 0.07214155516125641 -1.0726614106749979
Ni 4.542401085473484 6.807327221507125 8.902049277794974 -0.38457918310724093 -0.03267923540057598 -0.37162236583625674
Ni 4.729379334079573 0.47335963298504197 5.866580484789585 0.3819093495845616 -0.8063915395343273 0.1560253384601055
P 6.6503137930701 5.879012262630341 7.216453834989649 -0.7834536997912314 -0.5864971703344029 1.421774796775461
Ni 0.6294265595078615 5.36733462820592 5.392343085063695 0.5060103285322447 0.34102135312094817 -0.1977800537993884
P 2.719795078531841 8.876831828856043 0.08414578499490391 0.5559864033400554 0.1199051956987806 0.7744872346265629
Ni 0.693595488105492 0.16960775567423317 3.00240624576677 1.6310160571369137 -0.9274349626026093 0.8001018498708736
P 4.567322230084022 3.227357891091756 3.5726360305010867 0.4886983196163584 -0.17832914416362836 0.08245090750706445
P 7.696295937905252 7.2540872712565365 1.0574711361764773 0.9551689381827679 -0.1725667877585544 0.22632778353009408
P 8.478437190954217 1.4760135395552751 3.5558330671762772 -2.568453125257557 -0.03243600904151833 -0.2394699773390069
Ni 5.768980254036812 2.872851590232344 11.627842893482791 0.5083942553833889 1.3802106001804295 0.45948158884308604
Ni 7.656903252741894 6.064077072626748 5.476929146709565 0.6604058446984109 0.6608748139150297 -1.7052890568188763
Ni 8.017902240922501 7.96934176979917 8.859171533571654 1.0651018531601848 -0.3575987978636551 1.7118168306350647
Ni 2.9507638380866843 4.731840796368724 3.949997705355538 1.3962242019998665 0.034166875689695994 0.9263440435312755
Ni 8.675335597012433 0.4541565117148867 1.0524376780085865 -1.305985423017267 0.6789393847262242 -0.8509731827994441
Ni 5.6187567461030685 5.408092728299487 11.911265878846292 0.7856751329225824 -0.8768608491994835 -0.8646342252263045
Ni 0.37083740650765995 2.099181482872835 11.652259670537477 0.059185766331536785 -1.0365206990883826 -1.8590626231303273
Ni 1.2324588124464702 5.827312266021225 9.307456761086645 1.202007182961388 0.5002076058075385 0.999175425670705
Ni 0.760626214934396 5.476066241627821 12.189944279540745 1.1692112194772897 -0.0868958306522955 -0.7855573763977954
Ni 0.6673330787607898 8.084045912473616 6.296689903220006 0.46129035991705075 -0.10836454204903273 1.060261237238432
Ni 6.305151760372523 7.465689431291077 10.777221901842251 -0.41340690597221064 -1.6704053575678135 -1.71365876893981
Ni 6.176347618622863 3.5024750667233375 7.9156298760888095 0.023740795260365564 -0.2862226601135135 0.2320603151384971
Ni 6.547341072551118 5.504758532236076 2.8714341594952706 -0.15231163705394413 0.7614319441045015 0.7450241921704395
Ni 1.1152932074828736 3.6542404717891537 10.11734844709813 -0.32233868910978036 0.12323580273391033 -0.2937271960206748
Ni 2.484163473433021 0.5351720597609454 11.759534841367156 0.4504043091321662 0.06092126096540476 -0.01552637777037326
Ni 8.303534040370382 4.027509617267756 11.599892756976056 -1.3390341259421197 -1.033012428824808 -0.21615727075499547
Ni 0.26984685977171574 9.154484775072296 12.395686301619717 -0.5556591019076237 -1.6529172280853792 -0.0736245674646861
Ni 5.741588358600183 8.7170875705586 8.433751897442336 -2.2068562619781025 -0.9880998845828338 0.31288757099920955
Ni 7.788317473371746 3.6819946201664506 6.253785222239561 -0.9984400901665772 0.9132640704188658 1.0193367311099284
Ni 3.903275435692673 4.51092223378317 6.766441868457477 -0.48356099838979294 -0.21072478688551452 -1.5569759994013639
Ni 4.207586482927281 8.383944904661632 10.467887613830387 -0.700339447668555 0.8994868141291154 0.9178365202808967
Ni 6.210241489917628 0.40688157410407955 10.626823769414033 -1.622941250548579 1.1547104547579534 0.37680365292688006
Ni 8.372501427151315 8.692621564258133 4.7442967244055225 -0.10231807874463669 2.096343563237815 0.1637687298509502
Ni 4.886782881068086 0.22477887853789852 3.5921577485882907 -0.6163391933964998 1.062226845605235 -1.484048458003702
Ni 4.973723586828293 0.24433867962655728 13.206896031023017 0.16399113027440146 2.4777638890011007 0.26557387351491035
P 8.496549837987594 4.013874045039553 8.710404468230132 0.33243875365825976 -0.5337360765822873 0.32662548941059233
Ni 2.9039867660558714 1.8641164785273663 4.218752233183087 0.6553181457628585 0.025727229562775046 -0.36277494274795585
P 0.05315458149394941 7.448124807937171 11.065905914528678 -0.6685624123672743 -1.039760546181919 -0.3586547499319952
Ni 1.3076030762926332 1.4011943745020194 0.10468088246228294 1.7258491403584149 0.5185020332413522 1.6419964674078174
P 4.697686846039633 1.5160471337675079 7.996246945900134 0.030339017303173562 -0.16307196089424172 -0.29374493663248763
P 4.320655843100253 6.8729693120634705 4.378313507302807 -1.7784829645040465 -0.05516558942855016 -0.6748101930491991
P 1.7646362478978976 3.3158776481317975 12.702437447508514 1.4035731861657699 1.4415483798579625 0.12073411935797917
Ni 0.9838325441683198 4.857811934351623 2.935180459662122 -0.32773106376994526 0.21438552356655335 0.300127957340696
Ni 1.8089332805656786 7.058201315724802 3.6976393029348182 -1.087735788509617 -1.2043823680617838 -0.349054764948386
Ni 2.8586029745660873 3.4487966117459616 1.5086460275335618 -1.245133581837217 -0.22918530758354724 0.7798132748251667
Ni 7.034209024808283 1.0348637661177411 8.03189263526182 0.4494203479523421 1.4558866508575055 1.5255100675825986
Ni 7.384498329896849 1.4602137382200069 12.422182782095312 0.5153508892068802 -0.3506228807664542 0.8810530329039601
Ni 3.7825801866918027 5.822565823644787 1.7803496658396223 -0.16210805431907566 -0.7648373702416248 1.1776961170198492
Ni 3.458540286996224 7.909449283608804 2.3849888356688846 -0.5760152969664724 1.3730243668446354 0.3165843031245064
Ni 2.2925316678198957 6.789353902527852 0.014398161110993424 1.0159387611719728 -0.676041494353139 -0.6287650778646784
Ni 3.601834546372584 3.908764961024327 11.059665875412257 -1.072627472113269 0.9653661904307439 0.13651400790005522
Ni 8.231083452236874 4.1919260096461155 2.0586881060820623 -0.847239683898941 -1.169625938417205 0.023862151329578262
Ni 3.8435037004825294 4.740934274033173 13.394517046385367 -1.2130570130176461 1.1179087125485714 -1.6288717571004012
Ni 1.6420275602873475 1.3389983311504858 9.50300368502006 -0.29839734780283445 -0.14589853443874876 1.4049458981435805
Ni 8.924742102393559 2.967529647263733 0.03758792243587968 -1.055598284545124 1.217255624480026 1.6227766999462567
Ni 2.5380276991492012 8.737782430861351 4.988036293399438 0.7864343796861101 1.997040874280735 -0.5615870373562845
Ni 0.7939850665014058 2.552833627031869 2.5096521476506046 0.17356977510177204 -0.5429449967750649 -0.9453642933875204
Ni 0.32840644091116356 5.690454962744418 0.9718958453464775 -0.5769198110586129 0.049010368460431726 -0.8566800033762344
Ni 4.888556991623663 7.085676807993894 6.56921000392311 2.953651430006036 -1.6418558280648947 -1.3409326285164131
Ni 2.9546000038429843 2.9110367655934777 8.620611252775591 2.627110015668818 0.17788768575083555 0.9350451708496994
Ni 2.6374243329462077 6.625689881641648 5.926166449260925 0.10232116406843024 -0.9744041322632961 0.28757840281045954
Ni 9.013531227004865 1.942149477361929 7.386129396983546 1.3107699888901039 -0.11482778117587321 0.6378814383436499
Ni 8.360825736217492 0.46366332927317433 10.354222858439549 2.2506007540539046 -0.6009367427985005 -0.17786660270491306
Ni 9.152580624999556 3.2242926739014925 4.651457797688292 -0.06547648443625496 2.8520419472926495 -1.7602165620946912
Ni 8.726441127257376 7.068660208319461 3.3721411029396293 0.14588439337136166 -2.3278562334029584 -1.5006945512008154
Ni 5.832634597687956 5.847440525570624 0.6456619932256251 1.018758490008955 -0.017471417311886037 -0.3595122128362841
Ni 7.223890237663968 8.794033810571161 2.6279398078765763 2.3433694985472093 2.4451414749803893 -0.18961114483535085
P 3.3443098597057284 5.090536227388163 8.5909613140088 -2.083012393346548 -0.012054617171688917 1.954764739220343
Ni 5.388168816562773 5.042635242387587 4.983862024898515 0.43576547617306893 -0.2957007748072778 -0.3974097592130059
P 0.9269123897988162 9.223498604537932 8.216589619195396 -0.5508547385404449 -1.0798070205808434 -1.2831949074853128
Ni 7.209715930293234 8.24430104030277 12.565443602738688 0.5693497120208387 1.7371470818697372 2.028052492170901
P 2.0324433449575467 3.4280181546107493 5.494139876806049 -0.7668649421946148 0.39493095865521016 0.613998203968149
P 3.7398529167669143 6.330741679642754 11.31145396166485 -0.774627359748853 -0.15745050094240626 -0.3305384513117533
P 6.744657462771642 3.991340054422644 13.53004237346495 1.065451780300436 -1.1016246306765674 -0.6402890193438779
Ni 7.873744147610703 5.841217205820694 10.251107094451688 0.9440882548885741 0.121133668789243 -0.9328702746855676
