# total energy = -381169.17031819193 ev
CRYSTAL
PRIMVEC
9.24267288863011 0.00000000000000 0.00000000000000
0.00000000000000 9.24267288863011 0.00000000000000
0.00000000000000 0.00000000000000 13.52758603620051
PRIMCOORD
 96 1
Ni 5.725669321449746 1.0077655667072676 8.984644006502046 -2.709094782172741 -2.8427564082256653 -1.1030747328595325
Ni 3.531819305131865 3.3223433728185183 11.459150549799917 -0.9587317158333617 -0.3401980858887044 -1.3642430211075796
Ni 8.774503526027152 5.221370617828105 7.067581534404433 -0.3704543136700846 0.08536730982291103 -1.7009076399217287
Ni 6.165860847762642 4.477187588965527 0.8404657981043098 0.9356974597217177 0.3835970216996297 -1.3400520256836728
Ni 1.3085313765117432 6.905986343344001 6.143052704532424 -0.9770456836512013 0.13821967773725227 -0.17131311785711142
Ni 7.585979010844234 3.2958076597196997 5.8258580441416905 -0.4077435370388462 -0.06957533709597695 0.5560126285923005
Ni 4.99094154667985 5.90039280470299 9.889327893986568 1.3336733758508383 0.8242383379077611 -1.915161265896108
Ni 0.3892163382660125 8.524674085044547 12.588514566061582 0.9432084233867819 -1.7960256013735005 -0.04718154278180907
Ni 5.796403495028728 3.5532530629431367 10.130118925411761 0.7418887318652513 0.12037416491539914 1.5701181932102763
Ni 2.764945514981374 8.341234761508408 1.6708330521014203 -0.41779680750979015 -1.5562020973498167 1.688615452817937
Ni 1.5575751903214479 5.1244149820194655 11.324280546627062 0.7034021457542788 -2.375043946832355 0.6096440407645113
Ni 0.4694676918442467 8.645697640361831 2.0292324713099337 -0.42422482252332094 1.032746833868247 0.49854384495187043
Ni 4.752120128790484 2.864147120237249 13.274092580627512 0.6020292045317309 -0.39017081826240546 -0.5857001283544042
Ni 8.309708005193512 0.7982619063760532 0.011179936804016279 0.5788357971344031 0.6811657029535818 0.48957249469119557
Ni 0.3194230687599876 3.592294112100019 13.319896493342181 0.6740676584562197 -1.5621032933256 -3.1770998351058055
Ni 0.8117728452154307 5.968474331239352 3.8220299828015967 -0.43109352461869627 0.4858148274209762 -1.7743128922867573
Ni 2.531263023070045 1.541807190827688 5.414186632739634 -0.7603076006920712 -0.3553267140000268 -0.9850785812580067
Ni 0.3454393436574289 1.4544731772189332 4.07606483982738 1.3117783755499601 -0.9064143944868841 -0.5342528683177057
Ni 0.5661007583783659 1.3195209142597388 11.583617924936297 -0.5185675963719649 0.7531041409650966 -0.2284718264562904
Ni 7.405155363660227 5.783879673625419 10.48819392681123 -0.9166029049841117 -0.05015888024257813 1.8285269164353153
Ni 8.727975912046151 5.691748712925656 13.137747446904127 -1.445090845793582 0.4817967074005187 -0.12483785711370757
Ni 6.388600015289088 2.744704061938388 8.115401147187995 2.9258423782135674 -0.07511503596728354 -1.5969887923488753
Ni 2.966602146256198 5.717794564375488 2.443812551786248 0.4976257040129753 -0.2241829692729494 0.06428837766542476
Ni 4.0288255400544575 8.202631642863379 9.856239125998492 0.22734748304386007 0.5872772430335369 -1.0228701981844837
P 8.943145330694877 9.017909309537211 10.209606834231387 1.48771922198707 -2.8123438573720794 0.4327955949114675
Ni -0.017912299542149096 5.123758752263278 9.412845937889207 0.535151468872575 -0.4985312465463801 -0.5159005910627631
P 2.796823492855921 6.196380152761701 9.891668138694552 -0.22257628690746187 0.13528990568496702 -1.2113562282764556
Ni 9.07539873324834 3.6711156242235727 4.015081685864996 -2.2336011341721145 0.89305777067432 -0.6920761792184984
P 8.291767977633494 6.35617671972982 4.875761208994424 -1.3355788204036676 -1.3141103661172466 0.7851339157071316
P 1.2258002138689277 9.210637519058828 6.7914834935617945 0.28506977745599293 -0.2984832226484214 -0.139120849395283
P 6.284721617686294 4.6219740555949205 12.052186304734386 0.08378093917239765 -0.02348291361328859 -0.27864767597973306
Ni 4.5002850278488244 6.2198010851867815 6.4876269340323995 -0.45142195176340316 0.9861203922589598 0.4941817113284327
Ni 7.88619950296399 5.603619829471376 2.703393012385452 -0.5847349362276575 -0.3466001327603063 0.18812401876686308
Ni 5.710132388771545 1.2308929264838524 11.167955527495904 -1.2901991067172875 -0.7200071013008115 1.5470703102518777
Ni 3.9329697822878793 5.499750674541206 11.7422009289891 0.728157755432404 0.4152976952370202 1.6948395793507778
Ni 3.8300803506556793 7.102023429664426 4.417636124992348 1.450030963407677 -1.3336785180571613 -2.3228410395765544
Ni 7.267162261408274 1.1998745171631855 3.971090261251574 -0.8115018641776991 -0.6756725410494944 0.2842159140961299
Ni 7.5686397570046715 7.752143779249164 12.388427340598035 -0.7127069680949726 -0.5813012279557602 -1.0013354094365015
Ni 6.97916982516791 2.5083504376391947 12.635671606048165 0.8512886571573338 0.9065452636377935 -0.5072735115153845
Ni 3.129236213719384 3.6837133870078604 6.320452865777106 0.6928521381525745 1.2280277753948659 -0.18989807994815036
Ni 6.76230899742929 7.530153268205131 5.92646268710164 -1.0341570839522125 -0.009806187457144403 1.421112994821746
Ni 4.195803663650157 4.168205043199766 4.244577247078393 -0.4069547225889637 0.16889370978234136 -0.09740855725816128
Ni 6.832007991674567 7.921210746857518 3.605561968649428 0.16695201267493828 -0.11750275690487506 0.2564382297622293
Ni 1.9904095492269394 3.4672684795372475 3.6825876294824558 1.48586365683557 -0.36198252875364756 0.29011711007191326
Ni 2.5867930001852315 7.837130154011838 7.920618291542426 2.044608339647053 -1.894460543013647 1.3478090439212722
Ni 2.981020715547092 1.0352255470683227 11.406906342801982 0.252908619342416 -1.748173514887228 0.7526493128158651
Ni 1.9419040033047523 2.463199981878927 7.838018374850847 0.06650543992140158 -0.7156087151227999 0.9088340596719703
Ni 4.9984928102123245 8.129272550259644 2.3051678411144176 -0.5427303096610976 0.7858134582726597 0.1122224823425422
Ni 1.9143238681996062 8.409020522520855 4.227965391574211 -0.8715852026228409 0.37315577176164766 -1.0252587530213182
Ni 1.7220393069638633 6.239691316670117 13.564515839767559 -0.21642080882902728 1.2856515965559214 0.7029352334201894
Ni 0.420994495276238 6.896605030632297 10.963458622924225 -2.383545556545463 1.990902879703797 -1.017926738136279
Ni 1.346278451501494 2.911589758807864 9.986997064121656 0.6743669348641934 0.5891523485690627 0.7298598257251753
Ni 3.3695179738830845 8.483100543589135 6.025714202789676 0.9876723101271119 1.4042463009733945 -0.17399143602022293
Ni 8.589853412377485 3.5694554680501476 11.10133157043209 -0.6598610279385346 0.16712736191053798 -0.1636661428348149
Ni 6.712232197161302 8.121961596215352 9.864978072962941 0.07723851006818956 -0.266005047515058 0.48913643559504144
Ni 4.506607015922524 1.667831032033675 3.5417921488914 -0.22719501662639582 -1.0659742284628093 -0.28728709682228587
P 5.46096842021775 5.21389329567661 2.6745253729840104 -0.8993199495339479 1.3021755623528735 0.3425578443701326
Ni 6.446163380381195 0.7787894436952483 6.494363918106844 0.33554104673266727 -1.3107807875233812 0.8688793736559036
P 2.3991297752606724 5.541767864282491 5.00603205827039 3.0832442853062254 -2.2218972154716248 0.4413285720831432
Ni 5.4133778988851775 4.39507568538841 7.365405401513208 -0.7378289599735809 0.8666929075275461 -1.2221733734966178
P 5.583969907476223 7.852020099606472 7.907563940730593 0.23234365070687082 -0.10710470150000265 0.5610100818068919
P 8.507288617841871 1.2385735874330401 2.0642963984374108 -1.7084330017644962 -0.5817244315361078 1.7363299852850806
P 0.15489979901278902 6.669216798776801 1.5234087267056025 -0.2522352474244753 -1.4658833570589012 -0.4845801836829267
Ni 0.7186751009593672 3.300761732245289 6.213233242021326 -0.0917989243808677 1.2314810240507887 -1.1952685786859736
Ni 4.576010244643885 6.461386062190234 0.5118758466374577 -0.7618260942191267 -0.024359402680970952 0.3125754390754294
Ni 8.841254107705893 1.3192066633905781 6.479118129616248 0.050207216982010305 -0.18825874457251449 -0.6189648039448049
Ni 0.8520801405215773 4.351755278807372 1.7457754145253663 0.8070587408046811 4.872180326822796 1.9037977612541728
Ni 1.7351546594150034 5.115310949486433 7.864424690532952 1.2933929310642371 0.15308631043643958 0.26265361454432185
Ni 5.41545750022521 2.415027172171145 5.516536292290688 -1.3807983543630993 1.8706385008933848 0.16545640196601827
Ni 1.7303114989608823 0.23694330681250042 9.174530094192285 -0.7495714452214897 1.2799956838217246 0.7778700350558668
Ni 6.730819211804883 7.150981866545108 1.1575726531051318 1.3295876358172392 -0.2378303848530549 -0.5412606670941066
Ni 7.728020403704784 1.3133837796384864 9.971196715273718 0.008895759827733067 2.425806779207519 0.2489138963607262
Ni 3.127701930064071 4.550167731991745 0.16893387312259256 -0.6622786362410917 -1.4978853638867944 0.7129807905816495
Ni 6.608954573278962 3.396802343464314 3.373820437988796 -0.6129095988896606 -0.19632326674820383 0.11721762156428846
Ni 6.961312981661496 5.974870260694031 8.212394677954386 -0.5306402112657829 1.001114551674947 -0.07529527029888969
Ni 1.0601345497856045 2.2611551583539637 1.5079873274351814 1.5589930298313923 -2.8343666415000737 1.3568811814258694
Ni 5.079929998688009 7.66859926141558 11.867520478541262 0.8466023074252581 0.2666874182940633 0.2688453451773305
Ni 1.9179285105223296 0.5448065649236924 13.622819542936716 0.12174250601783551 -0.6758502042779393 -0.49479466232208336
Ni 8.819016237376475 8.368047754785898 4.9077944637690285 0.5570837501692921 1.6961500706320853 0.4664554490577579
Ni 8.84542255305858 2.887059705668099 8.432839814135958 -0.4929918047853897 0.5099590287673476 -0.6088904504279384
Ni 7.972544550602151 8.942526071629178 7.879467140225857 -0.09126130670984282 -0.6594637925001159 0.879883438075891
Ni 4.199842711586132 1.0424995304221265 1.0351904249123578 -0.7840360546572627 0.3422701379263847 1.1471334137416438
Ni 0.48783010954310513 7.349126282223432 8.294858727358415 -2.1567480324678017 -0.14106023250984093 1.3131947962815125
Ni 2.506455689751609 7.5004011050337285 11.731190133094074 1.06308790805395 1.3306839542052116 0.2713987077268035
Ni 8.075286099472393 3.2602880688319393 1.574434749451909 0.46325288296006023 0.8814515538939595 -0.24108283035208158
Ni 3.744021825868811 1.1789028929830327 7.29644119974141 1.6853324111912908 0.042516533205971936 1.5859279065490235
Ni 4.3553137077669835 3.346383564309297 1.9529369816140727 -0.5561504397217454 0.9089916682957572 0.7067610349241827
Ni 6.397944357310301 1.774962850399542 1.3182361827652296 -0.4614819071025665 0.31212523891188826 1.6075367430680507
P 3.4727955977654235 1.8711421017079028 9.591179609068748 0.5826490002329062 -0.24852334579052685 -1.2064996715151028
Ni 6.177173879052421 0.05423507868079292 13.428374044841863 -1.7912042687254568 -0.8795790194615949 -0.736281670091119
P 3.953238963348732 8.543806417372847 13.472393197473153 0.18120672282173952 -1.0643670318766896 -1.5034564302166689
Ni 3.7768333136782175 3.9289769477150163 9.037171039282226 -1.1290356756996685 0.3710726639803738 -0.6563419590416825
P 2.4187242412200924 2.502971202172976 13.20362736882184 0.5043337121607702 1.1046719021433233 -0.7609840579338055
P 5.155257780560308 0.0020167511662006875 4.942033020231327 0.40779418777112353 -0.26553170742306526 -1.0305966202944639
P 2.4126240772893297 0.9307371330724531 3.054718089968805 0.21629791009791782 0.6840178276903961 -0.25542778621984397
Ni 6.146469720600914 5.2187919121664645 4.779282495093099 1.4978635095099238 1.5710332488253782 1.1290464743329458
