# total energy = -340865.8642917904 ev
CRYSTAL
PRIMVEC
9.26351740286190 0.00000000000000 0.00000000000000

0.00000000000000 9.26351740286190 0.00000000000000

0.00000000000000 0.00000000000000 13.55809408977716

PRIMCOORD
 96 1
Ni 9.08814979309183 0.5200844387892111 5.575237782467437 1.2880473504816075 0.37911044668318583 -0.5847557621632639
Ni 5.630467799807087 2.8502268370398753 5.986481449426172 0.4911375251854703 -0.7798441280631021 0.33107915430657175
Ni 7.0177351178186225 0.8065401886414424 10.234720358358306 0.4216922859094544 0.8261208996424546 1.5614659168519172
Ni 6.690353147908598 6.630751676688171 12.682620590328906 -0.13251928491836532 -0.39984022303136946 0.9254559844993675
Ni 6.70736096593171 2.6943774195993315 8.746204647411579 -0.6390379205455963 0.6453574350057208 -0.07739560447134412
Ni 1.3017187344366778 3.8261661900839568 1.1997098067195162 0.6103359246252134 0.5526663378278869 0.3889991665518075
Ni 1.6734544258579562 3.7167362585441834 3.718605636363935 0.7775476187194416 -0.11725464544981096 0.0074374301146517075
Ni 5.004939521033301 1.7350290262934824 0.34746805477904147 -0.03011893087256748 -0.8069579535607585 -0.4856397352956927
Ni 3.1618423002639875 1.7524907566712418 2.6318570140329993 0.5030931548854497 -1.1624967835715916 -0.2766869527089364
Ni 7.933628350805072 5.585178463034213 8.808205369649428 -1.2268610087802743 -0.21294750556844613 1.415392290287885
Ni 0.5496999040505888 0.9057737665330459 8.253002009886677 0.5721779254982532 2.5522518329073467 -1.1096693553579149
Ni 3.149299497647814 0.3774290492409976 12.910247446315356 -1.8745730600611008 0.8995683180993282 1.373880029976711
Ni 4.7372794480704465 1.241987573972066 11.276036059396022 1.0855259253424916 -0.6489235550904243 0.644301997158013
Ni 7.781160117230779 0.3952233398949171 2.746476368043659 1.357827347389223 0.36192570737378316 1.7226064650514012
Ni 8.468698381759854 4.932785983679259 6.625339003446938 -0.9154430803480558 -1.056294282170884 -1.2224199422897852
Ni 4.593982096763517 3.2047787036066477 10.052268897880197 1.3995198420320025 -0.8421162466294465 -0.6999676661514332
Ni 1.1580230518797523 3.347307182965909 12.289761300085132 -1.24102110233074 1.196916398702042 0.48087496691719767
Ni -0.005561815872046038 6.658514438461193 5.249476928109724 1.5022441550761225 -1.4511241964718558 -2.017360302564377
Ni 1.5153910277488263 6.663924332647194 12.096911541278622 0.6021382193057695 0.6639611661498372 -1.768119876102168
Ni 7.324783666943936 8.148931023186973 4.84145974427596 2.8419328838831057 -1.5658406488808452 2.3279480217858164
Ni 4.371314928015398 8.641953948473507 7.552536506767593 -0.6272915786429455 0.9183877647986763 0.21530443583639694
Ni 8.4316165214404 5.16065924922966 1.385366444232483 -0.7604726655150258 -0.8359648823160699 -0.3902304678557473
Ni 6.429251645294524 3.208984340525217 2.9694936977510773 0.7549789893903062 0.41892577890791083 0.20569622332267154
Ni 3.249641918577199 3.8003117129039428 6.462045423390178 -0.6966859100763678 -1.2074260399841141 0.7530210943329869
P 4.579002989060155 5.85123594747964 13.182236360978758 0.0454380777281411 0.15741733371162567 -1.6502265686270934
P 7.277576782060614 6.877503990784924 10.627119251785226 0.18935120630574487 -0.1675446519536147 -0.49826205204539353
P 7.452805477989367 7.053918416946224 1.497966351440834 0.03957544829977701 1.242434437738499 -0.8865819331419893
P 1.8147879114672272 5.37423890736739 6.106240202913532 -0.4019996925765335 -0.6085641774367713 -1.7240349699678117
P 8.450310299637916 8.904231917802687 8.962659701363238 -2.005612160889514 0.7069332988359889 -1.1167378321689219
P 2.356685154776603 6.462405774218663 9.889571888346689 1.0790701424148188 1.0901371988622581 -0.1668810502276868
P 4.597113165658839 8.922694108064158 9.827164497693145 0.46542983600672105 1.933221208721612 -0.09771708963751558
P 7.971895941357074 2.682436745616874 7.033166285173144 0.0729941329695388 -0.23477385741491827 -0.8375283701484479
Ni 4.213464590807429 3.5683810267140412 4.121389859194835 -0.1134041613554692 -0.26219364418876784 0.4877866064353664
Ni 8.494886345567773 1.6736396962067916 12.440350892322233 1.3898126420465677 -0.7614298872219726 -2.808526540508518
Ni 2.8535339127665917 8.080482892809645 3.00588357331763 -0.4498785185356833 -2.394539079442489 3.837585641112532
Ni 6.405092391806357 8.393404511993047 8.822292400623146 -0.01978798126020463 -2.0332787735668467 -0.45342149869193527
Ni 2.9082071927079904 0.9281581300793685 8.889798431276645 0.2496299485911443 0.2467613687940976 -0.17345484679046255
Ni 4.775584092692216 8.139472971878915 12.535502038077244 0.22320466452008011 -0.750581888763875 -1.2244099761366203
Ni 2.478843159281385 3.3147273921231606 9.287877713598863 -0.5835748544812853 1.2825906982424105 -1.8285269164353153
Ni 4.539781256211649 6.846526788459604 9.927520813898694 -0.8999241587768502 0.35648036798849575 0.2934677717117011
Ni 8.819748638733632 8.068634854001605 6.792035999811809 0.1229648084607108 0.08985645594251622 4.018420582417151
Ni 1.05483673109574 8.172738263012354 1.6966873276019458 -1.4859932404348988 0.2822590474800752 -0.3963391518566465
Ni 6.147825985413181 8.65189370268854 0.7906588143392509 -1.4538112563857155 -0.47881577039532375 1.2759284557308863
Ni 0.6906628489621888 2.901787575120835 6.025176088132241 0.017776350146814546 0.18448333669048228 0.6305280833023721
Ni 7.5600677464477615 2.350524915677818 0.7409637486710661 -1.2300090674909527 -0.23891127662205955 2.8210922929886704
Ni 0.961099198102346 5.887808314339797 7.857987099134199 0.05435800592559026 1.2521187549057984 1.0959607475225706
Ni 5.307467473647024 3.754373929910144 12.527895763905795 -2.0046140586423022 -0.3270798033391915 -2.431021490639239
Ni 4.253001283248955 3.5682328104349725 1.7206715006104643 -2.796604335149635 0.38611695990800593 0.7173097569743065
Ni 6.956401368836583 6.668537564333201 7.034210283588832 -1.430612192561433 0.5289342843182696 -0.7621276846199455
Ni 8.380648648475715 9.170817422742294 0.7199392694851973 0.17281875586836043 -1.1142001533487327 -2.008461714523167
Ni 6.017997788466603 4.311111328161256 0.9201553773614128 3.453099531939731 2.1496062792166977 0.32079654143364106
Ni 8.059176802693546 3.8156706248224177 10.596192998805835 0.268158346412635 -0.8690626933113031 0.012596862828404113
Ni 2.6305332573905686 8.689837070130078 10.636405928020613 2.1172785136182695 -2.1463479201804003 1.9818284282063547
Ni 8.761786810100402 4.270898398946478 4.286296217638209 -1.1540175424559866 0.9708539530181924 -1.1763180057254
Ni 4.637103770455013 6.290715741952672 1.6676184098696334 -0.08103448677551205 0.5899820435592097 1.5792420098884157
Ni 3.7236283155208696 0.03749593954910185 4.985527820234046 1.1534642410556781 0.8616846556796773 -0.4033960587034278
P 6.74790738177439 0.38106034807817624 12.55996050317878 -0.8014449941623294 0.28659444163063547 -0.7501653700517468
P 8.82348183626267 2.641529052593964 2.50637618582185 0.2758757696615507 0.620858421423092 0.8142251766461333
P 7.438030167669724 3.591530556801055 12.635900040111277 0.4412884628738271 1.9479520871738842 -0.2101825412287993
P 0.7441791155751087 8.333404709522625 3.99618045204473 -0.3500587807328681 -0.03575298922989327 -0.12329853765104573
P 6.459441448637293 0.7143793063166396 4.579002062708411 -2.5711129314779075 0.17448431649624144 0.11496662074658263
P 5.149283649811151 7.571035751098833 5.9534403354148235 0.6759579335003971 -0.04326703821875129 -0.7174300846022548
P 0.9321043885095677 9.38088620776959 12.856313395065813 1.5081947162326026 -0.24522744864807447 0.15111376009110103
P 6.530483363898321 4.623301129466758 4.715111850832261 0.5103482937859662 -1.6762160507123196 0.9228887379928236
Ni 0.033951717775875974 7.271333171304852 9.716001362040014 0.7210034037758098 -1.6178671784597813 1.0904529303304638
Ni 8.951327640476707 5.376684475972021 12.38663453373257 -1.5555356674104113 -0.7662635611651899 1.0526733975888454
Ni 0.1644070548532623 3.780626738340155 8.402791234216805 -0.5285059385315994 -1.4242114312414118 -0.6884298407151628
Ni 2.834358431662103 7.2933896063337365 6.006926958771929 -0.7275993118257728 0.8543030185036256 -1.7711139257334851
Ni 2.781297003755574 7.245358268398095 0.24297743073922645 1.5531167735562736 0.7184387283724272 1.2627093859374512
Ni 8.7850660294316 8.094507858216504 12.0696184398399 -2.229111730942193 -1.4366272884072613 0.07829394791589742
Ni 2.482706046054608 2.026060953761954 11.138855408655902 0.7803910017055077 -1.574802486059823 0.2301602699023068
Ni 0.7965541168392012 1.5553445784752329 0.8721055123908884 0.8463701368097939 0.30699408833291 0.48003935838977974
Ni 3.5809608833999818 6.021999628001454 7.638426914136054 -2.8575441080578012 0.5007920175560988 1.3759955336578173
Ni 4.657715096762978 6.19142936201165 4.365286230864286 -1.7197738806986123 -0.3534924890047654 -1.4794916918709553
Ni 0.6277329959249297 0.09644711184511548 10.529608688137793 -1.19349760282848 3.382645391783226 0.28915834570306975
Ni 5.894088979165324 5.101409791672022 10.533730953399385 1.6012470534045973 -0.31994344940472635 0.4393755621218304
Ni 6.6723170794494475 5.867521211142293 3.077809228142604 0.6541053564016799 0.27503347626591346 -0.6285753304513756
Ni 5.59935164472014 1.0129285781891175 2.602150766300692 -1.7902447330256652 0.29575399664271645 -0.012578093775326725
Ni 5.117352305189328 5.085309798358204 6.20007592919181 1.2577628405654533 0.26684785513132747 2.0072766930761303
Ni 3.4893354323833137 4.845319851993952 11.137106456562893 -1.3283473356522348 0.9070952226039927 1.3414342507431802
Ni 5.628948582946634 8.038259780310002 3.6564418762191115 -2.4652796404911608 1.087495390364037 -2.7721153488693355
Ni 0.9459811376373575 5.837840901258823 2.8124233487117065 1.1627333250624297 0.8124678276353943 1.159420715749429
Ni 2.114360802017022 0.2801519262330984 6.623277870816141 -0.6454101426205272 1.0241158976661267 -0.8535990504580654
Ni 6.4707058858465 0.8858886999925162 6.938422734185572 0.36066663815570144 -0.6015399236001382 -0.011099452347271206
Ni 7.851757383654601 2.1462458290516366 4.734893165977442 0.510891824994262 2.2187823239917273 0.11134393639233081
Ni 1.9863667815239174 8.013739249641604 8.394900570059896 0.04941685987023102 -0.2182259803585661 -0.5052104583387685
Ni 0.855370968132309 5.193757797049148 10.263558614506318 -0.62151405272922 -2.7247114056640753 0.6504942420116538
Ni 1.10494309693834 1.3275361575469247 3.548071691074678 -1.1871960860904844 -0.8168518156357027 0.05654344361268327
P 5.20676377553741 5.332886565507274 8.507677410451384 3.3181055602286276 -1.7323974829998938 0.10093585368512939
P 3.82212729647934 8.980026017511348 1.6239613048700021 2.5184816784354367 2.4437497368391847 -3.3018546455874036
P 4.419809441823127 2.1385478460575156 8.097246153972295 1.2747660599916693 1.182872004793834 -1.2410792092621852
P 1.0015437152531672 6.095394476692694 0.6827166037006279 -0.034979858509294595 -0.5726178412491493 -0.9389254797407119
P 3.213134396339135 5.208496053299022 3.0663937955990956 -0.6747546572209154 -0.19231980201576557 -0.9497307978863323
P 0.5309616609693518 2.5493292634959057 10.004002266601535 0.6771712370822079 -1.306413511693621 1.9344008308520104
P 2.5074952187288173 2.1955740594291266 5.162230341787786 1.4809842172560816 -1.6625303256951112 -1.015017020688652
P 3.156117446484966 2.971226901864435 13.191876903580418 0.035308959713939186 -0.23870635970010504 0.15620557279171163
