# total energy = -340888.3928426197 ev
CRYSTAL
PRIMVEC
9.13582056472301 0.00000000000000 0.00000000000000
0.00000000000000 9.13582056472301 0.00000000000000
0.00000000000000 0.00000000000000 13.37119685936632
PRIMCOORD
 96 1
Ni 6.38308824522776 2.068742631208937 11.468676182610988 0.631759384606312 -0.165417835418599 1.0935251414978844
Ni 4.819328099412825 0.2790792214802152 6.095246858180085 -0.2196971655874539 1.0545544166616418 0.06886237018935237
Ni 2.6148819885468555 1.6448131464556512 4.8552017262856735 0.7201942776109532 -0.7563254761158715 0.5164837172597428
Ni 3.6182234893771814 4.518814415567501 5.071628403458632 -0.2545451265045745 -0.5571081756493244 -1.374410962779517
Ni 5.421945099893317 4.204322926156318 3.185406678313786 -0.030957624723778943 -0.013106455474970977 -1.792641515392616
Ni 7.412804860220592 6.407517429595804 3.04615941383388 0.05933463320457523 -1.0411263161811941 -1.100662523873614
Ni 5.064542660977012 4.738951149498824 11.46322118411205 -0.2445779879895336 -0.3694158451032412 -0.9990638397935053
Ni 5.6781317820356705 7.873990221508238 12.744916522264468 -0.5649176443914142 0.2428895445435172 -0.1567874134371106
Ni 1.9802622083949901 6.514662333959455 0.2867350391692278 -0.6888738702311168 -0.02186748949705266 -0.3165688765055387
Ni 2.563940652706838 1.703081410441955 0.3376297823240256 0.09495443929071389 -0.6087667803658806 0.014262423456285114
Ni 0.6667431526555718 8.549867367630963 4.4799661654971095 1.1462592386668065 2.339527241982984 -0.7897035373556851
Ni 8.828098784956595 2.264486724054742 1.1937639781584106 0.4288180983209583 1.5903340060365192 0.6020333182967891
Ni 6.89733445274188 0.8299079955481695 4.8498664070370054 -0.4842641951044047 -0.6236958908718871 0.04195654693744388
Ni 0.867945898328567 7.3436741055036965 2.2733037045459907 -0.6850059026352784 0.4289137433585581 0.3908848136102946
Ni 8.046319206076072 3.722371844573773 3.4747865375557696 -1.14743783235594 1.2130246171178143 1.2874359421498536
Ni 7.613692420081808 4.2106357782125325 12.623894306361903 0.6137153826204076 -1.8151548660037833 0.34939363634504345
Ni 8.23186772309737 9.03947426690252 7.0493883105827155 -0.8633229626140485 -1.0888853287330278 0.17147175492216277
Ni 7.0914249620534235 0.7116265258349873 0.5461229128607821 -1.8174138372412894 -0.2528083463191259 -0.4884255255709459
Ni 1.7334397423996983 6.657711013404037 9.030987089536062 0.3855608302942198 0.124060869738367 0.04760706035500188
Ni -0.17664291906992505 4.931415482737999 1.599689501193633 0.7105228159594602 -0.00717440626125216 -1.314301141971814
Ni 6.593376564518563 2.025256125004044 7.04684855244722 -0.018273858608523364 0.22300309003223528 0.5854926403292884
Ni 3.4475480883436083 4.542594956670722 0.49838368215202844 -0.2399705711245093 -1.0635928727148263 -0.27057466916361145
Ni 5.910528787254171 5.71716914359313 4.863625866489776 0.5545329587229805 0.6408477200608254 0.7581496738088039
Ni 5.305289806252503 2.9380799150196477 9.59086580752136 0.4031582316610089 -0.15420833985602472 -1.0645482946495601
P 0.10002901367394784 5.686555008657711 12.716302218465236 1.4876042936757605 -0.42662828975849104 -0.8253601102170302
P 3.9142971643957036 6.309270814527018 12.598234526954828 0.551396727086844 -0.48123106470503574 -0.005961359789757475
P 2.3167984329894518 8.56840394769183 1.1647221179536347 -0.3640805489332568 0.6652336051043576 1.144672610905977
P 6.542800661503797 7.902658426649194 5.899880074726352 -1.077604613612886 0.9816944952771223 -0.3366144823025042
P 4.687653516654186 1.2103500605144994 12.830372074867398 0.3595464085083292 -0.32887211935292393 -2.3345578137928507
P 3.9741367895305877 6.309188592141336 8.189163243138514 0.1506159945190761 0.5205506882402647 -0.01687183605467417
P 4.671373484289246 0.8866112934603352 3.6219362868817333 0.5429413972306392 1.6070232937667421 1.484291941473076
P 0.18921106751237696 5.717954824167419 3.689888520737194 1.0223755179362521 -0.7063488870874287 0.6472878192592142
Ni 1.6539489670869312 1.0313519268858304 2.620139653320157 -0.8065422061795787 -0.4463298819524764 -0.4520950665710278
Ni 2.073018195264376 6.498501067262721 4.730488638848069 -0.5143245048248949 -0.37983292667150714 -0.5642992940811249
Ni 5.932600929899344 5.9085645858184455 9.325527773852656 -0.2629230661556246 -0.8696386204194314 0.38788356489012554
Ni 8.82548594025605 2.3189910299409586 10.34105645940511 -0.7209226711365455 1.650319899671848 -1.4054572905623601
Ni 2.459582173635727 5.328202444395752 6.802890166219833 -0.7697759451938228 1.1247648162384567 2.132811833367178
Ni 0.4272403061500617 0.030160084650044664 9.475899727115271 1.1652560914842833 -0.061341636332275 -0.5378254161603124
Ni 1.512115351786309 1.345551070036812 11.495124383338545 0.436855366803138 -1.3135624640335763 0.21007712599918657
Ni 4.214527637801458 7.044046596259606 1.3058495343194585 -0.011578963086851028 0.21307168985113628 0.99634592664171
Ni 5.804772527626474 8.08020396479749 8.267250756402317 -0.35009991838344867 0.8281577275668254 -0.4980319383124584
Ni 5.152063822624674 2.8830274598955548 5.153941233764402 0.7476924830312219 -1.9825071994409338 -0.36236228069056947
Ni 1.0393183624763067 7.510841351414857 6.720577335914065 0.002694259002711489 -0.3957477981295507 1.6502929030886544
Ni 5.088999252806949 4.611762254670144 7.08734947246981 0.029952066277400033 -0.13920492446865704 0.45155256380399655
Ni 8.087293361607363 7.210464704879002 9.301165280975221 0.19647007673871325 0.09729979959443888 0.005398802418068121
Ni 4.4621266485504085 0.3275429227650293 10.55462088397429 0.580917105143464 0.6793134802361914 0.09152021679818433
Ni 8.458682741910158 7.100113127473771 5.255548917243435 -1.7261916112994982 -2.0672013944562204 0.03948674524071264
Ni 6.966830640284027 6.187353288202586 7.073791001070927 0.9627544638395097 -0.6129155124269315 0.371738836809463
Ni 2.312997931606839 5.283108033759755 2.5750251438787704 -0.24892392366305516 -0.5479195671715209 -0.154774753882456
Ni 2.3674382867486363 5.515861335982875 11.2732290039357 -0.4874893869099217 -1.43067415614762 0.5545532704379547
Ni 1.1054708396674051 3.218284669601637 3.761839503282966 0.7485604874584721 0.217589889436464 0.05183189706962686
Ni 3.4918933616878416 2.696126841420828 2.5790092752560714 0.08767873156490708 0.2251021386531091 0.43725363068282114
Ni 1.375361252756679 3.586467376862852 8.182316859157433 -1.707544428511956 -0.021368952594079324 -0.1932078610476737
Ni 3.635563276935351 2.659044545478463 7.263795971396162 0.1263938887469178 -0.1897075612038991 -0.623311510949275
Ni 4.144867005487948 7.1626660913361455 6.114514303891454 0.07477899278410347 -0.9485064385609278 -0.19089592508504544
Ni 0.7981034631844945 7.523585821195493 11.605343491344621 0.6579231874858734 -0.3143227607838393 -0.1072743943086475
P -0.06877263054814958 5.893773692216404 7.884165698527356 0.7239707139342499 -0.49552279873735955 0.24920006014257726
P 8.639571990409502 1.838885384125932 8.07610928999055 -0.025053086313885885 -0.22533353793762484 0.48011649148461827
P 1.7737652546661682 3.331669339456453 10.290245765800117 0.414495253940383 1.220626340724472 1.7873360440193025
P 4.082396264011256 6.058784884458582 3.6736030068798744 0.1978088501547948 1.0663426675458214 -0.8806539976933285
P 7.06998319103181 4.297316444362117 10.478766165272772 -0.7197636178314379 -1.0088671990371723 -0.34622757991223596
P 6.177879442207949 7.797870564008412 10.610807094438723 0.4880668566799466 0.6069811492203675 -1.4788221766077563
P 2.5030686798406196 8.654947576531946 5.652566101581097 1.1325652861194817 0.42997612318480144 0.679220920522385
P 7.049208334916279 3.7773968922359726 1.3694512903903038 0.07048807871823344 0.03390436605692871 1.4331164470405255
Ni 5.240370664846626 2.7840865224587925 0.814065568991467 -0.30537377912066765 1.1922346769556564 -0.5044167587928796
Ni 1.5219911738887228 0.6952587895919862 7.32998316470566 -0.28841478266882586 0.8414834981414541 -0.9168672143890919
Ni 7.411288313995799 0.4080112308853436 9.47799913869634 -2.9320621338710344 1.131816066658283 -0.4519207457766926
Ni 2.551899641114811 1.6827998886405133 9.198286804846378 1.1013492655279935 -0.9768927030131047 0.9074523488330952
Ni 6.716335574394961 2.0204050042488344 2.6940557508837175 -0.8876198874882003 -1.3166416171795323 -0.18163661127030653
Ni 3.9840491549155264 7.047015737964771 10.441100090392066 0.257767232986298 0.47209207851824503 -0.17138279475278226
Ni 8.067212827859809 7.124916880487697 0.3933528066824548 0.5797961041651435 0.45478958268405545 0.5815025453332888
Ni 7.646691004201991 4.0689574718626424 8.381494193396472 0.47231216494885114 -0.480567720089424 -0.3892377649251748
Ni 3.1960206747232074 8.56390912394124 12.594530865270906 0.04864295781868397 0.03422421129019267 -0.8372486341245
Ni 9.28199376138048 5.261721077661928 10.355269969143254 -0.3119684016190498 -1.3238885285499327 -0.5180253507152497
Ni 8.993320101073294 1.828799438148999 5.830015713612764 0.75411869827254 1.3187254962917545 -0.43524996998923104
Ni 3.6525741749507943 2.648383042801759 11.595073915373 0.05023267090330703 0.9210694253958975 -0.5750331355588613
Ni 0.7923570320074194 3.497329174963453 12.42991799480825 0.9179787022857159 0.3563068185251089 0.2418791010011318
Ni 3.356354326802171 8.55077181387346 8.314651961747712 -0.1563971199772274 -0.5039112799113709 -0.16824373490316832
Ni 5.707722705060386 7.894335694054098 3.626442073617081 -1.1397692600670886 0.7073976400669172 0.4526553099498721
Ni 3.2476837403930956 8.27641398449549 3.5149265926634246 -0.13921880842572798 0.3373151079139545 -0.5734742757121737
Ni 3.5601562134447655 4.4577140471855 9.219533982888544 -0.7311798300881794 0.12714516509064552 0.27764648840872824
Ni 7.390961113091201 6.228784234765441 11.548341452097814 -0.803449683297184 0.5796991735759629 -0.3542620201809383
Ni 0.1495396800031067 0.1695681395730618 0.28896874731357575 2.7794249951568712 -1.8636152754980162 0.605894343914092
Ni 4.7539064878722295 0.6013544300692485 1.4445038840403954 -0.6104675651070712 -2.3189226783587547 1.1930561444156873
Ni 5.773436662861183 5.153434195719367 0.23935210546509408 -0.34120930076203815 1.6283487947173956 1.5793204285348348
Ni 7.9999275089104325 8.67668169381376 11.632126063107282 -1.2606108515372096 0.7818002233482084 0.27892149846640996
Ni 9.12653863751862 4.4150040857342665 6.107494339318379 -0.9669638739351669 1.119753479066794 -0.33642113534477547
Ni 7.897112983526006 8.72534821031659 2.799500479027888 0.3466165878205385 0.11560502566152993 -0.8541127568696902
P 8.753349500551462 1.297615419184486 3.703420498256246 0.29657906364717307 1.3916257839959065 -0.5009123451840469
P 1.6525877298128704 3.39702700025263 1.3229691486004143 0.47548876290461983 0.4335833809200855 0.8867379991038792
P 4.838083939168843 1.1104133186289276 8.437225439993469 0.15056894333122456 0.16841754147687124 -0.7418501653178321
P 8.52793226229526 1.6000658970036417 12.317159128666678 -0.808752069346704 0.46419647782025214 0.6831341395338623
P 6.369448465025259 7.772007055801258 1.450012783881057 -0.6027020622290394 0.41615592947225755 0.8702202039545142
P 1.8587283865370723 3.4266453307392397 5.987167359365853 0.969361684743382 -1.613844944674266 -0.7823625236095816
P 6.928350563785076 4.012315383948707 5.879021169061013 -0.1757043049462716 -0.3591368317747363 0.3291919645861879
P 2.2424785321539886 8.65168608856658 10.341550707301261 1.6050903384100872 -0.3292310453542394 0.17379011864269422
