# total energy = -381163.0694841599 ev
CRYSTAL
PRIMVEC
9.32229272682241 0.00000000000000 0.00000000000000
0.00000000000000 9.32229272682241 0.00000000000000
0.00000000000000 0.00000000000000 13.64411771749865
PRIMCOORD
 96 1
Ni 0.7122278177067662 8.573637948997339 8.070072871577537 -0.17413207536314526 2.379217104373438 -0.1767072922894892
Ni 5.55163967099936 1.8817047663838689 3.3502856094799616 -0.35804668403435114 0.1250448309181911 0.3640412110548892
Ni 6.083084928973159 3.7479718161805113 5.02233108249524 0.503943675811203 -0.3704401726026975 0.6647330113188551
Ni 5.278794810446854 5.101093268426497 1.3130794087332354 0.6301347045186954 -1.2281956684312976 -0.0322442047456864
Ni 0.42424541838956437 2.0296775172226655 11.402361795144673 -1.5430100241395748 -0.18410332764324422 -0.7098368456360291
Ni 0.7899179399861316 5.830488088002452 12.841651994812585 0.23174406944965895 -0.6359932201820014 1.7997161628512102
Ni 4.555086589372232 3.7761997182494254 11.366600548405385 1.1129243719601025 1.3536194799554622 0.07031298659294986
Ni 0.9205633455225867 9.236331764840441 10.468886142107008 2.250914428639581 0.3490665920229279 0.5366784470400628
Ni 7.783471103798117 1.6100997707505074 2.1009622922392994 -0.6476518874668523 1.5987831652451368 0.005919965028860772
Ni 6.143437451428295 8.57875588764854 12.44527743468439 0.4836157628871284 -0.43912025157791473 -0.8576207700229488
Ni 4.613294984523587 7.114083881850167 0.9683410274556754 0.9790704273907139 0.5916746007702842 0.14475645041450552
Ni 1.2919485680398375 4.14648118131986 7.682579659633311 1.1417335828823112 -2.748022826696506 -1.8524345762908483
Ni 2.234786599560926 3.956996261421329 11.973682227593233 -2.3942464879027345 -0.6484653845070831 1.5397678630531935
Ni 7.819436508745896 9.004038877207282 7.114151934586331 -0.12300440344939462 -0.737607330881078 0.02176953046660767
Ni 8.363280415911127 2.228773720817713 4.5428501480724774 -1.2633765872078049 -0.45262085716751077 0.37034144224130416
Ni 8.512194718305064 3.5136932802181975 9.010206506008073 1.3501369207235006 0.22092820978107755 0.02960908111568449
Ni 2.76779800269575 2.0357836188921303 11.00211195797221 1.2737558735595997 -1.7460299861816637 -2.116005560443117
Ni 1.2403030668965795 2.7903672731412055 5.276275926979542 1.3677906292495217 0.847445886372476 -0.17826152415048654
Ni 5.639464989820774 0.77363282699928 9.483248532914654 -0.43785732570509106 -0.10745051487519561 0.46100753856930926
Ni 8.941728673300867 6.270985059125418 11.104769976589477 -2.1002678379928863 1.1092201836356381 -1.13360941111328
Ni 3.721804140781752 3.3120987021996133 9.168478525739122 -0.06073665575842443 0.9400896752521423 0.38468485544716974
Ni 3.0953833655430576 7.883545915128962 9.270304995854229 1.6545642767704989 1.4324986109508684 -0.10610685636310759
Ni 7.1921674048783135 1.8683459210520479 7.701913162308583 -2.995810579872589 -0.05303414490784415 -0.5483021473219202
Ni 5.896350085399043 2.783235719282976 0.9895436498022866 0.2893617199631275 -0.4988117539012764 0.6132908934884793
P 3.5246656186379832 3.0037172621600874 4.733826634791032 -0.20184599633864592 -1.129860999814441 0.04498093558606447
Ni 2.6451539209194497 5.8275702104107845 8.326391171764199 -0.6062049331759753 -1.0294627638003369 -1.1584766066686047
P 0.7527574171238112 4.804625718361896 1.2766823816369135 -1.5587688296357283 1.410495624317216 1.1751095872395956
Ni 4.458349158801187 4.377440981107625 3.452289203154946 -0.2850132131864446 -0.3581600696837638 -1.1847388827992433
P 7.78814157240331 8.44585728398459 0.5324259631579648 0.818957549124796 1.003436514939904 -0.6378958365213531
P 7.1480356715909155 3.852875575091176 6.981995385415342 0.07821835748295562 0.9220772978351217 -0.16991392351673962
P 2.20098396650218 7.309749481759164 11.566787460237572 -0.17360834164919134 0.8910687652687493 -0.21849748885239786
Ni 1.8433248876461805 1.3538113019002456 12.949167860116813 0.6627913142114521 0.25514367932052184 -2.237794346317856
Ni 4.854844908733507 9.488415879716767 7.22858494101841 0.04498067847574834 0.21329614715711653 1.838881520196762
Ni 4.229682642999206 0.4840497900383422 5.187521175583403 -0.9817945111900962 0.6485245198797929 -2.1848311638572633
Ni 7.774148811172981 6.462949708862235 5.859902717922547 -1.093896408794374 1.4194181236178263 0.4217406226488866
Ni 9.28799591056895 5.689581634973509 8.144678247227244 -1.4204383373522247 2.3027992904343306 -0.9691616529174341
Ni 2.078535652871008 0.8486754181731064 6.493699291086249 1.2417847199696421 -0.5919579363386579 1.0747697152672522
Ni 8.787267606794975 5.91723202087935 3.2802779885529714 0.8771102462061281 0.3059805594667311 0.019768955096811116
Ni 4.9226645875813775 4.5257866236514275 7.01014311576768 1.5718925115018798 2.092544758317015 1.2421742420985766
Ni 8.793494898268568 4.572948102041995 5.3648666060254815 0.6342014183889013 -1.7126578384791216 0.24039763135959888
Ni 6.772720170502907 4.998725173109869 10.82229611998447 -0.3631061008351295 1.31900009010938 0.3859444388858837
Ni 3.4066081048332504 3.037920753801714 6.93183958663358 -1.6222102859198255 -2.299687741388543 -1.6831341179883914
Ni 5.8948678408716475 7.436271637267522 10.077463583821288 0.011471748085025404 -0.269787911596258 0.1019306134982309
Ni 2.391801974246106 8.236189600552636 4.789453687114485 0.20052496353437724 1.2126116979501116 -1.1543664411549732
Ni 2.306018237509597 1.3452161480998697 3.6631044608090533 0.3323099413898793 0.030071365464083698 0.1359085131055724
Ni 8.568221696982135 1.1116833955475667 9.230886613718098 -1.0225783779756774 -1.6054423224328673 1.8470625133456575
Ni 7.610990045647835 6.5356356244604275 13.093590681923956 0.2750944114108359 0.03272834347095654 -0.03069177265690198
Ni 6.378079556802989 5.936333398468256 3.539351958439624 -1.2252743810194444 -1.5090562929019495 2.495172314285535
Ni 3.7608645468810753 9.067654202081217 11.163452876435453 0.14559411582445247 -0.06936682062959666 1.0026281601059959
Ni 3.1123406158281814 7.472479421823553 6.906447525981233 0.21770147531366374 0.8098435026386699 -1.1796280439352393
Ni 7.090955273847203 5.4434358204993964 8.656224139363427 -1.5134130272087485 0.6331665493664838 -1.261321504450989
Ni 1.3278300723539893 1.8819098568216217 8.74671190495858 1.0445165728096657 -0.22785707569042696 0.5936044708031455
Ni 1.8022881555103283 4.791416029712077 3.728991628395732 0.3330437342321103 0.15519641480090693 0.5987204518734721
Ni 3.724255903742163 6.398476733066788 4.403270257284092 0.44143501575402044 0.026842574114140868 0.2216416909083344
Ni 0.9895240729877739 7.110364287092739 9.611448701095535 1.0061156044339639 -1.3491293053945925 1.2933358525740564
Ni 6.685230454215997 4.075892781562324 12.80247972120176 -0.4864385770479042 -0.5858402534766943 -0.03551696195968721
P 3.782716000794396 2.6846804416500296 13.058921075651073 -2.4165500364959414 0.6029121213573165 1.0430183909975843
Ni 7.0805795621554255 7.026090761761501 1.8977325840942667 0.36437802556901766 0.9077125444730174 -1.7303015197028135
P 5.668252229447196 6.8963151261269715 5.450920689248119 -0.5615078473789168 0.4302180639922784 -0.2817101169551406
Ni 2.7466830098998147 6.050251814347427 1.7331717457583011 -0.2176235708878768 -0.812393008533401 2.071150608911956
P 1.5597034568190178 5.574842857343325 5.903673678485352 0.3203489123732612 -0.06176638257451943 -0.05130996312788583
P 0.4456205031497406 7.924302978486059 3.891357066818478 -0.11632699142921901 -1.5562676604804295 0.07250922291332028
P 8.118206665088906 7.4603511191182506 9.287360130211916 -0.5615307301970522 0.35959783057155487 -0.7017939207268946
Ni 0.4316361319827729 2.986331186414207 2.926540798204367 0.4632680524687119 0.09616491465904728 -1.4161813618480836
Ni 6.0849214206203115 0.1133497560290387 1.8078050882858843 0.8589256048773014 0.37029567660503326 -1.216035121809364
Ni 3.0966511973400763 5.73903639734986 13.21460056580307 1.3117277248176828 0.6386699956832163 -1.331928368135274
Ni 5.3901682404393645 6.243577518807515 12.365049784352465 -0.5413005191931065 -0.4543242130118627 0.06478562901681745
Ni 0.2552350497836212 0.4175501478261911 5.191477556573511 -0.07786791612207235 -0.1502717238057799 -0.3491612086192632
Ni 3.3454631875049783 8.677348454451987 2.4721909002404483 0.17282698339847657 0.4053889207637405 0.8152127373703832
Ni 7.7022366458626745 1.16981721235792 13.209279401172642 -0.4086714481697542 -0.8951110536589231 0.4997854306684554
Ni 2.1468400909353855 3.377466618087073 0.9524688920321174 0.736237704227061 0.23857009123255685 -0.5858703353836814
Ni 5.48146145211733 1.8603473939796802 12.40000558500894 1.6186788757277997 -1.519290569035448 -0.7137868314227127
Ni 8.829665393654098 4.128349322163969 11.511023370212529 0.32722481355748806 -0.8884922627908246 0.3578777625566546
Ni 7.483078868538334 3.8523069152410425 3.132157013261435 -0.9452797040935139 -0.3350484233669649 -0.33591282824978924
Ni 3.697799237272025 1.816989410980169 1.4126573418671593 2.726625849077969 -0.24450548288038534 1.1048801614993873
Ni 2.9757783511625524 5.517948905452116 10.620485264776983 0.38178927906692955 1.0070304029387496 -0.3249766409532597
Ni 4.5897655179377415 -0.18967323020955892 0.17645794818416496 -2.641541360602799 2.0737800761150025 -0.7068420246737633
Ni 6.299856199385467 3.209068724106601 9.502909248061068 -1.1458576323530136 -0.8094958894912639 -0.028704052802911856
Ni 9.22082879220484 0.028874869177098816 2.5113911407291485 1.0565513924870127 0.20693626637735973 -1.1593916622837064
Ni 7.660528708657813 8.687957223459392 4.105583351344122 -0.2008437803263767 -0.08342098472981763 0.8867886498361567
Ni 7.7965875695216855 4.581878858376876 0.9762090424312908 1.1765753731518445 0.8476803709807854 0.8920946354301023
Ni 5.5648680042344285 7.217598619159687 7.658334240973856 -0.16611511859593972 -0.290558568484706 -0.6731520886204858
Ni 5.527438999344504 8.237420143179156 3.4856350438750607 -1.813366149534477 -1.1393506844724315 2.2055306011881437
Ni -0.07601117737757816 2.0528434143961305 7.002747741028159 -0.09393756799042531 -0.16499488894856745 -1.051149247634835
Ni 0.6602709519898287 8.327240432622348 12.96716454602964 0.43757784679145934 0.6484124197819607 -0.09703497596882643
Ni 0.6762251235884879 7.123788388472935 1.3942103892205386 -0.9604039613294622 0.14507655275808562 0.68104229000184
Ni 6.429715735653623 1.1923398713402504 5.5644391787736724 0.3479964988872007 -0.3443074800713877 -0.10911761816497338
Ni 1.7283996641634936 0.887850488471719 1.2508680211286471 -2.0516891577532346 -1.7328705659815706 3.7527502925336917
P 4.535360618177443 5.635959807793722 9.117858476784628 2.817750115989315 0.1835705950682258 -0.02308310707170863
Ni 0.6545610477569324 7.555820717892276 6.140098206209972 -0.7232934853615672 -1.4706021026908094 -0.44091899534955037
P 3.3057688655071455 1.2067707803239625 8.640328698208306 2.01828127171675 -1.3735879526575892 -0.39475920896403627
Ni 9.166610338297042 2.6185387754746836 0.30831898067893787 1.203868404539843 1.2348589393840863 0.29365880467658456
P 7.1045937879577785 1.0090356314521851 11.164203320991776 -0.9311718039372221 1.372218068893256 -1.8064169719101537
P 1.3407600922250542 3.70906056676319 9.854587143968779 -0.2742665161929018 0.7194234608831998 1.6817549782526777
P 2.5824615030154043 8.21396525493431 0.5466266115138356 -0.4105748358400542 -0.29930520432908453 -0.08971735926149065
Ni 8.238044736785039 8.673694115742933 11.362466111626135 0.3643844533269208 -1.90622333997653 -0.7268873733604126
