# total energy = -381170.6771653085 ev
CRYSTAL
PRIMVEC
9.22021889325368 0.00000000000000 0.00000000000000
0.00000000000000 9.22021889325368 0.00000000000000
0.00000000000000 0.00000000000000 13.49472234428574
PRIMCOORD
 96 1
Ni 5.995650317352552 1.6709157667277408 6.22707228473752 1.1759148567497104 1.5706018177149144 -0.7601751888792649
Ni 4.312333355929608 6.235237710776236 6.826413265148544 0.3852648963203558 -0.822886708975873 0.6240866985524026
Ni 1.6915321766448224 2.5482472751535186 3.8739571165965923 0.8067890320830621 0.3310480439583202 1.2887549180715934
Ni 6.211993538414446 4.125319651838302 5.903266487993795 0.26202420849043906 0.8176272603491467 1.8775946204962437
Ni 5.653736932310008 0.1699664409894762 4.4518149864947345 0.4393413664497853 -0.48772618551107616 0.18903341795500994
Ni 6.568742255995712 3.454170683021546 11.152214595123715 -0.479812072870322 -0.31100372371293533 0.5424336043562852
Ni 3.0121902600406822 6.736955933333473 5.090249695907736 -1.1229393329939437 0.10543734109990872 -0.38570841161567765
Ni 1.7900041166781087 5.1881988495178115 11.78665510562076 -0.44437172978484113 -1.0851898821593118 0.33229862853596964
Ni 6.956839718531395 6.480735264645739 2.0482421693058503 1.326167811502413 0.4321821296971847 -2.227297303441274
Ni 7.515594216467462 6.602266972658731 7.035662449631635 -1.190610511088672 0.018813276051761148 -0.0515588459138983
Ni 0.8746069336804747 -0.07634894631457229 2.7217100232273226 -0.4572064196556642 -0.5487752303035968 1.5068520861617791
Ni 3.275003385387948 4.561943127519601 3.649336904844821 0.21666326385713652 -3.946855211474338 2.9166265160422546
Ni 4.048266280784166 3.9924470743270946 10.907203868822917 -0.07557140677841179 0.9230435184031328 -0.04241240352793987
Ni 6.416663962090373 8.007695750498975 10.843644288427836 0.48649514131745253 -1.9169844351477758 3.0658392024559005
Ni 5.145177307177426 9.273327566280729 0.6676314552284884 0.04153822845310265 -0.3658846920215311 0.16493266825206432
Ni 4.609261291962563 6.531612433662936 0.7702773884502644 1.6736876278635109 1.236204397668387 -0.7641976797750967
Ni 2.3671437315080306 7.404213969688239 7.527275312050625 -2.276750415866079 -0.25992181743545556 0.08881361650029865
Ni 6.308049781042422 1.9892807121780545 2.466916644456925 1.6700515737728205 -0.4000844778316916 -0.5560992747688358
Ni 1.9323181985520579 0.5134657037179488 7.466603504278991 -0.4983705525987997 1.4497221739180064 0.03621424513702795
Ni 2.043873629494261 5.098799605083097 6.666473812434929 -0.4158180865168645 0.40874292483763797 -0.6399475768440591
Ni 7.861481515943933 5.943426996346134 12.094389138443884 1.3479620245593689 -0.780585634214817 -0.42380496137708307
Ni 4.352284565308281 1.490623602363426 7.778789980907553 -1.2884353299486455 -1.5570832144031894 -0.4506719609712561
Ni 9.268256445773396 1.3495911309449662 12.050193862211529 0.32039622067142887 -0.3770890453777828 -2.2840906582812344
Ni 8.701683202036934 2.6716599078637753 9.814860538973896 -0.7383413808336252 -0.8435468084283859 -0.4143111629540348
P 1.391626109841198 2.4124334477480587 13.417856622600805 -0.1934909395057313 0.5233573044511244 0.23380352308184896
Ni 1.0639579633147058 8.968580884447379 5.001185145426505 0.9550761213586454 0.4345053785137226 0.9149221748475792
P 1.5342721196028994 3.1489722104520874 5.880082247056183 0.35480940804397604 -0.07589253756325638 0.2123759493356923
Ni 3.1278210278269603 0.8956585379392762 13.363999478769117 -0.22549731720899877 0.8204544453852965 -1.622916567958231
P -0.10665765055403101 5.038978823534787 10.072380336533417 0.2239934789699626 -0.3627978255660913 0.8679715171296536
P 7.867327134856022 0.5434987234061908 3.67712295713736 -0.3934903695539417 0.29028526021866136 -0.2934461744451462
P 2.8325250705754557 1.0866304820920327 9.696093052648356 -0.5223082943613198 -0.13193204495632763 -0.5924014516339797
Ni 7.65362089645794 3.3338837045876266 4.352344496732458 -1.1200522412541356 1.0081735154042573 -1.6214741790847493
Ni 0.4114098645188441 0.4304551491005629 0.6935089221664492 0.6455752074434817 0.24557480468516418 -2.0820636562800336
Ni 5.219584475348645 7.703456180716358 2.7432742716683203 0.5953664477995746 0.6263641817326696 0.07551175718506994
Ni 5.136925211079131 2.8102398010005065 4.34899847921953 -1.1334669719981447 0.43050422777412956 -0.1762594061187932
Ni 9.044896637973176 4.769278194516653 5.7585892639634295 -0.30158731549504186 -2.0863640834276 0.6764364157987124
Ni 0.17203638017837816 5.565942005999432 2.786997472682538 1.3017700993843386 -0.8635903573428223 -0.39028317547055363
Ni 7.930918986017966 2.1146388111193057 0.16800253432027304 0.7092097535749915 1.890851228395834 3.036318310178648
Ni 6.22870057543133 2.2170293442718942 8.527113105648711 2.2380488855308234 1.7066345151031768 0.9851719123027614
Ni 6.003312319428176 8.913545396614168 7.324247009397163 1.4211217365724944 -0.032362475491105554 -1.2967304800779023
Ni 3.7158773820763025 3.6048106227466237 6.43081607639347 1.565110712693356 -0.6285732735688465 -0.839949835105747
Ni 3.8512670794029673 8.723230854083544 6.612049625128329 1.4357402578166176 -0.816410100112594 -1.4966100967187967
Ni 4.043536308383691 4.5456417801433044 13.241656391474953 -0.5669621856252687 -0.31808094227469086 -0.6526447126957534
Ni 0.30532663361500734 6.964215893814788 5.773177494630159 0.7433324062903134 -0.23661271039586995 -0.3046852376940753
Ni 7.46397020970282 -0.25378468680039357 1.379821463322039 -0.5078383828799189 0.3586035849790856 0.21555537550493845
Ni 3.3489679830421637 8.652493333115812 3.7373097813841087 -0.8980526527857501 1.3703948996415882 0.14345341533236583
Ni 9.308641005449969 4.666924542240482 0.41761414995408747 0.6317488430833507 -0.38814247497846704 0.5684300284200468
Ni 2.016664762917648 2.8690371382282476 11.228297077106173 -0.5140666231778178 -1.3217732819791428 0.16974654470093992
Ni 5.560538957604347 4.953359868932811 2.4531923483202633 -0.8949218204662522 -2.9609510489912423 -0.42158995600363525
Ni 5.1419778911482545 4.642159033726492 8.265922738863791 0.45156053422379655 -1.211042553690779 0.32362501202137167
Ni 5.5468100513581335 7.240693383874537 8.708468361275745 0.9722289789888482 -1.9789192249793595 -0.28395031913956903
Ni 1.4282211594659278 6.855269784879084 10.249322795297163 -1.42948270694268 -0.1508219398822951 -0.03559100973073225
Ni 2.6567323731340102 5.574120340344894 8.84094631340929 1.7838450001469084 -1.390836969546024 1.1862874582332859
Ni 3.5844247183071487 8.001361459974362 9.528987645646927 -1.2648369738034153 0.23316486105658552 0.49361786840516275
Ni 0.32328208829860483 3.000711087255903 7.620982242850839 1.0172731637126802 0.051788188315885005 -0.40848658585245784
Ni 8.859671656388093 3.737047005139638 11.862711770989726 0.599569944357961 0.10591479495695953 0.001253155680810745
P 5.192596894030534 2.6979190918726514 12.9032891026999 0.5781855651449138 -0.35675573313706943 -0.17763083254502313
Ni 3.374415787769867 6.313775537106156 2.7091059837118263 -0.4108242328466989 2.8638705644964615 -1.2157283892022224
P 6.8587919085769045 7.411995834612218 13.353972490493256 -0.5334218877759781 0.5774211761750636 0.27359237294401273
Ni 1.9636946041637875 -0.3125930882910591 11.323934721786818 1.0549552516444864 0.6251740180793105 2.3806330108843583
P 7.880475167298668 4.030655662295066 2.004829689675445 -0.16950203279030163 -0.112735931643851 1.3656352734694157
P 4.684000388021534 5.797572350336158 10.046686351955632 -0.5597258157778295 1.0454578536770123 0.23396061748500352
P 7.519088679507969 0.5968358468804 10.153578196074909 1.7303753103635424 0.909907238131491 0.14328809339909515
Ni -0.15367707989801485 7.127801021162219 0.9736864861527307 0.4361575694051649 0.15534862410805506 -0.5660466157895349
Ni 4.52682331295155 8.841544705629156 11.631034403535569 -0.3451333184067927 0.040193798610066264 1.3944467983844695
Ni 4.258929846877848 3.070305301054709 1.470506006299884 0.805111387270323 -1.4165886245888313 0.6309823972309714
Ni 4.446598186525555 1.7505323586928558 10.993178723882316 0.36020949601362484 0.4782866373647311 -0.02505797140989233
Ni 9.022482285330769 2.239535899105345 2.708863491949385 -0.9421725259231 -0.5779675355968369 -1.4593082749445447
Ni 0.9769744162853028 9.005968872915075 9.391247714470591 -1.514983714129978 0.6312950433753838 0.050951037126570314
Ni 6.9656450277759445 5.457438467580732 9.749127752935946 -0.323763594481765 0.5960804431474638 0.759605432418724
Ni 8.333095723125824 7.669221507182314 3.369821352590224 1.3328411097575303 1.9561947867986502 0.4904201874034715
Ni 2.3718644836894014 5.887589349450856 0.5925290825368095 -1.660652649056424 -0.11956735274338762 0.38213663510401924
Ni 3.3489587628230595 6.947213809786569 12.086494786846833 -0.11167278048665928 -0.33095676979609456 -0.3491442393383987
Ni 6.862858025201874 4.253803405055891 0.1915712583945321 -1.489530821274512 0.20114871316130517 -0.8202662406338905
Ni 5.59540060603748 0.20025209468117436 9.414282587858713 -1.8778183064712757 1.5388263250755305 0.5355433049943551
Ni 6.801082557203464 0.9398538141716313 12.337293966701274 -1.852857265650564 -1.460120743543511 -1.6775759071743237
Ni 5.2000560512858645 5.6693744239108 4.504417258506336 -0.2943200924096673 0.841117373051287 0.7705755582769825
Ni 3.0830845247331857 3.0016515496045355 8.643477802875687 -1.5796276753626084 1.3810323247507765 1.2683858674969382
Ni 7.826712069701842 8.863756213451271 5.810152417281983 -0.30628112142628544 -0.6495100237215137 -1.1905002107630527
Ni 8.90939629801726 1.7358906507553222 5.179935689156592 0.7404879948629828 -0.2670928812625981 1.4731125278174888
Ni 2.0824418060072984 3.812781884861868 1.9577199021842397 -1.5376772990727519 0.6358438390883308 -1.9308516800481714
Ni 7.68802153393586 5.821314414529576 4.242349126862693 -2.368082170802541 -1.3092589515622162 2.0203600086226494
Ni 8.753113584200388 8.103567588744866 12.001113713897746 -0.21150151715053897 1.1512844597955396 -0.24797338682432776
Ni 8.445361110939055 0.8633757847895996 7.7206279167760945 -1.0352153500133978 0.9462862909811574 1.066543213592402
Ni 2.687306619683671 8.26785345274422 1.3359507388021532 0.03256482130989875 -0.32109736050351156 -0.6233667896672426
Ni 2.914870847395426 1.3142408108993089 5.619162032691018 0.5898488604154551 1.443194657212134 -1.4739676767289325
Ni 7.643340352156712 4.234127457487442 8.000966834596701 -0.674726117975825 -0.5940649553793318 -0.906434191981226
Ni 5.599798650550203 5.863847285257437 12.086210804098423 -0.4213073917662099 0.34257712764384224 -0.6478290364746649
P 5.80610105300758 7.321379521255745 5.740075064002115 0.7040171536304585 1.0484421331163167 -0.1830538033328073
Ni 0.2707747845437772 5.729481032251343 8.072745318301301 0.4396460421743976 0.9004121541568623 0.6543753222336149
P 4.329270898424097 1.2780883317915825 2.9994718898082935 -0.8160887122174332 -0.2215661004753926 -0.6223769149501475
Ni 8.080314196163972 7.602623864592386 9.51610054540493 2.0604375933698256 -0.07167592837874753 -1.7736575180909453
P 9.43606443347057 8.248444891529793 7.52622236302892 -0.14348324012903674 -1.3372803764758066 -0.679268743041185
P 1.32970311833712 7.471226522137857 12.958820638320917 1.1469130702007215 0.2707387055453015 -0.01898219752945763
P 1.5408369156051187 7.18507702223776 3.4955648566900326 -0.8431642282779866 0.25561470541966946 0.32587909816287103
Ni 2.293750787438278 1.494966325561523 1.9691363774791102 1.1683861524728332 -0.42078134405941087 -0.8500100475552264
