# total energy = -340886.7507735651 ev
CRYSTAL
PRIMVEC
9.15682264400662 0.00000000000000 0.00000000000000
0.00000000000000 9.15682264400662 0.00000000000000
0.00000000000000 0.00000000000000 13.40193552532338
PRIMCOORD
 96 1
Ni 6.205038434549182 2.4750250554343696 11.29938633461728 0.7072248619344788 -1.0944255418249669 0.5922525847609412
Ni 4.7564382534691605 0.5549199328300125 6.5333233448961 -1.2585146311298132 0.6446850915290446 -3.0467425908357657
Ni 2.775561130524777 2.0012876805561723 4.83765652302918 0.37038257989188467 -0.9231288790280876 0.9034493983212891
Ni 3.5538635824445644 4.546847740604095 5.057515496776193 -0.21218183104701524 -0.1915322731174637 0.15914537214632593
Ni 4.170136058168479 2.9616277660885038 2.611460796735353 -1.7540310021092695 0.2734321932170645 0.47559829189929054
Ni 5.508753642803818 5.05951076842429 2.884739757943745 -1.7077017800254268 -1.2612101756841054 -0.24634407875102088
Ni 6.003478455118632 3.1659714195944155 0.4392069967920351 -0.7152171361113359 -0.6957646838136792 -0.17308383660428903
Ni 5.720679145436046 8.10023516827261 12.45557162658531 -0.30445075308576597 0.7727669095013465 0.9903557704965459
Ni 2.325961140063213 5.756390753639715 11.735136630871652 0.2590813238120312 0.7090781130931336 1.2301425077450234
Ni 0.8575126302800465 7.874656843119441 11.24541693779892 -1.4539027876582573 -0.5522120238992877 1.609163994258829
Ni 0.5207457551436255 0.36191608845215795 5.308962761502743 -0.1692958303167665 0.009900289832847466 -0.09456080339672102
Ni 8.836077433720499 2.5164779914184736 1.7248294705353922 -0.45508166000317757 0.03043157701697985 0.24777078389521845
Ni 1.2975767056689695 1.0349590330327647 3.1166866532265685 0.33416139277632123 1.5644720506680927 -0.865762939514109
Ni 2.2113635050199036 6.8220068287919355 0.7135637160223688 0.06583489621693824 -0.3531741864333982 -0.5244009152242904
Ni 7.904581339429591 4.393562530006812 4.137861005492717 0.25137187098291547 -0.33991037944495656 -1.194263020239595
Ni 8.126112348986345 4.25393014193047 12.774202498847838 -0.11726184453866256 -0.35709820407815274 -0.11550320997634302
Ni 7.9704005803957365 0.2465959801044208 7.134400073488222 0.662705439365865 0.7236932919031471 0.6588935218189428
Ni 7.079707287683174 0.8094548781427872 0.41805473654832404 -0.796135409023958 0.7104171436195312 0.07279667224675204
Ni 2.0931672386883786 7.264794143226954 9.40696594951112 -0.7093521926901267 -3.4560069353945124 0.20750165196252648
Ni 0.1888677076020606 4.870404067751943 1.4783268900216577 -0.31675579570536416 1.800617848729873 1.270780850091676
Ni 6.534537539575024 2.4961773156780804 6.977061137518692 0.25332770915770564 -0.030423349486863732 1.6872178011394623
Ni 3.7972336139412537 4.296683346726092 0.630543383771457 0.14034752271353249 1.2446371018167726 0.20745717187783624
Ni 6.042779537787899 6.0481088085506 4.909638305616111 -0.4774170902755842 1.5805553293832004 0.24103912159833973
Ni 5.774008480353524 3.6766291032616354 9.048102745719245 0.20018506369645522 -0.4790417703632008 0.6214454042748137
P 0.43509466775504346 6.462335993245301 12.84381174869488 -0.5198595757105111 -1.4099022137075912 -0.11153882601195629
P 4.278214035508965 6.3264853729095005 13.04534975175115 -1.2083068999271707 -0.3938554662028443 -0.08829528210298343
P 2.716426370068549 8.755524865164686 1.6258561219223187 -0.19758259307660164 0.5775831556742247 -0.1073471565281119
P 6.547659266384218 8.284571164361852 6.029959986125045 -1.644353397675768 -0.3623962192522984 -0.616137618908655
P 4.924053891460992 1.311357723706539 12.958438685570561 0.1897049901007378 0.22439971326944577 -0.6540529058971898
P 4.2330800568330975 6.591163330634379 8.579490444459404 -1.1651995272147353 -0.09989147158101506 -0.42585567325852464
P 4.781701927067602 1.4758783556540525 4.2004478880753 0.33126555928576495 -0.291590095073014 -0.44459978663524724
P 0.23497505652204254 6.043539554065054 3.5833961667467364 0.519733334545292 -0.5521179215235845 0.6068819046383419
Ni 1.068619512970376 7.921036149671127 2.8014062623593547 -1.2605008083219065 -1.0881705620541904 -0.25893297115962505
Ni 1.7813682717798918 7.1094394907183815 5.077404115498851 -0.5192952185666089 -1.248351317443566 -0.2655836437069233
Ni 6.219936584945942 6.211585562719853 9.35698984303574 -0.7180895725631246 -1.1092906318622573 0.0734186221014671
Ni 8.922353016411513 2.614071406863267 10.777099486227327 -0.33346616648150956 0.8265374183545829 -0.5398437321419219
Ni 2.712452309053064 5.34192549155699 7.340065972179931 -1.486005581730073 0.8565023401477894 0.2192297390327321
Ni 0.5501602164340468 0.31437844383950597 9.526484461028444 -0.6221329172601414 1.0388097522328754 -0.8000080046054867
Ni 1.6674207711423419 1.4954464855851393 11.76479557932593 -1.369760351381383 0.6373317364877669 1.9663586147055294
Ni 4.294632218460035 7.092334546071086 1.9806454553321906 0.08020067802030705 0.3031055519117812 -1.5797166355319892
Ni 5.6837679934696395 8.423992945518018 8.107031362018446 0.6757715285212039 -1.1513181412469526 1.536499990935199
Ni 6.849202591962421 1.07002966365329 4.938827509070171 -0.46544731950821777 -0.6971427951081284 0.2751540610041777
Ni 0.8814925173476786 8.163572910309732 7.339274822705881 0.4743680190366153 -0.5146474353819523 0.11436241150368046
Ni 5.073044552251218 5.153331572951157 7.118759304777277 1.214948316503088 -0.9839511525217828 0.06075773880434698
Ni 8.18249090583506 7.313013971124523 9.44217301678863 1.7888797343573384 1.4398691923833267 0.15043421752557315
Ni 4.711002099646956 0.5858992951055637 10.563056926206203 0.4135840549800232 -0.415635023971781 -0.10373527080713747
Ni 8.13347443436987 7.635169304412073 4.698959962224227 0.9378872682841847 0.04620323802893979 0.0096002420939254
Ni 7.707819535049996 6.755024671353517 6.995823467059543 -0.491170949526567 0.25435280798811033 0.3231061634034242
Ni 2.545212100788502 5.121923671377162 2.707285114050672 -0.0848651733755119 1.2700977079817224 -0.3610692729107588
Ni 3.587020437138278 4.508544751600007 9.903266650998205 0.7510547146352355 0.605122498745074 -0.5315555239912007
Ni 1.1393468108588711 3.659020533370442 3.894481817173412 -1.0619774485985904 -0.3618660577804413 0.34264011967129376
Ni 0.6391251579274769 0.3684210952387953 0.837245834783334 0.1101098068749136 -0.24519325297602934 -0.5576923302875686
Ni 1.5207651001192786 3.7865384451253865 8.725758781885798 -1.209083630192195 -0.7725823042943663 -0.05717722054194024
Ni 5.737079014741885 3.4368485462305456 5.009991587397465 -1.2315463300710856 0.2228627077996291 -0.16122025239748364
Ni 4.109517892448406 7.088342171410369 6.146409130701374 -0.12540761357424854 1.416262351597664 -0.4306893472017421
Ni 8.233109821258104 7.691575331728636 0.6029987456592893 0.0827517265769349 -0.46111758178461226 -0.18370506376356105
P 0.4703896405296687 6.154428675948751 8.169096305711898 2.101645949287335 0.8609956000324527 -0.3375089690923155
P 8.71968506144439 2.272183120837535 8.441959547173509 -0.3374071534071286 -0.4798205575107543 -0.2126621131175434
P 1.8745206282557674 3.770065321238617 11.022488597110916 -0.8494564890446016 -1.2463821095323373 -1.5796500439601118
P 3.8937282106720885 6.3189584647188815 3.9328653862165237 0.23922546542836862 1.1214516927048235 1.3864226425284123
P 7.525580451339894 4.523461215642 10.545125120476653 -1.6421170521460817 -0.12841246183884336 -0.0850243246611955
P 6.372608288427931 8.25073670479453 10.317828059718401 0.41029767091926755 -0.2803253207924721 0.3703563546396396
P 2.579183912695068 8.936994775775018 5.968284207392786 -0.2627361469557991 0.6368709948012644 1.0026132477076604
P 7.1745444995204535 4.326855077246884 1.7978560465828468 1.3698397984690667 -0.35549486414677484 -0.17381634389493936
Ni 2.9009729730779656 1.565532805890492 0.6912018395110411 0.26523037413256256 0.8546352050320637 0.13559252452705034
Ni 1.3284351978859854 1.5862730091164685 7.3363940863107855 0.9051956915884347 0.08044853236505499 0.05027946498084243
Ni 6.978698377402491 1.1178008072426582 9.357405562782523 -0.2114452099913068 0.4914121190030956 -0.6142077488757939
Ni 2.8996360769759826 1.900791552342004 9.816756653648211 0.18662429429288505 1.5804260028941879 -1.9749520128014955
Ni 6.438610665846403 2.5544879620988397 2.9959090785995017 1.8913801043161105 -0.598020340482654 -1.2016945368169756
Ni 4.361660160011535 6.713855596870519 10.889125885479972 0.19610112343506872 0.8169685437192252 -0.44413338852178996
Ni 7.3962037045938365 6.572492569319692 11.799372657207433 1.3232917755061984 -0.5736871630539281 -0.9028670434552579
Ni 8.13230236107498 4.752922033584492 8.245848792881937 -1.5369301364940822 -2.447222268768818 0.745893225038954
Ni 3.2829864558084343 8.910659753930467 12.549612194854971 0.3453441488660181 -1.0173520965797316 0.5059709906538771
Ni 9.589116212041844 5.346421491461605 10.35204344310656 -0.9197108544854742 0.3431319717060478 0.14189172727220078
Ni 8.778508489931662 2.819449781324823 6.037129778233627 -0.1297831169341249 -0.5209314686184512 -0.21810025341397923
Ni 3.5654744335220645 3.155889757893841 12.059302802405748 1.7581478524911205 -1.208145948869274 -0.19455974708987783
Ni 1.429334226295272 3.8187246766217693 13.215340669529656 -0.13240101417294617 -0.4992367572538369 -0.6273818243639067
Ni 3.2121950601616245 8.809678314117633 8.48464499148177 1.6517296355351812 2.2106195856752766 -2.0156417772113735
Ni 5.8919300420065595 8.085025685906894 3.5361277327190046 -1.848936333329603 0.47123281584174326 1.8657523764456772
Ni 3.2268551331703614 8.589200339161756 3.8167101756461776 1.1724307548558517 0.48101714892201675 0.3374475197267608
Ni 3.569595003699411 3.014316123422838 7.328647414377374 0.37154291874857304 0.04840050279057471 0.11019671016176506
Ni 5.567686953162487 4.570801988568401 11.748806851355564 -0.41295207782297916 1.8292347411356176 -0.36377484476738
Ni 7.750105741892186 -0.17076375360732418 2.682276915803226 2.0449487537056075 1.784789880558681 -0.2882065233127617
Ni 4.886831407525631 0.7121947710412282 2.0481504673420012 -0.07630622806190729 -0.44419818032145436 -0.4303638455415234
Ni 6.238424209808302 5.726850843879449 0.40519855759500356 -0.17462187051537023 1.10908391516809 0.48857799198841023
Ni 7.859749535900064 0.3229602179955259 11.544615201105083 0.6295214964147287 -0.6189563193043728 -0.08361073214312051
Ni 0.17964037745158976 5.1509507990709125 6.094945956233104 0.880237221870884 0.8557901445721131 -0.43197541300301734
Ni 7.307290956989318 6.463269989152166 2.7032240632203317 1.7200520740606633 -0.29008522839271333 -0.9719381872213066
P 8.601397226886702 1.8539818751273502 3.985534514223364 0.14626028865354165 0.3024764029682145 -0.8207236398862834
P 1.9338659956321704 3.217634212795722 1.8588752811335143 0.5342122448877573 -0.5684917348959178 0.06601384499696374
P 4.919411382394516 1.6128552651716601 8.342075094710111 0.13401258163444016 0.2065259183128185 2.1395404103402638
P 8.778206314785322 1.9009105910360165 12.91795179437248 0.37424643372266514 0.21068647744841132 -0.4513872418707258
P 6.204452397901735 8.159672103875177 1.3158949293129278 0.4295909719312408 -0.8757773863273175 0.5005462200938798
P 1.7737864226535744 3.588128412674853 6.065353852583925 0.5106295724718108 -0.22977460442811395 0.7869645411579673
P 7.06576144683851 4.737263866910576 6.111094928599255 1.1455372728991176 -1.2228202630519973 2.2568747599880745
P 2.444139092749505 9.110415839305599 10.582329290766783 1.1439958965539265 -0.5818421880608947 -0.7807908082470876
