# total energy = -340860.04713017645 ev
CRYSTAL
PRIMVEC
9.35493452798591 0.00000000000000 0.00000000000000

0.00000000000000 9.35493452798591 0.00000000000000

0.00000000000000 0.00000000000000 13.69189229298231

PRIMCOORD
 96 1
Ni 4.010479083743581 6.913586518696208 3.396753290419883 3.7146362592707898 -0.5752300820610158 -0.24849660631764947
Ni 5.223870203999714 3.9950902166686473 4.384239583989748 -1.2390866043121886 -0.8305658227876856 0.454268677183579
Ni 2.3108278287227213 6.075861498821904 1.2431940702423483 -0.7237711963289342 2.0288988993315957 0.8394063038974512
Ni 0.4318172230832724 0.13358939861201186 11.761458522143174 -0.646789539466557 0.11276138556514773 -1.8954843562924708
Ni 5.066548272328493 3.4380880680311865 8.962438764703768 0.14229050537251625 0.03328370175379429 2.4411516370947055
Ni 5.010390601172975 5.699568617835808 10.00536427046784 -0.321062393500518 -0.916545312273299 0.544982338920068
Ni 8.795078988429871 9.654947138010174 3.4116089262344693 -0.13509321629312865 -0.4394159284414626 -1.2811794197171806
Ni 6.811000308152912 6.649627689889931 13.184525528902238 -0.04736434821657649 0.4953559341421921 1.3323402588617117
Ni 0.5919680869146514 7.6413255749230995 8.156287583896095 -0.10094433832556163 -1.671863687280895 0.04016860179908566
Ni 3.5010374215553375 -0.057037970481810175 8.09980810299749 1.5710147368826168 2.455776843207048 -0.8856781903807973
Ni 5.10610093493811 5.376524023409298 12.416807225057452 -1.0979926903509347 -1.792403945460513 -0.3980394223772048
Ni 0.408442984011279 7.924387179757957 1.692673409457824 -0.09670150388880766 -1.0566537223928318 0.7920789795663972
Ni 2.4531631554978675 0.6493278671395485 2.522539348949361 -1.233626866749198 -0.017798975854633862 0.8199420245252524
Ni 3.366812822898105 5.777925548303676 5.38007796298484 -0.10373089993176328 0.2589985342902378 -0.9139757517739099
Ni 1.953039007964113 6.884305574049071 3.6750953308539485 -3.824799287981142 -0.8979981453987308 0.18893623025551332
Ni 7.444320011560774 9.024854886967573 1.322788658530286 -1.8249284004507795 -2.2983805925413447 -0.6214513178120845
Ni 1.6367580311030607 2.6511229221681836 6.692856841715626 -1.3262056067188837 -1.4044920984356135 -1.395509949541661
Ni 2.297637371229921 8.403144657140254 9.7504067595336 -1.8225395885036288 -0.3145451612072905 0.5623128597787155
Ni 8.040902887611026 4.706925884429041 9.005171169513245 -0.1256366988659191 -0.32334527599742374 -1.1297013343081252
Ni 1.4193587107660501 3.8764696485773653 1.374091118736326 -3.1432903427555283 -0.6926729322622328 -0.2740497721964055
Ni 0.35589538203765614 7.99639210977362 4.978851375363595 0.8024988893481405 0.5778744616623983 0.1747681662852474
Ni 2.755421085705226 4.769538460315078 10.905510090073145 2.5524060990970234 0.04691517649429985 -2.800389770333996
Ni 6.371065808497653 2.9682551980589125 11.098469644310907 -0.04862881675129689 0.492184735503062 0.42711859913134825
Ni 6.4251279743493495 8.582301005682536 3.6164398922157517 0.6462310958599258 0.060299054000373574 0.9025788227908779
P 1.7352467803826357 1.0115490558131135 10.168406744519805 0.434730092930019 1.0322256712574545 -0.21763745484494776
P 0.43732821493363316 5.928081600230582 13.887686366000876 0.25236791634759764 0.9797782520910157 -1.144341195708487
P 7.913095773946745 7.3011240308215575 2.7903935724364914 0.07236446980533988 -0.44407065360465464 -0.24370535557659317
P 2.125160445843568 6.024792911975666 8.687067851432621 -0.039817389107254006 -0.7806036319369459 0.8036923954356094
P 7.435526373232239 2.131456316689422 9.342497942276108 -0.1882068082886565 0.8455846647940212 -2.1871937505521686
P 8.00780512973193 1.6436713276187906 1.5270704898627543 0.41973516218308354 2.8791393177300737 2.976917085402196
P 7.9677566555995325 1.3655584830773309 11.230692287008239 1.7832713870316255 -1.1323233453120047 1.6146265600352967
P 4.7006487234519705 1.7206811475342034 2.5769233245441447 -0.6119894010682364 2.528429276566452 0.7889525181222735
Ni 5.69676213751819 8.205400053960956 6.9291110323198275 0.48681010145471004 0.7967365329430666 -0.12966870284344764
Ni 7.580752374734531 7.051300507881678 7.7076455113087095 0.012400944767514127 -0.9570872382514032 0.7199765051731922
Ni 6.142356372480645 6.029685542662711 5.881502446399091 -1.3790651737220765 0.08529506182407891 1.9503157023100541
Ni 2.6322072448274443 7.907239585017317 6.359500303108752 -2.424029889812754 -0.3184879479051224 0.9467277493939502
Ni 4.02462374454437 1.5616004881972754 9.968997898512159 -1.0741251397047178 -0.11630590838329648 0.6258196220831093
Ni 8.921454797132167 1.8743640097269143 5.006289397935498 -2.6595136288105037 2.7175177161291133 1.012320190582779
Ni 4.296842980418835 0.044361098887133854 3.9238495847928156 -0.028797383847666537 -0.3820245350061872 -0.381496173306543
Ni 1.4942730253776422 4.567116389939751 12.520865902274059 -1.611143743693019 0.06659542853204659 2.927945540599499
Ni 3.249080973574069 0.7442467734551147 5.815357447286614 -0.6801048657892351 0.766431454201622 0.4241052662263212
Ni 0.949001964467821 3.012391778520637 10.723996298064064 0.9458026664765196 -0.8171351512040765 0.7682556518945544
Ni 6.016223792072542 0.3489418593040403 10.746629626332206 -0.08717916622066921 0.869389994743735 0.5967049641053401
Ni 4.674679425579621 9.464200025756131 1.3920544637559538 0.42158507090762876 -2.2038755820832234 -1.9530469851982883
Ni 8.362301013584533 3.4329709189187314 3.0907805157654384 -0.7035931787191625 0.4513386480209775 -0.4984744251665157
Ni 1.6113874490318023 8.512438355642654 13.486281099132743 1.684984283823253 -1.6944492858908946 0.46518635253734725
Ni 1.1397677865906455 2.5472083109412154 3.426136203851895 0.6753025593045854 -1.0600640336259615 -0.07898737443849621
Ni 6.488853787428042 1.9181825224193088 3.8431501787531763 0.6174725356699946 -0.5053742376101426 -1.1187605190259056
Ni 8.159813458668461 -0.1671305803812927 8.84374335713735 -0.6865033131164112 -0.011313368130290194 0.43864588304465746
Ni 1.2814014932863869 0.39228139935556156 7.8167146913857 -0.4558041399914989 1.1780997802161712 -0.8157665529913242
Ni 3.063535204842012 4.001236408564228 3.097968847352295 0.2677873362264614 -0.0393083106813194 0.5800249323464978
Ni 3.3211888078680434 4.344356692196092 0.4573664844014191 3.5845194131463294 -0.5454759907270348 -1.7065980054382865
Ni 8.038180601702939 1.8142772661267326 7.277610403227123 -0.7260970162486334 -0.6416218792226885 -1.1549693648462949
Ni 7.851240947746464 9.013638320631495 5.934202533803305 -0.8102553933651078 0.4843888936077271 0.4005184800453167
Ni 1.6184504244978053 4.29968688047402 5.1122377718992995 -1.5053397632823107 0.3284214049687505 1.0790629433259673
Ni 4.197203574209037 7.451607505452186 13.535954865261125 -0.07180988285345052 0.14723036587629482 0.6359330563680274
P 1.0859675589019262 6.2073825214398335 6.359048459777616 0.8661851146531921 0.1673579898641053 -0.15735819833891607
P 3.5285128638648087 3.5010561314241215 5.65720199096106 0.37370161696278864 -0.24724113664399353 -0.1227794319227821
P 4.417147436700686 7.684302143520209 5.44401987504799 1.120014960258297 -0.26275363045729583 -2.2107057176311797
P 3.6551599656644753 6.867541531618505 11.490153263358815 0.29467001954991834 -0.25787753331191715 -0.4316905347727469
P 6.161852055753692 5.183541081835556 8.259825191267064 -0.0433930222736543 1.4091347394139475 -1.3767444960086999
P 0.8901706530630534 4.852657052388504 3.2787426640509634 -0.6181777892671353 0.08117923988349246 -1.8267927073530281
P 5.711926486167715 8.397569116242588 9.017986494136924 0.6187002374295086 0.47066743025657654 1.017524617601854
P 6.101381759843435 1.3331062156712854 5.7929710892864215 0.7332094589236986 -1.1199645666363356 1.3723345398664621
Ni 5.661035643074925 3.2968004939079507 0.5405178187452169 -0.5795852737059181 0.43749120061492397 0.7633476730699758
Ni 8.752364357995738 7.378760631341239 12.244686722671437 0.6485425176019217 -0.3277755438546355 -0.4201087434724184
Ni 6.206007346084201 3.339842547045805 6.985397801569955 0.3602028111454055 0.5215192228011211 -1.8659374958732895
Ni 7.17369111453296 1.5351353788021465 13.33568349430253 -1.3126484368597393 -0.23302370749303097 -1.484283971053276
Ni 5.6700912195664355 6.994983802841495 1.8326054535876504 1.2089098236184923 -0.08866912050263438 -1.2385006499017315
Ni 6.383068189322661 7.3811087198736445 10.92593846030508 0.9483323748769087 -0.14194160667352976 -0.24807571673014694
Ni 9.132698570639205 3.0197728217559696 12.930869289341931 -0.8864382084752734 -0.3415283746643537 0.06697106670391045
Ni 3.1099730991641827 2.1328595568482305 0.986873545367185 0.9859771818128762 0.43220886917006207 0.06814348974545684
Ni 5.727175029226768 1.0423642097005488 7.930097431710869 0.4681132963761551 0.5123383276328015 1.0434230826351707
Ni 6.572514965696206 5.6540475070840595 3.725221875806907 1.4701063940013133 1.530797284123467 -2.8722006816287116
Ni 4.161130947193265 5.07199284414467 7.3094574063780025 -0.02817877642706115 -0.5767442047126969 1.8994806219360578
Ni 3.7184460968267397 2.4101117474256215 7.4839334812439375 0.7463614229246243 -0.6158434847070039 0.09494364065743649
Ni 0.331043998825157 2.4314129330363348 8.567537048224992 -0.871003619087758 -0.030597156060566663 1.5034744279387977
Ni 9.127020125463225 4.394620754684613 6.94306298147214 0.41317473535674654 -1.485525813880177 -0.14611630687650964
Ni 8.4935413881707 6.147174163692555 5.627094070113665 -1.4850267627565714 0.293459801291901 -1.5951303989838979
Ni 8.042942263308495 5.293040588894583 1.1248700535712948 -0.8726316416094841 -0.22952443609052084 0.6144172937834387
Ni 8.777875264082878 4.657887318345879 11.009623025909224 -0.27820210380188215 1.287802581460653 2.6539790721455194
Ni 3.1464386334244203 8.969978841823766 11.805902879946398 0.9664005452325292 0.6365634908631747 -0.06895647256505544
Ni 1.5298124211330661 6.753916498492582 11.183085961380499 -1.4474763153066232 -0.1031932822607384 0.08053672120348711
Ni 1.9912258501524889 1.5278478849107342 12.716920068808712 0.0016866436738035469 1.051865299865253 0.11661572631423142
Ni 3.9012695796507084 7.265603344934918 8.726705643945206 0.9155107003611975 -2.1079443807015372 -1.0673181440852135
Ni -0.0035754559246441503 0.5878023346298685 0.3708707610124609 1.2961226712905745 0.9549563079513296 -0.27463624082749477
Ni 4.689366672575151 1.5666615077033783 12.727612758818832 -0.3495499594172496 -0.5900699752873257 -0.1295072375649189
Ni 2.0745970254545 3.748980602682414 8.664599170009778 1.3351178216068489 1.8736772877197085 0.5650539128589623
P 5.987504143488927 8.769352918851714 13.011802568741372 -0.06457248456474686 0.029554830838981357 0.3169236887417961
P 7.058167029725448 4.241171765851703 12.873458992471317 1.1587712550908882 0.8232939717166208 0.398473681701146
P 4.760230300594982 4.967965973704997 2.2570537948502998 1.235632584325317 0.3686550556778167 -0.7013740595806566
P 1.088755329350759 0.7065417103879292 5.383733871345257 2.062003138084733 -1.5528522070409772 0.4050755032883798
P 7.310871872458082 4.149699217366171 5.108637057651796 1.3328948458136014 -0.31658661711735153 0.38044047834851896
P 8.530128536578035 7.051543736175871 9.897074356425707 0.11596652276600673 -0.533749703429042 0.7187824848650911
P 2.861019585122764 8.036534133249935 1.987364133235448 0.04607853952561742 0.5292114492390563 -1.5876286912902142
P 4.2257735438423785 3.3043779907655173 11.513087820514382 -0.36814674858283053 -0.08584682056249086 -0.055279489298595115
