# total energy = -340869.9835913528 ev
CRYSTAL
PRIMVEC
9.27059069881969 0.00000000000000 0.00000000000000
0.00000000000000 9.27059069881969 0.00000000000000
0.00000000000000 0.00000000000000 13.56844657339041
PRIMCOORD
 96 1
Ni 5.688480637332706 4.111182382533957 5.46416294201186 0.19818988764329737 0.3915427589092676 0.678000932072355
Ni 0.39150259597451553 1.8582713093799208 7.459321008420591 -2.1632300406477194 2.689108568858801 2.113878229687469
Ni 3.705538427926139 2.792765365335155 4.857720779989769 -0.2993178027345748 -0.5476038357033148 -1.1176564873284494
Ni 0.7600076382833483 5.332647565074916 9.444425119514118 -0.662259095857066 1.5920558738236323 0.38580637064612266
Ni 1.5181796996626755 5.226091398737449 11.705620392271353 0.43070991602703246 -1.3829326270972826 0.48236183587536924
Ni 7.559758585077989 4.78734216572428 3.6071311105716743 -0.019925535279333426 -1.4641010683474978 -0.28640340866575187
Ni 6.249267922692006 7.144259992849089 11.541469755863572 0.20670692397537305 0.0837678265462751 -0.2768450755533555
Ni 6.537342249538228 3.1702452662338003 7.69721641047694 1.8239686076406716 0.53665273600845 -0.8400747907193855
Ni 8.971187436004286 6.4685637391799835 12.585412402368672 0.4111533340513435 -0.5212837097515475 0.6390206941544156
Ni 6.101568876051276 0.05175956045722569 12.988598723454995 0.3701478381732593 -0.2727768190212528 0.46368328562925953
Ni 7.1351655436428025 5.8852581896799405 7.848423448534243 0.6816824946890001 -1.1273801423741165 -0.676295519345474
Ni 3.7399786713525964 5.24986119258548 0.7861710985789462 -0.5317545273758842 -0.8487306666221704 0.33698652092994225
Ni 1.9029740964061321 4.045611496462536 7.9451527890219005 0.0010384685668433729 -1.3153486093997218 -0.8068836486793974
Ni 8.329319566793629 4.045055261037075 5.7120983934977785 0.3936916869314704 -0.1361982764318493 0.47456985063477625
Ni 1.0250213714490028 5.969703997855335 6.358174183702047 -0.5662358489822054 0.06442104658854711 -0.06861580139618505
Ni 4.396966873545366 7.335345402675771 6.256980126866022 1.4629510139034545 -0.09827656168541138 -0.5873201804563305
Ni 0.47254980570034477 2.87900039746245 3.745854371563549 -1.1816340186216747 -0.021250681848660174 0.7965843236359185
Ni 6.487447931874382 6.47787141196603 5.080188992520958 0.49707574504677626 0.007523304960238656 -0.1643163748243041
Ni 7.8402866513187925 8.871982847873326 4.332770816033876 -0.7571855101233218 -0.646395389351932 0.5947483545996015
Ni 4.515370854445152 7.322181164273196 -0.055334300124854685 0.9561621553339725 1.390589372311592 0.6773602131645625
Ni 2.183400186152267 1.6189046646232281 6.299815816980769 1.4257520362556542 -0.20484698794849884 -1.2996617947920843
Ni 9.221085471483038 0.7732988837747375 9.77879306670337 -0.8689940448568969 0.31268136852567435 0.4864588887628784
Ni 5.618923397378816 1.4835911267894293 8.949068734310831 -0.24595584217366678 -0.10225380116560455 -0.46860951928628325
Ni 2.765268794136536 6.63823408512642 4.361522625175952 0.6574272216860613 -0.1714632702817305 -0.6689143963900545
P 5.615344949475017 9.111766669199115 10.382506893963575 -0.781317627284835 -2.609472505092713 -0.1458975059974842
P 0.581802786792256 7.734991285279036 3.8632079945682563 -0.6249878702104333 -0.7372520044241883 -0.803317528594694
P 3.1524271914382016 7.41284753862333 1.7553362356622035 -0.7246849663924552 -1.7773179976616682 -0.44174277680242635
P 5.070512350236023 4.757120040940902 7.806510182166718 -0.4533677626358644 0.9721798709184678 -0.20564942924513616
P 2.5368877990326966 1.9360237512689364 8.505543293111039 -0.13411079777520127 -0.7866572943301936 0.40146258912614086
P 4.814310313268712 0.8645604300301147 5.521800983857165 -0.12040270416048943 -0.06580095765520926 0.9940116220815783
P 5.720093350679737 1.9642526991110796 1.3147365928003354 0.3383993421170688 -0.2396764369228582 -1.0795907908049793
P 2.559016698375618 7.7833930378845615 7.025849522536006 -2.5073002078973206 2.122790187465118 -1.7147735992705435
Ni 2.31850977099673 0.5877665576122398 10.566427064451279 0.1358151820608177 1.2223860037280563 0.47283846976596633
Ni 0.9591723676648515 0.4098546567785569 4.442757100828353 0.050802941584480246 1.5296924810950623 -1.7171534123566297
Ni 5.311733113077585 3.53042624540061 3.0593458282825248 -0.3673509921544125 0.3483772792653871 -0.19689379453969316
Ni 2.3402029525897072 3.9249547620896332 2.831639732161578 1.1268769774854528 0.5507215553966903 -0.08792889990250019
Ni 6.203767864889301 8.04304373448973 1.746137028784122 -0.583966176382433 1.4567068327659558 -1.4778623837976483
Ni 3.2022566149690777 5.017475302418321 6.2342532744407295 1.5662209150383994 -0.9090757433691311 -1.5647273612120085
Ni 3.9853248469329943 0.25818965155429113 7.647908921186955 0.45211974916137615 -0.27251559494006616 -0.8375394258920416
Ni 3.821773090666628 0.045808768463836025 2.146405895063902 1.4537130402449545 0.5417347785170477 1.5861922159540038
Ni 1.1083732499543253 3.1583696399002092 10.395749932384758 1.05575460761733 -0.7997796906447645 -0.44126737982790454
Ni 7.384377555430153 4.673999927196189 11.879731351031051 -0.45460163504296547 0.051682515975956154 -0.5528794822799575
Ni 1.090675692834243 2.1088646391405 1.3322793310603314 0.614836126488412 2.2837731270408153 1.9431065861561245
Ni 6.939667332774129 1.3668187698043286 10.814811212513735 0.623511542775223 0.6429999905171379 0.3691103980476804
Ni 1.6901676932151994 9.194386171060913 8.45692738986671 0.5106503984074173 0.1823842880696085 -1.0114437015150968
Ni 7.004366783345661 2.4265306906212456 12.982533903199386 -0.30651637736554305 -0.09684548566583966 -0.13287461137525503
Ni 0.9249082654564572 7.722058811637068 10.470701728906576 1.3937346028087934 -0.3505724871444931 0.08927667217964624
Ni 8.931796697291226 1.1158360752459262 -0.0015083250620415926 -0.7936694639819687 -1.661284626213468 -1.7783166141295115
Ni 3.806615675322817 8.067592257933407 11.054796205651732 0.145077324089034 -0.03984052903570558 0.5929115585011789
Ni 8.409899538762073 8.536609968682074 11.673680427082342 -1.0805480125119262 1.5817390652786565 0.6134814122327306
Ni 7.714280786271039 3.0884971998718904 1.5837357527894176 0.25742399071426636 -1.2362221382802001 1.448813546060808
Ni 4.672627879813385 3.0389644352345933 13.175911002978967 0.48028952672737274 2.4093697166974186 -1.6141547626052009
Ni 5.498767274888828 7.311964973625563 8.688242526839856 -2.102563318895282 0.9754312879762297 0.05397054067918447
Ni 3.2051490391814745 6.313049584811528 8.173021120475275 0.769040866800011 -2.444692046147796 2.296091539396852
Ni 0.6282660589400512 5.6250790694205834 3.913004043973605 -0.23119642447630503 -0.6924482178459365 0.21858773457335903
Ni 6.744984933862799 8.995615441772445 6.560764396245346 -1.342237720481082 -1.4767804635873794 0.7439885518170735
P 1.4214132768133199 3.722308926003787 5.644026302129868 0.30592605207971185 0.18434115468566317 -0.6408556904806254
P 8.663459457458442 2.3855454103551983 11.36332979850545 0.9906712448544358 0.3936320373381285 1.4512496663061265
P 0.3111831275969977 4.417983302037365 2.0803010229840386 -0.6945817192491716 -0.1965685499897905 -0.37431071130169724
P 5.301053392908735 3.4501243911448984 11.01555657756259 0.5750771014229192 -0.013535315482273463 0.514476714132043
P 9.030315261730784 4.409815911873514 7.72256220469711 -0.9153813738721849 -0.0009615925823209246 -0.09498169298422351
P 8.015491539748565 7.205353183745549 6.24924660033403 2.040067771464222 0.7421350435481026 0.8114602123064864
P 8.340360839989028 6.420032198308516 10.47190968683887 -0.5941418313638541 -0.3741068228210073 0.127430043320916
P 4.798921133164293 5.578160611282954 4.077006350934594 -1.1650092655808002 0.06138637352728138 -0.20243400763163202
Ni 8.141432510663346 3.458764581420392 9.456528802372148 -0.6829158528754691 -0.04018634241089853 0.41521362016364616
Ni 8.778748519975647 -0.07843104910807794 2.1975591589073753 0.10249985573813959 -0.4553128021773772 -0.5967561290582497
Ni 0.8168975434814089 6.4806711302741835 1.4865456639576693 -0.18415063594141187 0.7024148421403451 0.8111023147464355
Ni 6.742277921458889 1.7833556681607563 5.5122355886573215 0.8337383069783963 1.365521630709687 -0.7642742986493032
Ni 0.26070939803162924 7.4795679779073705 8.061122312876254 -0.1274938066793159 -1.572994486316807 -0.17786994513902268
Ni 3.5882932708293973 3.4578746047396542 9.507044249594424 1.1066315969728555 0.8907080394952208 1.4830130747606523
Ni 7.803148666078849 5.2979940980687 0.8128639095877745 1.879916069540569 -0.12769538116716073 -0.41345909936638475
Ni 3.237429235039058 8.978001319966182 4.640110356840938 -0.8142403461547848 1.14570645148713 0.4568132979823035
Ni 0.008911818574926754 3.5948290370785627 13.18756598926046 -0.23326153453544987 0.8089760124320519 -0.39204206714318934
Ni 2.1935051297148074 6.823145281730485 13.185571885260181 -0.2690939708530269 1.908858977827164 -0.39864337450979087
Ni 7.589183439084873 8.029425237156362 9.125539985392571 0.10346684763709922 0.9411620823807146 1.2812305846700902
Ni 3.5734603261504385 2.328280973303994 1.296981558019622 -1.5333982120814236 1.8219101824497463 3.809618209365329
Ni 3.5479383907122055 0.6675900494020549 13.541350261034468 0.7190737908532647 -2.404249621862034 -3.0532760210789096
Ni 5.491378614320621 1.3099622387317957 3.3782986377141695 1.2223451231877915 -1.3923927440689183 0.5858585083091394
Ni 7.791653133952657 6.847304440376339 2.6249927092485827 1.983160773864533 0.5543344695589293 1.2091898167527564
Ni 1.733609679943699 9.216681941031473 1.1737355477411984 -1.0705633904953884 -2.0855405590850404 -0.6200194704615645
Ni 4.555892605189982 1.4529981783890775 11.583979121195382 -0.0028778357684273014 -0.7646998162224958 -1.957806354260144
Ni 5.137483095461521 7.993789087565164 3.826776428318649 0.29480885912062776 -0.7277211821156176 0.05977609161736802
Ni 1.926002243020215 2.097777012992979 12.532101872133453 -0.23542974583136228 -3.0654717918141525 -2.042080945239509
Ni 5.781779859363356 5.28411602420345 9.930446947219126 -0.04328760704404158 -1.0020810293532743 -0.3749653141665607
Ni 0.12730003947099158 9.158916892097354 6.410996153821903 -1.2013644071710663 -1.3940127961708442 0.5253673929026178
Ni 4.258380817291772 2.76677062978528 7.241235931042034 -0.32100891455476327 -0.5001808663346612 -0.637278000431696
Ni 5.903335841007421 5.494289579713867 2.116134636151275 -1.2945856658207575 1.4986793205429993 -0.3390603727398354
Ni 4.1272019627872325 5.662272678203072 11.873516347210568 0.3303957550863019 -1.2344329075902611 -0.42180027224222844
P 8.1111084093853 8.007324149584713 0.3170810772249686 -0.7790784535416712 1.1864401817610664 0.9751204416040303
P 7.950226583161148 1.6280547373720606 3.419899485184393 -0.4593748880618927 -0.2152144472257519 0.5418070265158798
P 1.4644288163822996 9.119915518182118 12.445765790570531 -0.1323681040524817 -0.9753814085749007 0.16148661868499287
P 5.991063438193036 5.621843633362485 13.440997973808972 -2.0170705392381003 0.19127619124259962 -0.6987543625696223
P 7.835642085516193 0.7883543226238804 8.046848384799883 -0.457921700555134 0.8948966236552717 0.38937943270936165
P 2.75623923906322 6.286480072655343 10.278600262369386 -0.10525067901039939 0.14561365620847827 0.16679440405115145
P 2.204945038298454 3.7795177395124453 13.402924585995216 1.7369318805351377 3.9517256521927626 2.034715248903057
P 2.361905404773108 1.569501688251872 3.220457565149202 0.5235285399216661 0.2697855976034128 -0.49812706912942595
