# total energy = -340864.9315379334 ev
CRYSTAL
PRIMVEC
9.29048747813120 0.00000000000000 0.00000000000000
0.00000000000000 9.29048747813120 0.00000000000000
0.00000000000000 0.00000000000000 13.59756752111049
PRIMCOORD
 96 1
Ni 4.579866583242863 3.35162697546086 12.276169593105985 -1.0337279668345938 0.46657860489918357 0.4530222063709876
Ni 3.35503658436873 8.78289241302249 11.317690438105137 -0.4083037804176904 -1.4534687854446324 -0.7851184890881641
Ni 0.737748320885609 2.825413764175478 11.880275907903622 -0.2776889116108895 -2.018591860978633 0.49109098821825103
Ni 5.037627482721206 2.824633363226538 0.8806545994165368 -0.38007229637582285 -0.8379474599637374 -0.10921969096047641
Ni 7.806973154910327 3.683306669247926 7.818982039036518 1.7329672394604347 -1.3087300756419398 -2.446405943515109
Ni 2.8315176144546887 1.7151354760207793 11.157742618376101 0.6495120806040426 1.4449890301083952 -0.33953602682467326
Ni 5.111746991895548 8.282850504989067 3.5224223683801634 1.5112263039700748 -0.3198904846796039 -1.6476775769529945
Ni 0.5785762568617709 1.4645245760486187 1.021422207727869 0.728953511860822 0.8910116867785687 0.5426794018185042
Ni 1.4978216832034 3.3015884098538146 5.610424127317075 -0.3806356250784606 1.404155798142117 -1.182416148203338
Ni 8.552423289922976 4.131154618577231 3.883777737299429 -0.28953912608125615 -0.2504017937601623 1.1958151952180631
Ni 3.989902046819058 7.199951283459686 9.035379991467103 0.045491042453263596 -0.10186633591919877 0.8638976041705961
Ni 1.2874014321016587 9.391753800995632 7.472379964247217 0.040060872576627785 -0.8740038393666625 0.09620219565488593
Ni 2.7404615465908466 5.990850079901692 10.615892587600705 -0.4093623035891918 2.7726933328599923 0.17812114191788037
Ni 0.8741856329790719 7.6375704060653815 5.662679403238611 0.29035827954844184 -1.3889814043945239 -0.33080790292305606
Ni 0.46814394829424233 9.157614935338602 13.045479558083732 2.0009345529081863 -0.9928834220144062 0.40061901017892293
Ni 3.4515182969252036 7.611566331588197 4.630732931285035 -2.590238596563765 -0.12607250085175709 0.25051569363020726
Ni 7.061504438922702 8.507485201946505 11.07013332137008 -0.6442168936433744 -0.4247994640798684 0.13342071368671216
Ni 7.185931937841225 8.396147999897705 1.4571562904223752 -0.748028526214402 -0.6588786094206072 1.5915856190554332
Ni 4.850517064725309 7.057574562715539 0.7904198106465792 0.31144286813288297 3.0796254576067157 -0.469260779717037
Ni 7.423749836543259 1.587781473543731 3.646377910534327 -1.119650892050659 -0.04440577980888481 0.4954955450438499
Ni 0.963005480504701 1.6580640113857845 9.420462336380396 1.302880815950014 0.845102325840964 0.9959466343207621
Ni 2.9498505535814883 6.675048030910025 2.3658003414921507 1.1583994735737664 0.2904364410845449 0.37826095419869693
Ni 4.649303686723565 6.401136588319508 12.069962578079771 0.860164362380409 0.026847202099831182 -0.22196667834792094
Ni 5.713826324002901 0.9352362134049129 2.1063040192870575 -0.8137631494080502 -0.2397630830993935 -0.8108650019246486
P 6.217092031194448 4.732955236059963 12.7850179542287 0.02572080180487183 0.356946766101953 0.0008320089829921155
P 2.888551917139734 3.2339072085082283 3.661811268348368 -0.3655278229027447 -2.4479732880022294 3.8438683887974503
P 2.1258214754005516 5.637635036118872 6.241637499136113 0.48299329881178105 -0.0028184432854015977 0.33124139091604893
P 6.338955355566452 3.07967582573018 2.560014266220901 0.27664427239645906 0.39423213281597264 -0.9005095989666749
P 1.8958075861879196 8.337255599715183 9.523668503780238 -0.17771593605966168 -0.6821846311363993 0.2288901449406316
P 5.9103015533860805 6.400895035644835 2.8660949507852314 0.7909682630007215 0.6068613358130516 0.267482660501849
P 0.16639263089903233 6.533637520864566 3.321776639163898 -0.7882086979777135 0.47241835150941214 0.6239321752524094
P 2.4920432016657084 0.7450032625645066 13.07153194309585 -0.3021665850372796 -0.046517941055881175 0.49159029645217267
Ni 4.558377685684546 3.2341487611829 5.181896675766533 -0.9840395984705311 -0.34255424482570684 0.7255719969830988
Ni 7.419987189110868 7.647947880588789 3.9838836690247312 1.118635306301951 -1.3535315482273462 -0.36484108124836523
Ni 5.055483799671957 2.876613640718447 7.618445008523856 0.6830449222541657 -0.5317025910920263 -1.0649663560235854
Ni 3.0699486853308904 7.696119058210871 6.9971854649988 0.058494396691467006 -1.128310881718502 -0.04893374958622541
Ni 6.600909940760707 2.465630345739078 11.84224436832527 0.1649648070415804 -2.150604381463909 1.0700838797558088
Ni 0.05831267376330913 7.5194790196132555 1.2918339236818894 -0.8762155023060008 2.1907220754204015 0.12469927465331428
Ni 3.3546742553567217 4.190985357995979 2.0448697417279873 -1.5819897478368818 0.3452094230603668 -0.19240773374388154
Ni 7.271367260775201 0.8025169544039008 6.862936991757365 -0.790816825024522 0.2504557869265493 0.05391757595406198
Ni 1.6143987201950838 5.094847595155999 3.9662475366274315 0.7602245540599617 0.486936085509613 0.543621196906483
Ni 8.812529068107242 0.12825146356832953 5.085463273744994 -0.033681708523161345 0.21369158282332232 -0.6130003588312539
Ni 9.028170573176894 4.643943075443345 12.949588720531455 -0.9698005720530136 1.7516797282682735 1.2780020504304637
Ni 1.278872764588241 3.8757033746241443 7.982098844047499 0.7013506625418888 0.8603870199141762 0.7544711965159523
Ni 6.477402200103437 4.7328902026475514 8.911287879146874 -3.1516780525985917 2.4039814558023114 1.7942402273383036
Ni 1.403281682531789 8.417701930868434 3.205354753313254 0.17489260767825363 0.9342604701648748 0.3660775247586276
Ni 0.07692709449303001 8.64944385075372 10.957150773987262 1.4428434445203022 -0.8878356030434323 -1.46379742106415
Ni 7.345700451161752 6.69477173584574 13.249347228360621 -0.1738950196516747 -0.18645742969771759 0.3776716573541302
Ni 8.26423236806435 5.278306851569354 1.9073714559634654 -2.098070059010619 -0.04983106458951418 -0.6361145762512141
Ni 3.853443366604374 4.892380001343458 7.854920431783962 -0.9668831412959026 0.46984956234097147 -0.186280280689905
Ni 2.8658366752330826 1.6508824645580373 2.0963102418968793 0.8253680806368301 -1.380837435131151 0.5373554185024294
Ni 5.215716837366854 0.6093593581024662 10.445719657343055 0.1971295646995831 -1.5406178697583146 0.6889975402931747
Ni 7.997223757676959 3.4767048085034995 10.56951168691744 1.3990781265088936 0.9471998039343623 -1.6726468453038226
Ni 8.263368352728024 7.293710883182357 9.229430403616075 1.2114063647881008 -1.3483299494217487 -0.9785034991436501
Ni 1.601141194550588 6.2787344156732345 8.553441527351593 -0.18901824844635837 0.5142052056382111 -0.5360557258543994
Ni 2.640932554138511 2.1765103751317145 7.08280938482877 1.7201785723361989 -1.6798708738560877 0.28419200283672996
P 2.430958246436164 4.404750184593178 11.917057876914923 1.9131709749389567 -2.0874339194530114 0.833065706391404
P 6.405512407926065 9.276718984926855 4.97347387947458 -1.2012456222050152 0.5240108788747234 0.4147464507192406
P 6.116819799743121 8.622835894589853 13.060571955006985 0.5619608757559353 -1.680285078575371 0.5971873030583973
P 8.72570017205016 2.295512229357605 5.152770997493587 0.2777027955679604 1.9473733318522786 2.6470319514037253
P 8.418751755954508 1.3444728967366537 10.866836087024915 -0.04893606357907056 -0.052974752424818444 0.40204905775723015
P 9.027195071990718 5.082621313622602 9.003140141788386 -0.961745305848705 0.5253576227106048 0.16907600099647654
P 3.63213466416742 8.67556870156824 1.9277817279244975 -0.3186411856535351 1.1254348457222876 0.26207665899492927
P 2.9479924560840116 2.775644622705567 9.133241341415452 0.841287580080564 0.7071562134800725 -0.08292347626810881
Ni 0.05079481128851867 2.140593350505491 7.2227826564599305 -0.3147112544715096 -1.5277672390478914 -1.1531341114097688
Ni 4.5876055593198535 0.3323151631312031 6.479404300156967 0.7514709762370477 0.5349421810752465 -0.05763204869117171
Ni 0.7735668663444661 2.345773766664348 3.5786075205088617 1.2272122214721057 -1.0740276948949052 -2.4504356334997928
Ni 7.811627689141506 0.6939390271388538 0.0072567997763949834 -1.5829464553231964 1.8273200406114078 -0.8516167299207139
Ni 8.604617248627095 0.2771120155299211 8.859508276184693 -1.5435859512477028 -0.081944143073975 -0.3136450179905244
Ni 4.453906153888923 1.208627388696137 4.142200079150982 -0.48170877567240267 -0.31876125617116713 0.037101532837987714
Ni 6.132966666996193 4.55726282718606 4.1286703422231055 0.4684246569689868 0.8203906820268967 -1.2312480821043763
Ni 7.739422020389564 5.890447781625543 10.991471692863154 -0.5180379491207401 -0.20421886744619666 0.5000985910335
Ni 7.374445219447717 3.236945197916602 0.2288934564216538 0.6835470587015647 -0.11524892787369183 2.155565582123926
Ni 1.186701838225913 5.654813147483043 1.4854253857489845 0.6816531841129615 -2.3907855259373276 -0.714323677762789
Ni 2.7547596068339293 7.686150365136909 13.282511481544333 -1.0974381033990455 0.29492121632877594 0.9246316888258592
Ni 5.171187530839826 5.050587712766105 1.4533899267949901 3.1333627992291713 -1.0574800749488693 -0.6317966656021506
Ni 4.325037801951431 5.622983937351269 5.36235045947772 -1.5431617192260907 -1.6533237194951782 0.17373406859377818
Ni 7.329051897584363 6.432714955289122 6.969922529467074 0.3004046080408504 -1.4512021008976428 0.17163347731100764
Ni 5.560932771423038 2.641759407524888 9.857053931069988 0.4428653204426437 1.0067401253918402 -0.7277108977029726
Ni 5.493493122752123 7.322297713181035 5.982208997489677 0.6051093861189514 1.9799178414472027 0.26417416495390633
Ni 2.5938576540399407 2.9052655041295363 0.17254200456693122 -0.8282006649896188 -0.3238119312211971 -1.5263454189997003
Ni -0.07305853550328367 5.226791098451814 6.258674395090476 0.8330093992321719 -0.31012106399766587 -0.11497381983543424
Ni 3.4924614752821013 0.3236666483291981 8.746838818230202 -0.35987859503676733 0.9115967100187721 0.13125121683921911
Ni 0.7017644047494767 4.934661009898538 10.988847130147969 -1.431888231060379 1.0784911299828974 -2.552139475699198
Ni 6.215001671509786 7.9561969649326745 8.440622492548556 -0.6509313295490725 0.9315353579242279 0.13607383503884307
Ni 4.263293222110282 4.430085343971272 10.355471861890615 0.15249624226092448 0.27651134636302055 -1.8539731244225621
Ni 4.876075195803101 0.9412936112466868 12.868710381710041 -1.2361270074632325 0.6753210712473466 0.08033694648785518
Ni 2.979357141841417 5.292205420850479 0.14469469737224896 1.2911586424170793 1.1839840069110898 -1.1385150759450136
P 5.762489897461814 6.413808813252298 10.094439822103858 -0.3488220801122896 0.6008153867292879 0.09570777251697066
P 0.4042476915510159 3.581120597374199 1.1044921725475567 -0.3840186826180806 0.38197337005327764 0.3203458270494677
P 6.135633036905072 4.565949432986763 6.291893462150363 -0.2968891386884242 0.08237865950823232 1.4457788729995424
P 8.937337477012747 0.48386531122039206 2.6891093060530853 0.4331123548209379 -1.964810039271487 -1.1587182903657658
P 0.32334984270587835 6.934289793757965 12.852012588548968 0.1502400992368961 -0.4577772045574696 -0.9539906016039505
P 2.5235658257103997 0.022931710265107846 5.611090255269921 -0.039815332224724984 0.8863338216869252 -0.18144789229826816
P 5.715610097600479 0.8324081688458073 8.373776506028086 -0.167709202555937 0.5871679711491823 0.08943042414869115
P 8.503388096964567 8.224069590656393 7.034062196982471 0.48685560998066485 0.2424856242368792 0.39139337781559685
