# total energy = -340895.7993455176 ev
CRYSTAL
PRIMVEC
9.03366025814564 0.00000000000000 0.00000000000000

0.00000000000000 9.03366025814564 0.00000000000000

0.00000000000000 0.00000000000000 13.22167492417558

PRIMCOORD
 96 1
Ni 6.429834207791995 2.0307487738115793 11.63389736960337 0.1112187236683762 -0.43956916618987524 -1.5106820014308304
Ni 4.3809910123487965 0.32545026034415553 5.992975428119782 0.3319476729544541 -0.18691508606042648 -0.7316711679023012
Ni 2.5584952100168503 1.6369624865704981 4.610252664280996 0.3713534284455862 -0.3084431620746107 1.1034699114154223
Ni 3.4461968755448735 4.403457725577871 4.904131185154187 0.040886196691400555 -1.012214004022218 0.41728310109816524
Ni 5.206080378162018 4.597247806876664 2.701280341752846 0.14331380443070801 -0.12457149082619837 -0.2904400406289708
Ni 7.359813403642523 6.098678287586366 2.3948685205443048 -0.2532822006317509 0.28044410575852347 0.43506202234814106
Ni 5.223750217758347 4.5313653221240955 11.59431187005781 -0.57054373232894 -0.5663818876417664 -0.3848568622486598
Ni 5.795093098693618 7.861579032752169 12.376968326590934 -0.6479812457818132 0.7848837473695387 0.487947814603579
Ni 1.8612863397688768 6.384584603222461 0.4489918888551521 0.7339404235524521 0.5940184184121126 -0.3282493981672605
Ni 2.702898270317111 1.5467162199205382 0.3874681452095514 0.21808251280216634 -0.590768286905931 0.00771948013144477
Ni 0.4659254851349669 0.07514017985395757 4.939921643997077 0.3028121890410785 0.3206420181336478 -0.5700467380878634
Ni 8.562356198828644 2.6140251200366 1.677988854937945 0.9218543831910382 -0.6316056326372671 -0.8036589710945127
Ni 6.79378231497854 0.7910315630207277 4.770763644307338 -0.3099608842707178 -0.84887747661268 -0.030475799991353966
Ni 0.7741991437365565 7.533521658038126 2.492656086833843 1.3253514862487046 -1.1521635199663833 -0.2389806964074142
Ni 7.672341916257338 4.040394917103208 3.7586711861977373 0.4911691497543541 -0.4422773091496577 0.20437956139377705
Ni 7.586910590560774 3.8466680714266923 12.60510890127676 0.8353298198352325 0.06949923244240289 0.43252999995490665
Ni 7.923947423638187 9.000416455324125 6.842904649729539 -0.7593169546440277 -0.06559166985788059 0.3567130528245921
Ni 7.0251524232306695 0.9599257798289673 0.5739355414486387 -0.3520729829494194 -0.6077974744740758 -0.5736257136883733
Ni 1.757435380668983 6.38342829470082 9.169152583076672 0.8460780594906718 0.6517828789160903 0.3364509601414463
Ni 0.24868402163164013 4.919948221017791 1.5670067243772425 0.2633627247962045 -0.25321355217734454 -0.1371686107649186
Ni 6.232891379039665 1.8731114011347225 6.9300487574237835 0.110496500790371 0.6840162850284993 0.3481566786141488
Ni 3.4114172832923866 4.008144749741811 0.21565063592003772 -0.9918292697182791 0.6651438736040287 -0.5735187557968638
Ni 5.98183692493866 5.567219016987389 4.74705751288163 -0.38989262490035437 1.1302775185265697 0.33124679023268755
Ni 5.301837177610425 2.7372623141946337 9.225753885211004 -0.4719439829761549 0.7365552354674799 0.16282564921139056
P 0.12060749563733224 5.445996329081901 12.587934106266259 0.5529111068488414 0.5840811046937424 -0.9027405451797227
P 4.006446421600651 5.939613596578109 12.817052122999286 -0.4687177627293734 1.3514507544389176 -0.9309925980468806
P 2.457652459805288 8.478984547686252 1.3473017817032005 0.4591386036813705 0.06516435251247486 0.7778674639527055
P 6.243189751810531 7.91388392603578 5.83695959747132 0.2553820205835731 -0.6115553988546113 -0.6470546202024855
P 4.793043360767678 0.9987976202088249 12.58415261605408 -0.7113147157331363 -0.8348508233162847 0.13217244310190784
P 4.098038703639083 6.269965521014783 8.34011370096922 -0.9695468041709947 -1.5473122510593544 -0.22712071174503468
P 4.5723871736613795 1.1444744266149565 3.8188958894885574 0.034660784606979016 -0.702386560005571 -0.5436613061157992
P 0.2680774836180399 5.784126235058679 3.6001168969978607 -0.5241769721389424 -1.466694540106287 0.5055225902625488
Ni 1.2282887271132876 0.9407292516376596 2.589874532522886 1.2259063581764886 0.7220837813241823 -0.4891068679086866
Ni 1.8959394607768094 6.437530886389169 4.832482515015966 0.3432299307364927 0.13275711196078427 0.037152697790897304
Ni 6.146412148745364 5.513775882502787 9.257010349936618 -0.5830920013075959 0.9767096404680212 0.1609759975971615
Ni 8.82931892876254 2.2986148697780067 10.269169657132624 -0.8082453049136145 0.5404492269364047 -0.44915938098147157
Ni 2.2315489755228213 5.364431410004576 7.080524244194726 0.7972492109134269 -0.5229402715183639 -0.45696910683387754
Ni 0.5895122819475902 -0.03460524260820833 9.129275296302607 0.21385921874943814 -0.1344686953352523 0.578273753983346
Ni 1.3293663524933077 0.920891333563254 11.404395422306516 1.5371170556939076 -0.13561515023486967 -0.22303728570428039
Ni 4.200110031654889 6.821777628326711 1.6865039831605926 0.06875592651847513 1.439172423426618 -0.9839323834687055
Ni 5.552846463409803 7.857260943116665 8.007681324559623 0.3438729636371304 -0.07148592385512849 -0.07146124126478015
Ni 5.370610433667095 2.847635576049409 4.846748471401713 -0.7950509177105276 1.1455742967846398 0.5555889107913206
Ni 0.5758253831886958 7.452200647789583 6.776571385326737 0.8088489999358845 -0.8897983831967577 0.4918900870807787
Ni 5.270905924656525 4.592432865923267 7.226968008362476 -0.8759131405742335 -0.07217780771583053 -0.16697798081686727
Ni 8.068973806500896 7.343345040869462 8.853418927778431 -0.473631655091223 -0.5671817578352425 0.385983005433303
Ni 4.607690718212735 0.20696025468707863 10.467970709813873 -0.5616166050426392 -0.09798088482186351 -0.4338196653006077
Ni 8.024970847056256 7.311618825806932 4.438225574071935 -0.599600026264948 -0.008648676813933493 1.165233465776464
Ni 7.311862734635716 6.192276042217021 6.848324845924732 -0.3225973420878057 -0.4108545718640021 -0.09981433848617648
Ni 2.7958004331027153 5.105418301156963 2.431677976271892 -1.923013414950675 -0.34689323852069287 0.15602302446726035
Ni 2.192948144952723 5.1964143616139244 11.428498131420506 0.7974811244185749 0.5046563856075116 0.16238959011523646
Ni 1.1306438926568894 3.4613282565897867 3.79873275964244 -0.3567655033290823 0.27841987623964304 -0.5784786709053006
Ni 3.6490928864515904 2.8247533144453705 2.5465210932556364 0.08335490737857258 -1.2206870187590784 0.5661800560436056
Ni 1.0588624277118863 3.3313519518290637 8.067139070088823 -0.35028940868643543 0.4243189248990241 0.5280477679482584
Ni 3.7508932046576358 2.725103007396751 6.95376843933998 -0.7802071678294757 -0.15145983057661014 0.10279373282947457
Ni 4.153216300906146 6.748722417275837 6.15507271889925 0.16068006362329748 0.5306157857857506 -0.6491220442544756
Ni 0.4496152114175993 7.070429128781179 11.068922315831417 0.5918358089384969 0.9457985527114615 0.8758118391096789
P 0.1460616403359901 5.5456376024701965 7.9675800030094885 -0.3142386857104653 -0.10791254211327866 0.23184125714915554
P 8.429742065252928 1.584214943930947 8.1841240679357 -0.25426050538462014 0.8459957841895108 -0.4549248227103391
P 1.93546172470009 3.2838981341401507 10.322452895829466 -1.3519919716543685 0.0995410302201318 0.9676953527845528
P 3.9617659376316112 6.168345876015245 3.8625935112142016 0.7834308169730958 1.082330815443962 0.09837606337775315
P 6.941274887110061 3.841202706929873 10.412981012681575 0.2514515751809153 0.20520180018475626 -0.17630954263043827
P 6.364322103112765 7.7548373023481725 10.135352240001573 -0.2184848904469076 -0.24603683192324718 0.644164186028568
P 2.3691858242394166 8.456526868117505 5.92227890577985 -0.6259564047712897 -0.10247080227241706 -1.022406628284504
P 6.91370415579718 3.9737897395246136 1.5102057783497196 -0.47453822606589247 0.3765426859560096 0.4619665600484689
Ni 5.167380177328343 2.721534711568249 0.5565900102579892 1.4717426440531556 0.2376501505214488 0.4331200681304218
Ni 1.3092122563075157 1.0036848304448238 7.146315488978009 0.6565874993935854 0.6854648445495679 -1.171395114502486
Ni 6.570858679130586 0.7445082123453229 9.083938968593948 1.339598483086022 -0.47097519130498244 0.7337835862596137
Ni 2.5636624637229337 1.625941420973606 9.213841197340003 0.9662959013338649 -1.1618077279243668 -0.585331946381708
Ni 6.322414952863599 2.155937238599882 2.809962502394722 0.4999186138122101 -0.2478913686334827 -1.1690471830955997
Ni 4.269000725295789 6.76750339709218 10.554003677288103 -0.45952452626587953 -0.17996950798052877 -0.015649790722114983
Ni 8.059669136365814 7.199755009998479 0.24530452930393745 0.31508046488547026 0.3000202281182381 0.09600190671862177
Ni 7.538408868274124 3.7632151173413737 8.26580823132932 0.7294579623010664 -0.2434068504995679 -0.5958040495576254
Ni 3.183389629360626 8.295565108440929 12.464799895835935 0.3193564665530048 -0.1988203221384447 -0.23701508804061117
Ni 0.09366731381515904 4.7974156523651335 10.197931115173173 -0.590164334773345 -0.5953628482551488 -0.34199117323338524
Ni 8.5471073801995 2.5006436492934925 6.020383553546806 0.06948894802975776 -0.6098723547252336 -0.4934119230419438
Ni 3.815709717491816 2.4553759774033073 11.238714478475993 -0.4601585603054527 0.5979516920282475 0.38953806977441296
Ni 1.0748610401480305 3.307909603284855 12.489537671270796 -0.3202275563040485 -0.20226637170551617 0.40195778359500445
Ni 3.069186095527914 8.301238247125232 8.002788694127428 -0.361575523123216 -0.0916521143903583 0.8473309580611667
Ni 5.7319387793592975 7.680381873946874 3.390632637615887 -0.5555009790632047 0.5531463627880989 1.6878202106101512
Ni 3.0635761924658897 8.26818408399488 3.7361014892409545 0.6949987521819321 0.7391258244081336 -0.5188738147584742
Ni 3.3885440553486728 4.3574402598806845 9.233581551882894 1.0079135768746514 0.26467630140130544 -0.4297390674733309
Ni 7.269151588617597 6.146881899082281 11.390671485540288 -0.21400525740899917 -0.6851318866901813 -0.1873524307081612
Ni 0.6753383786003703 -0.18762370476072834 0.16657708293479478 -0.3404886205459297 0.2568660613282673 0.3992928351683317
Ni 4.785301513868878 0.41438754961297636 1.6658123841854442 -1.2492614879626616 0.0338431738016901 -0.06268786594752429
Ni 6.07459454915906 5.680455949165291 0.3839612782712616 -0.5065757141174114 -0.04822669621687178 -0.04177014195825064
Ni 7.914588551541153 8.936367803617596 11.227700639807361 0.2842169425373944 -0.11541142159348511 0.07625660577089448
Ni 0.16330689789702846 4.856938440248676 5.795589046645479 -0.5785434627049649 0.2583621862578196 -0.3944121100372627
Ni 8.056191177140565 8.852381863573084 2.494983157733646 -1.5836681639805692 0.4544211436010432 -0.226347581024436
P 8.511189546746024 1.5984790935846294 3.630169174802107 -0.700995078974683 1.275329645804623 1.2542550845225109
P 1.81638904795203 3.2895622391641273 1.499892951722333 -0.7188318500457879 -0.9464079041606861 0.4037570415872724
P 4.5279596321814495 0.9242247542232975 8.133908660285337 0.3003688697069085 1.2116986992175391 0.5188077374072291
P 8.588418308867196 1.6450205115806849 12.463213585082809 -0.2879496701069492 -0.021589810355633787 0.4897486152577436
P 6.337970915943802 7.973135704109562 1.3905766281256198 0.6630653938084451 -1.0543335589000875 -0.6124655693737064
P 1.7701818753880112 3.290086191462996 5.975667838302499 0.5743191402109722 -0.4450924100009496 -0.11891043588567908
P 6.880722261949432 4.036763385652429 5.945086188003189 1.1439241627757268 -0.5044008179532797 0.350466557694248
P 2.2765998395651983 8.244217783151804 10.29431665738022 0.6248477450881433 0.265737138565652 0.5907975974819696
