# total energy = -340891.54723494576 ev
CRYSTAL
PRIMVEC
9.08283676756329 0.00000000000000 0.00000000000000
0.00000000000000 9.08283676756329 0.00000000000000
0.00000000000000 0.00000000000000 13.29364971654313
PRIMCOORD
 96 1
Ni 6.488696838166079 2.3363599349484865 11.267710421852849 0.8589981099864497 -0.4699210390088553 0.951306369903568
Ni 4.5099281865884615 0.33167250038313445 5.916924089363659 -0.04346424183122192 -0.5769380658910579 -0.32277757641941185
Ni 2.6487277740749167 1.5409395882398127 4.778123465683967 0.6693239731236473 -0.046777622475171046 -1.149885008344852
Ni 3.6305370140031386 4.357727090945951 4.81534583902362 0.4874986428813024 0.03792788539402501 -0.7175982347490028
Ni 3.837743769084155 2.662034129933142 2.657479995580027 -0.77412548041177 -0.539531857328458 -0.11438657987339655
Ni 5.208116765746077 4.445249305997048 2.6147416154740246 0.6436209119305882 1.0193485581844701 -0.6720961365521457
Ni 5.455914718322253 4.696271665624193 11.351195315962663 -0.6733492922329565 0.003065012078568915 0.618274976966632
Ni 5.808310619064518 8.281403578647627 12.123596121178444 1.017586066967409 -0.3414072757054572 0.5076805171458161
Ni 1.9796769352539467 6.903192093858983 0.09818819026223281 1.24872695561543 0.0363397149712987 0.6250194947793171
Ni 2.9972543863560186 1.7935605271372976 0.14980595158803034 0.2560638771419461 -1.6770879117943116 1.036829231467737
Ni 7.876890360557583 8.851415165401644 6.691889887681397 -0.35409387003419013 0.4005927849266779 0.33166356605513203
Ni 8.797481280701206 2.749965072638587 0.9972536955605262 0.04167064026590888 -0.657206621034823 1.057636140910759
Ni 6.742153398045787 0.7221409279860973 4.637689185068302 0.6516280985057811 -0.7384380543124895 0.008846137536720249
Ni 0.8839571146262308 7.457136142378733 2.2855905105763803 0.15264099536890488 0.5946812488070919 -0.0244326791210676
Ni 7.697422588951665 4.204099989931603 3.7943396170434043 0.9425443074402219 -0.6368689379187354 -0.30566714199137035
Ni 8.012042971595392 4.206788509613538 12.351276498607602 -0.46487550616514783 -0.3040735722520053 0.30696220665371005
Ni 8.294419283729427 7.205877628995742 8.800662090135711 0.47284052664849524 1.2157433016005579 1.2935595385490883
Ni 6.967525826653391 0.9248598534223709 0.2658546320616037 0.19107770207854835 0.7928878486209376 -0.6290638400520199
Ni 2.226003468274469 6.253033555505663 9.50763195587608 -0.5836170205731304 1.3712672749442125 -1.0697655771844414
Ni 0.19911576409227497 5.139323360100891 1.2597013555522185 -0.033731073703858035 -0.6789882356862886 0.3830043824209533
Ni 6.485308940053371 1.8812643989236606 6.702445052284021 -0.28545312893734065 0.40282758779446753 1.3441940728765045
Ni 3.425482891235022 4.2492689371554615 0.37815119266826047 0.47573250348430973 0.8160851126730073 -0.3027016316051432
Ni 6.032402367688499 5.661868041929936 4.583184898219129 -0.5363886837137859 0.8839645501238002 0.8029223500388043
Ni 5.389900660726636 3.2228084716988885 9.314727035562544 -0.3449736529004769 -0.6935422222410635 -0.7212900817782933
P 0.7537946141061755 5.651186625896303 12.281364995756853 -0.7341365987236583 -1.2441807310056443 -1.012067965362657
P 4.278706411105296 6.403363586774935 12.4755587706071 -0.5309572282855695 -0.48931101349969275 0.4076394073608141
P 2.3148063633091907 8.856801287602277 1.125561480813517 1.1530649487347302 -0.8940167921534796 -0.9346754462151065
P 6.247384031038894 7.654706007653895 5.63573672056194 -0.06191576366819015 0.4646723890154062 -0.6767269504559377
P 4.958402334612846 1.248108930991227 12.401738923097108 0.21893380505886811 0.18502352546466844 0.9501537443563637
P 3.997247465484354 6.270917661092588 8.20994526869609 0.9174166591346586 0.40264761057317755 0.19323820006497686
P 4.791859439721095 1.0619834400378143 3.76474864315227 -0.41029612825737083 -0.12881689636611363 -0.7455042171306515
P 0.3523968090259415 5.81471401898264 3.478256897680787 0.41360513802594573 -1.044562852666569 -0.61793507712871
Ni 0.45986765846026034 -0.055692321897811044 4.683485756312504 0.9141243615366321 1.2919045194441687 0.1160498265084324
Ni 2.211888739944311 6.420157751950265 4.713290176867576 -1.1384801089420198 0.9217888200604254 -1.4146788091606282
Ni 6.299746584979282 5.890228723832664 9.183705298684682 -0.8436414250247212 -0.009679689181609136 -0.5830529205395443
Ni 8.797045304536569 2.5341023741221513 10.008535870832901 0.5701742648046632 -0.6122231143455973 1.190585828498324
Ni 2.4635559809816496 5.299381109543652 6.8776420740438375 -0.9903933086027008 -0.43730993784205335 0.5469484615075031
Ni 0.7471950249139665 0.1690715566466524 9.057840796521017 0.460641156368826 -1.099064840369191 0.43921435395361774
Ni 1.6527765573062467 1.0191306161885951 11.371055846829279 -0.880113037588194 0.7006865465953288 -0.03850381250215304
Ni 4.233873528841679 6.970868310582283 1.4593239419358852 -0.9460595196823319 0.12971189737655725 -0.493270255257757
Ni 5.694003118398469 8.05792946292355 7.674543831428605 -0.2443401609471147 -0.02736476516619803 1.6931272246453615
Ni 5.722441480304341 2.921185628463435 4.73816261706018 -0.6472770206259368 0.7745990776140789 -0.8392484381633483
Ni 0.7392811492421087 7.6563681667815775 6.756656871789414 1.1488655659414022 -1.1876645410864708 0.6240162503257833
Ni 5.098141778216118 4.656761325703866 7.278552130789883 0.7883447093349456 0.610572980336684 -0.7091832712124302
Ni 0.6504301151725418 7.372284281336043 10.925492747987528 0.041011923635987435 0.6881341638516149 0.5870818391932793
Ni 4.729996238526302 0.6206256946174701 10.123500060596935 -0.682060189743393 -0.5505644609935356 0.3832288397269335
Ni 8.22526256461371 7.165395425541742 4.742842094560629 -0.8479403095103913 0.08143300776551136 0.38142829618308505
Ni 7.346770592867952 6.138353658532318 7.012546723638009 -0.01341215964084787 -0.22051323373084605 -1.3616438929218355
Ni 2.435798831833025 5.125771767650058 2.3466080996685106 -0.16497046346853522 0.5339800742722932 0.8883197417687023
Ni 2.9042279722263658 4.87079837403088 11.388602979172285 -0.08376834076690734 2.787429353518587 0.6501844240807189
Ni 1.2309423695086021 3.37724394518517 3.7244017739660435 -1.0857835498792525 0.14820455686410605 -1.291305709517905
Ni 1.4145700803521086 1.0416651341983265 2.5011607417490382 -0.9783811146331729 1.7978238309245036 0.453097025472981
Ni 1.044399068064078 3.44803557491828 8.220234306181549 0.7622850361334162 0.3580914212293575 -1.078438679478407
Ni 4.017611185507659 2.7587118444416387 6.598223133559931 -1.1711560019084863 -0.6502397027986866 0.2230149171067772
Ni 4.095423848058795 6.806868609984254 5.927824401763289 1.4107439928825962 0.9724500938607188 0.6205540028087958
Ni 0.18718182486898352 0.020645287962966354 0.37998683397812216 0.6401080136813233 0.706115430920384 0.19033773858873027
P 0.3676550665045984 5.5719570408100925 7.821717576922632 0.38649388363145054 0.7188210514125104 0.6876479682438158
P 8.590129200231976 1.442109241418415 7.9699948870834 0.8483789397097068 1.6360749597170599 -2.144164025155204
P 1.89734101999469 3.3118656861629825 10.357800009459181 -1.014147730709821 -1.2258407950458758 -1.9326884761465943
P 4.046603600456091 6.1808159204007165 3.529756582128662 0.40080490093748394 0.29911725668799455 -0.061188398583862366
P 7.215260199372223 4.129012178409455 10.076905108001242 -0.550986893242935 0.6387221890773903 2.0823251374715364
P 6.5350828855162195 8.23574415823855 9.98895509133859 0.2235805598022601 -1.1129428839028639 -0.09797857082901835
P 2.424081972408376 8.5047051204732 5.63880762767161 0.19847476587356785 0.23353252880864941 0.2394524938375102
P 7.075402678891029 4.420044433978908 1.3822469891625757 0.5273934221937111 -0.912282423231887 0.15383758678016732
Ni 5.511637921865059 3.220038206486084 0.26859946533147105 0.412919939033463 -0.4359092008397848 -0.03172047103173247
Ni 1.580885904324778 1.2868199812763843 6.867977935727692 -0.8125161643748265 -0.6927408093856908 -0.33713050270697426
Ni 6.868786308199626 1.2754119383016873 9.07646515330415 -1.0591176105522921 -1.113384856536289 0.32855973031882774
Ni 2.696349087224865 1.7507894488189482 8.782781617683492 1.3426948626231585 0.07723131097933796 1.6913305377562546
Ni 6.764751495912861 2.2878485037957357 2.4246950638898985 -0.17100072882301517 -0.04795904437778192 0.29502380334491124
Ni 4.511099872530926 7.031487163140505 10.380372675383319 -0.4390552026679342 0.6493917529760944 -0.45313739179261314
Ni 8.55428832636402 6.980804934001326 0.02847106011822012 -1.1927391273959007 0.5452708166947642 0.24846575307971402
Ni 7.775716641851256 3.822557266015928 8.060484464905066 -0.050058607219287975 -0.21173034533189342 -0.32842011941716986
Ni 3.455174684614229 8.576314205515006 12.326921780110505 -0.4799948783050895 0.25835652983086477 0.12189934331067392
Ni 0.21079629216987053 4.979601675618374 10.189356076832873 0.07048139385001409 0.06584518062958337 -0.19934868383808896
Ni 8.7523486648244 2.596238060419843 5.953135542971559 -0.009122788236874612 0.23943681010822637 -0.45011248892336025
Ni 3.6016717587693914 2.694913999016265 11.425492920686402 1.8920545046753159 -0.6065474041170587 -0.9667414735117159
Ni 1.305903021316064 3.4596706888120594 12.511331523199331 -0.5541323808504521 -0.4495095652320388 0.22570017724842423
Ni 3.1727166269493243 8.376428216865204 8.111505483855515 0.0009464230736693378 0.20220492233996143 -0.4786041686051499
Ni 5.5631830204967505 7.996138924422865 3.2244016012671706 0.13762626712762752 -0.12623525168186647 1.4648562013459674
Ni 3.063504597707482 8.501099234278172 3.323545305956902 0.6355083101257829 -0.3083068936070626 0.1724104646863482
Ni 3.349568541567414 4.261303695866826 8.961674445722293 -0.07566268094063744 -0.7865955878543227 -0.02087427234584792
Ni 7.2839809423233035 6.330310330687766 11.350610381275105 0.4790433130250975 0.8272102760518915 -0.8760229266792202
Ni 8.028119592666423 8.951244624267003 2.8162597898901907 -0.0005684709089603113 0.2533310515918153 -1.4308968136813873
Ni 4.898728097078008 0.4713919617455273 1.435647711345008 -0.939947236137007 0.5270758909532923 -0.07761903333605988
Ni 6.156047024547214 6.124139018997764 0.29334928722776976 0.449590040760987 -0.4056815123034949 -0.3623378552105373
Ni 8.176569476725692 0.19562795477517025 11.108492834810692 -0.33174944090071895 -1.1005766490280273 -0.6109046526444898
Ni 0.33780977318409194 5.210087741323712 5.517302887154326 -0.6650834526797383 -1.4560758840501762 1.3063651749541887
Ni 7.487055006677022 6.488578761288156 2.5515968260119313 -0.4130101847544242 -0.7331418389105567 -1.0587448005939057
P 8.60177339696252 1.8628444059677012 3.7396627562957296 -0.4938724076181301 -0.29027574713696463 -0.3406876239306132
P 1.9512204076745479 3.0515243360166977 1.5096401327535027 -0.838030506595847 1.0453727501623737 0.44376083567371954
P 4.730713782630603 1.2210511602733753 7.974129394378052 0.24372823839472865 0.23401563909265505 0.3618837983922542
P 8.727161958479787 1.7445767884728551 12.359877036738764 -0.00022342886471574426 1.2263249337711462 0.16894461762493485
P 6.565355980448277 8.108702520430363 1.2206351663496162 0.6205666012142861 -0.5929025596401144 0.23551819178011052
P 1.860219466143109 3.4485987107976044 5.720150788872639 0.5108188056644816 -0.8895027063332099 2.029475854880989
P 6.947570834284435 4.193055260427438 6.135550695107165 -0.2684931040442344 -0.8335603866396354 -2.036725594464867
P 2.5345383502867893 8.49535888144377 10.216834382892866 -0.021709109542317452 -0.5193402128719314 0.05837046951909303
