# total energy = -340861.2262612092 ev
CRYSTAL
PRIMVEC
9.33107423978655 0.00000000000000 0.00000000000000

0.00000000000000 9.33107423978655 0.00000000000000

0.00000000000000 0.00000000000000 13.65697034936712

PRIMCOORD
 96 1
Ni 1.9604213905257932 1.2750726438036353 13.05476643127914 0.5936047279134615 -1.1115503744307116 -1.2738759440772318
Ni 6.603927884508854 2.828621869640493 6.320391060871404 -0.3374475197267608 -0.04284589152093266 -0.3687483867225714
Ni 5.59265404283165 5.728850403619645 7.5248265389583215 -0.2309799375901248 0.7829088830313549 0.33166562293766105
Ni 1.7870593607176164 5.205321147770698 10.66011229994064 1.7215800806694155 -2.586525666488552 0.41242937255028966
Ni 0.4480091389400974 7.905239509302887 1.7788340187037348 -0.3579147864421771 -1.2636205848978108 0.10707590514459624
Ni 8.318820716428558 9.533372012186772 2.8642488445051573 -0.41011666525671303 0.5982088023443761 -0.5742672039271143
Ni 7.725802950111798 6.477529151757814 1.1699394294299486 0.6910248551358485 1.556576964190732 1.0189973454926384
Ni 9.426157968239522 5.742343137087679 13.029801141933547 -0.9620674650748141 0.3197128214511591 4.76607938399696
Ni 3.9363323644242962 5.72223467192612 3.6532257033130393 1.2293891745187666 -2.3224929122085163 -2.1849962286802174
Ni 1.4526896435021468 3.493013023437888 7.424940187675282 0.7354236929661979 -0.27635425195986596 -0.36751245743294125
Ni 2.9574560127892893 8.09056397639047 0.2121205132149384 -0.06555438886204194 0.7034306849993692 0.16623596044452013
Ni 7.121438597420814 0.35567349299753787 6.031327441913677 -2.4462200527565483 -0.18551280639626114 -3.206854954881051
Ni 7.394139244449393 1.6660819821470252 12.677164913627465 0.6499615094366354 -0.32173885074225234 1.2480558976903344
Ni 8.700676270863134 2.2963587282271756 10.258173474245169 -0.39745526773896067 -0.7773231614134612 0.44937843897081314
Ni 1.6283471175932673 3.2856858831016007 0.7972432575487757 1.478427512272499 0.4612718479742895 0.4570141011392
Ni 0.7418819936028198 8.13376685049628 7.4199135379386085 -1.8398225439537925 -0.7389939268159595 -1.1730262223480055
Ni 8.0354639825255 8.75346215829652 0.3886887001597797 -0.9986959149311251 -0.1677446837795627 -0.37390010612683994
Ni 0.47018350395630665 0.06749819231516274 10.547605670638571 1.465782826925295 0.661119582935984 1.1856881340863903
Ni 7.768548601575884 1.9570715348445866 1.495711494766132 -0.9744843506819282 -0.5229454137246865 0.14601114875721305
Ni 2.7465177466908104 9.044479704217043 6.533166615503669 0.7370110920579759 0.773595318939913 0.11000387742466862
Ni 2.9873247816905204 1.8124118896475272 8.104401026500947 0.23574367752735528 0.5158458265654278 0.30461736057061733
Ni 4.698121271983345 7.730384507603365 2.916077363713217 -2.1116830218083633 1.7715060189655814 -0.27679802436550394
Ni 4.316788257710737 1.3417711630494962 12.534476924434413 0.8669520747262036 -1.618474473026477 -0.9117162663157717
Ni 2.048376097074686 6.1046687529685935 1.1533170536346804 0.07258892711132016 -1.020115518257482 0.8677576013466346
P 7.98613059259085 6.058881171275891 8.875787877106482 -0.8045064066964726 0.17724285307798507 -0.9973671688173726
P 2.7100425771703756 0.3229830072216636 11.125582678257455 -0.5253841050731662 -0.23277251071417332 -0.047350978480137806
P 1.5654556766703376 3.0771177098806324 9.85309474204071 0.13653046296028745 -0.17941569235958776 -0.5939209736022998
P 6.619949339117856 8.129371914491133 2.410960183714289 0.8707295394907649 0.10206585352451454 -2.2200660758001574
P 1.9746979342367847 5.0132316518004565 12.932208368718587 1.6071603335652387 -0.9648141745820158 -1.0638504972515872
P 3.3312495190106013 5.295767251163274 5.529994012551879 -0.31946599554767563 0.6365128401308974 2.4612124124003225
P 9.326623398458382 0.7460669804357477 13.090575362093062 -0.5199667907123368 0.3727793622588354 -0.29966001656534197
P 5.653063417985218 1.6333952288008795 0.6358847217470167 1.0225333836703552 1.1976432495657374 -0.25705837984473145
Ni 2.9364517644929222 3.016503051092004 11.97305230955339 0.37630665868580354 2.459799848323512 -1.2294647649517083
Ni 0.5243886477939017 3.1992241484440536 11.953932938269846 1.6492184390775533 0.40695112304453784 -0.14575403844108445
Ni 2.3923474897663706 8.379258084805087 8.973571937345021 0.15061728007065672 0.4659574263754169 0.6924518173903622
Ni 3.166724016584326 0.633219766920965 3.8069486209979977 -1.8655785698719742 -1.4672933500325505 0.4621043711779138
Ni 5.309082694219212 8.838384265691117 0.4020899890994698 0.7757218783646125 -1.2586331589855486 -0.16818537086140714
Ni 6.391524639741992 9.225950437610091 10.943440107513302 -0.7611378099028504 -0.18810679237568248 1.4024007631242235
Ni 7.713868506055356 7.818908409685832 4.160664454603008 -0.34532255159946335 1.608346897674172 2.0670504707006527
Ni 8.009682224176826 8.243705568145236 9.74936958678205 2.1090743805409224 0.15708000497686495 -2.6486720581103094
Ni 3.673802588405508 2.8166687634354073 4.180562970592348 0.875184489938325 1.0761036035873273 0.2771852325015936
Ni 6.140863990259402 2.185402923477241 10.950896569003142 -0.7428341264976562 2.0584617005903776 -2.049000812287794
Ni 1.2431697007004459 7.207713710591942 11.745500065626532 0.5003500449226738 1.8812707837962503 -0.4263842920684851
Ni 3.6451281970173537 0.9891965198339323 1.1987771146187192 -1.87471987005161 0.33727551292527075 -0.17826203837111881
Ni 6.8751915460920126 4.395579849276497 1.20709576737581 0.038428736289843494 -0.9144534627412767 0.3679731991194437
Ni 1.7049272445449712 4.021543735122841 4.849002877537585 2.7913525998323925 0.04301892676368721 1.0518215911115112
Ni 5.407600176899374 6.357531535990919 1.0701519875347107 -1.0715388670347805 -0.012030963022605085 -0.5180510617468627
Ni 4.103265284025366 3.8265149507415126 6.895991443860752 0.19997320479596528 -0.6392268966279507 0.15870314240258473
Ni 7.887715751728219 5.684098571176563 3.8528089850704035 0.4284020938294622 -1.9610767974813 -0.856939427685208
Ni 5.99947022107466 8.125742126580299 8.698780196561126 -0.6732235652883696 0.7855573763977954 -0.3358516359945506
Ni 4.015590509706101 7.984301702023953 10.636990830880858 0.8652245505121358 1.8345116732638407 -0.3038755973085863
Ni 4.695573888693736 3.5391831791777477 1.6561807791851082 2.6587656949008855 -1.242712373990234 0.40693518220493785
Ni 8.758930167848572 3.456080631275728 0.17539527090270293 -0.6851956500485813 0.6285334214698465 0.4107463284209119
Ni 2.9438606375037244 7.4607631151006855 4.7190163467101565 -1.0592158266930531 0.608761638159558 0.15330022621945857
Ni 6.989310585036736 2.3884377696259103 3.7739810023147924 -0.3032834722505422 0.20927005671685897 0.4383136965162193
Ni 6.1669163497633805 4.890425382662968 5.314937943355583 -0.8646501660659044 0.2758140631856798 0.32804730945878335
P 4.181441024685946 7.818535166712996 7.906129693793102 -2.0000032993431685 -0.6829413067967657 -1.0058584941178352
P 5.421195552184939 7.543585730773078 12.218317731863632 -0.36375041928734775 0.48521447483281605 1.8789627044883639
P 5.615281898059855 2.6898221391169645 8.353135742243701 0.9886678412711618 0.31715740201915704 -0.003734784452083891
P 7.703389709592974 3.868308832624866 11.905955353434027 -0.5480604636247594 -0.9978981016201783 -0.5336568866049196
P 8.681155663383791 3.490241694364578 6.722834697687635 -0.29636823318794764 -0.1467714239620053 -0.6416252216567981
P 3.017193550591752 4.242998121980985 2.2967067772993452 -3.5631620305164766 0.7169860550863006 1.3472261748346088
P 2.3317048377547804 8.272865175398078 2.5825334465751473 1.1595857805723837 -0.29163817470213 -0.17222046016272918
P 4.864764928280466 4.43655259661961 11.189934432311608 0.22433286458725232 1.581558059616102 1.1335132518550477
Ni 0.6020614435485842 8.989827601919476 4.478270896800964 1.4373001461045698 0.016259656391971997 -0.09665059604621419
Ni 8.753555469039728 5.668487683837681 11.101041019686031 -2.152010003562184 -1.7348145770818186 -3.403055580008462
Ni -0.2366985629762139 1.3212148063205327 6.055555576387919 1.914339027105129 1.3655511983960418 0.2526103713757069
Ni 6.75727475989868 5.761266555810484 12.729444123725225 -0.10759861041728566 -0.1739829513797907 -0.20614590926558046
Ni 0.6920130000021513 6.526759899874933 9.37661649534752 0.17244208925523205 2.0591772386001637 -2.3424873530525723
Ni 7.811630171715523 1.984140981449545 8.202553664175161 -0.6304766612391465 -0.5990289842528264 -0.34022199714810436
Ni -0.27105651173323464 4.136409260013237 8.797902332857284 -0.2880008350598588 0.543476958019135 0.9483352030903861
Ni 5.614964641532945 7.278023355599996 5.015221969953107 -0.5328816990017919 0.27994351197302114 0.7953396525955398
Ni 6.369512635418967 6.672529942916181 10.452212231641047 -0.6689331654431317 -0.9446127599334765 0.16839697265158096
Ni 1.2891998903254924 0.7880642797392969 1.5109939282889175 -0.9496217831122937 0.3385980883914362 1.3697973752669055
Ni 0.911852177895346 5.820658843863073 3.5726910670641336 1.1784263103176544 -0.14150811868053692 -1.562279413892148
Ni 0.9140412479310313 0.964926395525247 8.28699522124223 -1.4263701294556275 0.2540249923350464 0.4240155347259923
Ni 5.335554952067632 3.5460041945063323 13.046653995264542 0.8706004701120683 0.08884935483424053 0.024499527803261034
Ni 3.5270527825605655 6.351568979499858 12.061017280284036 0.40813871559473586 -1.7703443945573125 1.2223970594716496
Ni 4.1394791834648155 3.5390991995088594 9.548816806402742 -1.838351101614589 -0.44490111992574993 -1.017134324141971
Ni 3.944357088340278 6.050203272157445 9.463460804052223 1.5668325804804693 -0.4697279491614426 1.7274982459260637
Ni 5.192192326201178 1.0095289307791941 2.7828949399308756 2.4296552064193317 -0.0601851541303286 0.3352029466669582
Ni 4.39890171173474 0.9115227909718179 9.765977032858403 0.17906088012333032 -0.09324439857814264 0.25114972766978033
Ni 2.6560996365211977 5.6432377967253 7.855939711235794 -1.1314476275752707 0.12630287169500828 -2.210652752906057
Ni 0.42404040833197726 5.620600610422774 6.88781089100361 -0.9211028497369943 0.5568904032115635 -0.6476413459438911
Ni 7.540590455916066 7.25324002220366 7.024038977444297 0.45536550979218354 -2.472442476788187 -1.8033352476610363
Ni 9.046224615115054 3.5162847227942358 4.501228138952698 -2.812208103125163 -0.2547438727789419 0.047242477926731544
Ni 6.6664367513846265 4.436076711829244 9.602666436308711 -0.4589036048524291 -1.064183969331606 0.08734037438888184
Ni 4.995567928110975 1.0008696938093902 7.304184888673529 0.3533515925515269 -1.5882030757364456 -1.3786203728751742
P 7.74439978123337 -0.2414210196900262 7.790659515286711 2.2601423749957528 2.472478215122129 1.9419454759684878
P 9.65336962795367 1.9037351140262684 3.220846113860465 -0.4752213681758461 -0.4733840578567912 -0.15732991620414197
P 5.0274522090655225 0.6751386852002186 4.920142055052767 0.7157048743810319 0.10034295729613688 1.0975250066858968
P 9.200467273639687 4.967574705148246 1.6982583257278174 0.11172188855703985 0.4779878751773897 0.43394230692140107
P 0.07256403256398447 6.9842904670520864 5.0690715998590745 0.5916846280726134 -0.10608243088307535 2.6788056442708963
P 2.2795348012265757 1.9501292155498302 6.021617525975339 0.038614112827772204 -0.3270101264435207 -1.0053429879339975
P 6.202570384743576 4.4670372164260215 3.2612160738024474 -0.687028846602578 -0.9635769597408049 -0.5765937951777619
P 8.201743726924105 7.639975728508073 11.64834398668979 0.8109362214822163 0.570066021361573 3.7409962373215575
