# total energy = -381171.64531314856 ev
CRYSTAL
PRIMVEC
9.20460785306153 0.00000000000000 0.00000000000000

0.00000000000000 9.20460785306153 0.00000000000000

0.00000000000000 0.00000000000000 13.47187400897260

PRIMCOORD
 96 1
Ni 1.868167208711687 1.0623590193174421 6.949398844711312 -0.457171966873303 -0.8095488542163863 1.922400978177657
Ni 4.559428860355067 6.984990301874918 13.349441840647609 -1.5231022294720542 0.45214134642793097 -0.4164521205564376
Ni 5.084772648638526 4.934424584058822 12.529987820119569 0.7586564382418934 -1.4083898908281227 -0.9733834043082655
Ni 3.0815738428052364 5.573113913375369 2.0812971420362656 0.07009084327981477 -0.446828675965766 0.24203902361776378
Ni 1.347526975038258 3.9429410451664886 1.3209431471141337 0.3640805489332568 0.39586066955833116 -0.7219189736115438
Ni 2.365611830609626 6.765994271969181 9.056507548073302 -1.6481573448028906 0.04499224843997413 -0.7129982740831463
Ni 6.654121468191678 8.464419307366656 9.34104682907814 -0.6976148496485405 -0.43782750090842015 0.20010998748414568
Ni 9.09086650824614 2.625227794946013 8.309909839579134 0.2597025023357979 -0.5262168853871066 0.5037469864193648
Ni 5.44384440076625 -0.022418742873168036 4.121665995278993 -1.554313364967536 1.3640967253377023 -2.3702529532016148
Ni 3.3968868892263417 3.9350342870255575 5.610739588873255 -1.5127774505072786 -0.07008544396317606 -0.45197062517802167
Ni 7.479756382889259 5.532144203846518 3.2597216640057085 -0.9749677180762499 -0.5216086971911339 -0.2769882859994391
Ni 5.332164893753543 4.890629059920814 4.213086160419535 -1.0334754845041556 -0.25582939253363685 -0.29630112739543807
Ni 6.261388465165951 8.585772857226997 0.2667430921926418 0.6991176594463121 0.416676834972734 0.5548155229604057
Ni 6.1349447671659885 1.8795625132267886 10.121500005695891 0.8745440281408486 0.2844087468332263 -0.601759495810112
Ni 6.804754875614652 3.0293929209182315 3.0365872424117724 0.019526757179017983 1.0693331176327132 0.8646936177093301
Ni 5.383940812895263 4.387385535079002 6.725401951362072 0.5244636501414257 -0.9421262460661969 0.6763829368529578
Ni 7.761665907432088 7.331184807624106 7.118093533652487 -1.3665539286289434 -1.623177020708469 0.6239913106251189
Ni 6.991930576191869 4.29019408081813 9.294542388850637 -1.4708445577189184 -1.159040706702191 1.0069026191116337
Ni 8.68567046619501 8.633369884405989 0.5005594611935048 0.8729609999244451 -0.019807007423598148 1.266824436547089
Ni 4.105144644653665 8.256385965407192 1.8736954961848453 -0.018201867720007363 1.3561453317011096 -1.3479532828086205
Ni 0.7947479326047889 0.23404004097155515 12.02517030733585 -0.4025190554151132 0.03432628408569572 -0.2638139534010101
Ni 7.538951215955995 1.3782887744643244 1.2805524074188845 0.47962309678796755 0.35876350759571757 -0.7164006148964759
Ni 3.006767994829281 0.45955477415483303 3.5481011074044875 0.47236512967397354 -1.0806002059061002 -1.7067023922266347
Ni 8.467668533936795 4.98794937869155 7.924573659419592 1.1003156820571567 0.9223135822156439 -1.3424534360363138
P 4.751657890640517 6.256961048791344 5.931706105434244 1.040080391415183 -1.6019631056350152 -0.8604764943041889
Ni 1.637122347133681 7.4431220436565395 13.18253836839354 0.3755669523063016 -0.8519622861855909 -0.12211248776274454
P 6.83925374582677 3.70855491093987 11.563528848582006 -1.6477228283686334 0.3147984148686772 0.11034429148322286
Ni 5.253640384207232 1.3694063278915671 2.1400206991812145 -0.24935201233940926 -0.7888165067650414 -0.9563333908045142
P 3.0813069091776617 5.2603137248966085 13.362846511055801 -0.6019584991947956 0.9366343697136902 0.18086142366717883
P 0.4034462460993352 2.0764858935144206 0.9049547023619087 -1.0085681797395145 -0.5568790903576538 0.725036693304919
P 7.656107464637914 3.347034733124733 5.303822985730562 -0.7584965156252614 -0.06520908970748125 -1.788950439694274
Ni 3.603419880106677 8.547941918974116 8.112479285399111 -0.1976036761225242 1.2722576917475186 1.2811272263230065
Ni 8.676585518249611 5.196728293886656 10.899500154322306 -1.1831975064540525 0.7707460224165759 -0.7646257684514508
Ni 1.628065013011823 8.876399145401331 9.819298923153431 1.1774513479988948 -0.009239002099764733 -0.024954098842176378
Ni 8.72283867268288 0.403361563707139 9.909991003813241 -0.9801140381638797 1.1550485548236622 -0.11275084404218647
Ni 8.409955642733493 3.771137039694456 13.293896634592372 -0.914482001986367 -0.531802092784368 -0.17874206333133089
Ni 1.5990612936846131 4.474157373256599 9.884260443036574 -0.8088903946967811 -0.7510683414819904 -2.969545989749105
Ni 1.7548032584629032 5.923717426283471 4.568419921300424 2.34015510537497 -0.008962351399610371 0.9892139435826189
Ni 1.5821984521081458 7.334203918998059 2.318145508862068 -0.015600168431102165 1.4606881860112069 -0.0902608904697865
Ni 9.010961307522717 7.269007681614807 9.230739729095484 0.06294034827796258 -0.4780390401302993 0.3232144068465143
Ni 8.440294030198578 7.846062956785052 2.9027715739868136 0.656558703038179 0.2961851706428641 -0.7127913002786627
Ni 4.6731609949177475 2.3406857525588216 4.206754310681298 -0.5974876079076356 1.144746658677022 -0.6017471545149378
Ni 8.727772342489095 6.730482894893846 4.8310945768245075 2.1249535136650244 -1.1486292815608798 1.1102905338816813
Ni 7.02638342336475 2.7444642850014485 7.2213554267887305 -0.294045498592042 0.6457248456474686 1.3494494077381727
Ni 3.192323684425354 5.658587901846481 10.973367132297824 0.978672934841979 0.8759537640041817 2.137751950981273
Ni 8.966677939168795 1.613484914181515 5.852505057211148 -1.2166123344690725 0.2004105494437 -0.2500251271470339
Ni 5.409722919475876 8.309533371118176 6.705436236480241 1.0462086158001078 -0.401081037417006 -0.1795229073614134
Ni 0.6717854172927191 0.6886031562907341 2.629979213516849 0.41131479932987225 -0.24807828783330824 0.13948131805849526
Ni 1.758954536602088 1.9266624915820199 4.895867402246778 0.9264427738926689 1.1493247649660077 -1.8375247490585516
Ni 2.9323211265593754 2.1936881652355775 2.0559964364460717 -0.16194041839295983 1.0358380711990613 2.37637320716674
Ni 0.017640630939574044 3.0344094321950736 3.334208112089358 0.5553701099122951 -0.648296977250019 0.4622097864075265
Ni 6.183462255129721 7.312582295164478 4.654922984928875 0.8242529931957804 -2.6666157870729235 -0.8250708611113854
Ni 4.869458461871756 3.877781626214626 1.934318884389501 -0.7976346192773037 -0.18994076026062773 0.592705870248276
Ni 8.544269280442995 7.737605062518941 11.927215791084427 -0.36190282455564765 -1.3107285941292073 -1.5091807342949557
Ni 1.2807843635366396 5.8069753849546855 6.94832098513238 1.0845105967041 1.9489057093364053 1.4105388188503254
Ni 3.1904827628558703 3.112897123309996 11.309382262228555 1.2361352349933483 1.4783550071633507 0.5126435175780462
P 0.3391879582557347 8.198912394007923 6.6742086838970955 2.293499867410276 1.0348397118415338 -0.4428365240872373
Ni 8.936855009743164 5.810114156230654 0.8033413544911372 0.18340090225958094 1.2775947876897158 0.07854797290823246
P 5.537639354731426 0.8030735004027773 8.10626893648446 -0.6794741741837718 0.9737857819530069 0.10146447249508976
Ni 6.011630635834147 1.286647698735444 5.739867350521525 1.5021104577117357 1.104463899897575 1.4969895915454023
P 6.446787676428618 8.57824348800781 11.497961665502503 -0.8523101564433128 -0.6214194361328846 0.3169249742933768
P 1.2842268868715736 6.728660382540059 11.038085650533796 -0.9214702603787421 1.507707492183539 -0.9799273760743703
P 2.2111308971064316 3.8686966782692256 3.6696709655492437 -0.23477668562839565 -0.14751215878277177 -0.4970819156943632
Ni 3.77931993607081 0.640811911886162 5.597079030366904 -0.7549738471839836 -0.37848926815941913 2.0846291030143647
Ni 3.470965573182351 3.1843893124608806 0.1321109750516172 0.10974625288790776 -0.3444931137196325 -0.526201458768139
Ni 3.7952991352939254 2.7430927984321833 7.952217858167739 1.4891662388462419 -3.261641563703628 -0.23813583190861565
Ni 6.91739166184349 6.4265007207329115 13.104455680023904 0.15033060206817336 -0.6904052192739787 2.0084205768725867
Ni 4.545695585446722 6.485916464387985 9.321311229392494 2.078157379247092 0.7766988975659012 -0.3361216018264856
Ni 3.8329827998212487 8.308014610823353 10.77251430492013 0.38746678906768106 -0.04057406476762044 0.8377494850203184
Ni 7.880764328369813 8.716883291405601 5.242067430760675 0.05142874809393723 1.4992588471955535 0.4645955130308838
Ni 1.104442486395831 2.514045336757067 12.366573814700457 -0.6942929843641591 0.6843767536917116 0.6183492818479931
Ni 0.4377472172427334 5.347794317878457 2.9693227296452056 0.29559973045303933 0.05582430605847161 -0.6601446206172243
Ni 4.659473743048639 0.8089893018663119 13.121052508433582 -1.7401668425326675 0.23993586123183194 -0.90815400288581
Ni 1.251900304111446 4.831415817638382 12.077279433281644 1.1650678867328774 -0.11125934709832452 3.9437089525358724
Ni 5.882508396950586 2.767089211090399 0.06193412436212779 1.1918425837235604 0.4419464081728001 -0.5275785416213237
Ni 7.649268441007284 0.45127154755294274 7.502028772497652 0.5534692933451565 0.4644147644786453 0.6646407087153651
Ni 3.9083317196602017 7.152256435678173 3.780248681002614 -0.9133998246657816 -0.516240490900685 1.6322540433090726
Ni 7.043715699941436 5.535651159436385 5.726030984005288 1.5612183196174856 -1.8726449898004525 0.9851341170862904
Ni 6.658576498389828 6.304309551558455 10.904457756108926 -1.3764416200563006 0.6080931513376238 -1.4690967217898763
Ni 8.511123487584449 2.8367220694561057 10.699968188170716 1.3776014446923566 -0.6548509763184529 -0.7798690677637665
Ni 7.676477261804247 0.9734148936878548 3.586684062118504 -0.38866492314084033 0.21106700071628165 -0.0007265937533793938
Ni 5.583874099949 6.331720873728062 2.0484256464915713 -0.8069235007783975 -0.4738813092081839 -0.5203719965705554
Ni 7.497318774662129 1.1517173523001631 12.028133270601932 0.16399293004661433 -0.22509828199836715 1.3562710586456965
Ni 3.151620908524077 7.384415054805716 6.172799637399274 -1.8128164476785942 0.45800011920155315 0.545048673381629
Ni 2.0666921907647695 0.734142953615828 0.5581747835536247 0.6439698106295748 -1.3088995113402684 -0.4800830671435215
Ni 3.9505256420327597 1.249774039698693 9.756128619957396 -0.24836599427705613 -0.5613864913097042 0.19038478977658177
Ni 0.3500751684176592 4.244612862757722 5.762958029767554 -0.17665638444689574 -1.6208463156927633 -0.8461909309194523
Ni 1.7391830389458371 2.1258594100079637 9.991873354302292 -1.9852847621860714 -0.9583452790282204 -1.8623852597456572
P 1.7923580584803633 3.2844433997622997 7.686391544916701 -0.34611136604934584 0.9346343085645258 -0.2633825222905464
Ni 4.7695976713351325 4.163520267621982 10.172665659337325 1.2735453002106907 -0.339279430729177 -1.0968354368180402
P 2.6760280256559055 1.1669049552484005 11.819723460181509 2.2389690833522473 -2.2057383463235753 -0.06768737604464473
Ni 3.6046901159896207 4.825534073223883 7.995840335678215 -2.1261771016594806 2.6779679788609494 0.4366458218954931
P 6.776008885307169 4.638809398431189 1.3633128774965775 1.393048375375046 -0.20279756161863782 -1.0653972729134167
P 6.578478000901608 6.331104165002285 8.620490797105884 0.7162481484790116 -0.7888285909498995 0.24435327357323722
P 6.449337352802352 8.20508868587354 2.4278745594719062 -0.3572912939255653 1.5991027533680848 -0.08510865684488568
Ni 1.5655933395514061 8.305409706802532 4.763694756322583 -1.2850340175765804 0.9486409072562632 0.06801904835245061
