# total energy = -381176.47077832697 ev
CRYSTAL
PRIMVEC
9.15668738168859 0.00000000000000 0.00000000000000

0.00000000000000 9.15668738168859 0.00000000000000

0.00000000000000 0.00000000000000 13.40173755525346

PRIMCOORD
 96 1
Ni 8.688093682214129 8.196938140338354 1.2780189698129023 -0.25126645575330275 -0.2559831445026817 -0.27108169070701704
Ni 4.078745566054625 7.274008172734834 1.3358635938576766 -0.7927713776477314 0.275066643496694 -0.28439229177299413
Ni 0.8056227328951022 2.484392356713132 4.48997055448716 0.23142550976797563 -0.631219710052758 -0.13171761495267637
Ni 3.549049527977295 5.833926828445319 12.896893507154454 -0.15923201832286124 -0.6041038276725725 1.5707470850435272
Ni 2.6618123268726253 4.719970053581926 1.4329272246215947 -0.6867966759871139 1.2568796666295516 -0.7234819472232895
Ni 5.771176051427204 2.3980814236658894 2.166122393521674 0.34853385944790943 0.8619273678181028 -0.5159633259798985
Ni 9.08622643936394 0.4550076880257234 3.136114070385707 0.40568331207570774 -0.04864475759089686 0.40318342847198946
Ni 7.247600287003002 4.5662201196973236 1.0029859676606736 -0.21404536661831525 -1.0727670830149267 0.3663032676161885
Ni 1.3106698848415312 0.9099485322352739 1.2203712145417873 -0.3849514788449951 -1.4095147484611854 -1.2773086239078646
Ni 6.77438269524812 0.16908921619318898 2.255418406578826 -0.35027321073651935 -1.3644487093604825 0.7773553002029774
Ni 3.7321649575421967 1.1269318005506361 11.741623591221407 -0.2955629636778329 -0.24196394740545424 0.18451984635537255
Ni 6.6474893247655515 2.4167152820099527 13.25659656401719 -0.900079967628424 -0.7571973371978636 -0.8617551039062966
Ni 5.345664799707982 6.298738581399293 8.381767701737166 0.062269290352866956 -0.3752810456347666 0.6533641073602812
Ni 6.890223944344308 2.2427382262177162 9.344629066319861 -0.08949752994120069 0.3896051755669226 0.6241566325583896
Ni 4.208477509552751 0.4727853961215458 6.70798480973937 -0.08522024272208548 -0.47389107940019676 -0.6620102130710533
Ni 7.625780622859589 7.0480211339478664 8.538340642269175 0.10923974556513445 -0.31100346660261924 1.3571568036847594
Ni 6.204736031148604 0.5269490319332424 11.172398134730651 -1.7012069163297023 1.4224669377464791 -1.1075139995778087
Ni 1.121474415011048 4.01328440964101 6.320084650476286 0.30701414293756807 0.48693068619297436 -0.13015875510598876
Ni 2.5537725752256466 7.916084232166802 6.9890593940711625 -1.5348812243848533 2.259371558267999 -0.43562226572698526
Ni 0.2205433882781002 7.938307511872473 12.318501291160876 0.963766707154108 0.5692306699444712 -0.5624671259683925
Ni 5.371871238322582 2.2150484042853096 4.6142982212311505 0.5013525180452592 0.587915133727852 -0.12366260585868381
Ni 6.4325452506778165 4.722662119603132 3.8795216924607914 -1.7504782517610047 0.6092411488991378 -0.11804268856874509
Ni 3.5238411682617143 5.7654897487089425 3.612786480201138 1.3559730677893034 0.19722829506097647 -1.3652683770483003
Ni 5.394662232631364 4.473600229205825 6.071469606411751 0.6832614091403458 0.33002603045170903 0.40436125083017455
P 0.9323796687391813 0.9565350094328613 8.250323457742558 -1.4705789627623576 -0.28820138110643917 1.2809976427236778
Ni 2.148735675967027 4.8418180894465195 10.354933058348387 0.7474163465517 -0.6153945700950434 -0.2656926584809618
P 2.3209912745756345 8.858316496276112 12.858578265456716 0.6292854691445227 -0.6721323891067199 1.1314589404291804
Ni 7.64770173188941 6.30323451478845 2.644766238079845 -0.3040496609926054 0.6298703951137151 -2.5528115620655587
P 0.3041320382365521 5.252852618786398 1.2951584568145813 -0.04974159019950143 -0.12433237823219875 0.31772253049400767
P 1.2685582806526632 6.242498208942665 7.3396085107930835 -2.051354914342267 -0.803649458012816 0.5098592699646897
P 6.189389423490299 7.38862242575333 0.7409884253308571 0.7336365191587881 -0.0050388479754880965 0.3714994671051473
Ni 1.2265565567095587 0.9390732070436089 11.578765500631725 -0.5674509523362292 0.009053882672152149 -0.7552114171160865
Ni 1.7425358774407433 7.065080042102653 0.9057199741108078 -0.31607393914699117 0.45885346834078394 -0.8171901728117281
Ni 1.1757644131053726 5.216409003941498 12.523749349228696 -1.1440933413637393 0.15491333634284932 0.3900885429612443
Ni 4.28757297312819 6.716256045239219 6.3386196165991615 2.934450431597553 0.2462018967462018 -0.9243069584965888
Ni 4.94388768107368 5.117388589134275 1.929703141068175 1.5193990695888542 -0.5187730275145518 -1.4087786416261092
Ni 8.575182573004968 1.0760389333878335 5.842808814977871 -0.47352212609655225 -0.6136924998022721 -1.0627809183364922
Ni 3.7324762849051933 3.373204508007079 2.9408641990136544 0.09419724940971518 -0.9614750829064538 0.6329706313055937
Ni 4.484991148016643 8.194090410635647 10.094777841472538 0.5357119693617355 -0.6719159022205397 -0.7001041917292975
Ni 2.1462542137502005 6.195890671364641 5.175120585927142 -2.0392452755629265 1.512756624571672 3.214084125639639
Ni 7.316476887722434 8.912359263817468 12.921579935702658 0.05823522949280939 0.2332211682158177 1.017836492415318
Ni 4.046495713923033 2.809024386134298 7.108709825020487 -0.7103502949373379 -0.08015208417055873 -0.9579950947776533
Ni 5.360837430310495 2.89289964040045 11.216048062360208 -0.018246862025329866 -0.5766773560305036 -0.5129777609890133
Ni 1.8157802179292748 3.1154803915687483 8.41328868157186 1.2161042844844026 -0.6143432460123935 0.758963427959351
Ni 5.085001386695478 0.2386461587676397 0.6821026859574733 0.4214392893583839 1.1318438345724249 -1.804616685476621
Ni 4.41524466201825 8.02009504146912 12.344648211309021 0.10037406764438841 -0.27391864593517984 1.0298720834236132
Ni 8.743821280190526 5.827077626459394 4.490546510108704 -0.13330989914046074 -1.3363504084623696 2.5490166137995
Ni 7.080554843381014 4.909559260959728 10.001971154563241 -1.8827442830179835 -0.8006006438841631 -0.7842317156078364
Ni 7.813721626550938 3.5805485317628367 5.291502079565 -0.1379466265815237 -2.2110913831053725 -0.46522851862919234
Ni 6.652781889936493 7.360090188603404 11.027404740764686 0.16390962630418868 -1.4782161675926415 -0.1631912600809254
Ni 0.6599544910864069 7.232281149406138 3.0700971030622712 1.5949529928657693 -0.0146876839191618 -0.0514652577588275
Ni 1.2696112996745637 3.113227846530596 2.1193775056364443 -0.3368142570181361 -1.0497222853803212 -0.4552914620211385
Ni 8.396984284437984 3.79889889346924 2.985424301345619 -0.09509636418521687 0.3258405316154517 -0.1400256205977395
Ni 9.140635474391177 4.666495000643681 8.965360000361501 1.1290436461194684 1.8567910534873313 -0.32714125270474625
Ni 3.2481882583896367 3.9326048391891466 5.065642318729376 0.3844313446754669 -0.9478914306847483 1.499891852793862
Ni 8.363177795491408 9.030837638811981 10.397764378147006 0.23303270635409543 0.6098702978427045 -0.21460509577652717
P 8.696755908255154 5.895679526564417 10.888629653040223 1.1126680329749223 0.7230805980198127 0.6034962759955607
Ni 8.236669005869011 5.097839062075515 6.806019049340866 -0.8732823878196057 1.862631057207876 1.3765154107170292
P 3.2948690494648374 2.792560662644064 10.37746125573605 -0.8907100963777498 -0.02271183977521895 -0.20090291569908628
Ni 5.6900935867408755 8.894943244863951 4.7871544985166 -1.047772360742802 1.6618536113430604 -0.8717849773384728
P 7.502211129811366 1.7122180862971592 3.614957530723682 -1.1039237111233893 1.7580961733175788 1.353883018029494
P 4.229757650482286 6.049804884622044 11.027150184862002 0.7427050571189596 0.5356775165793741 -2.805297234937943
P 2.092751690750515 9.120298472237778 2.952362251064092 0.9021628182993818 -0.8955026326703868 0.907967855016933
Ni 4.5061156252646795 1.2986105278689855 8.945820545658604 0.7427096851046499 0.5394084443767161 0.5890255931832115
Ni 8.04000167932661 4.0363958879999355 12.159691371958864 1.6772228947102792 -0.6810587450620722 -0.9403290449564579
Ni 8.735433754763912 7.633087659202863 6.581043824483637 1.1891023019742617 -0.38822475027962816 0.07876908778010305
Ni 0.24352850435439868 2.713126401644188 10.174612249700736 -0.34898097428765706 -0.6098718405046013 0.4711081173384209
Ni 2.1873585823529034 7.280005802816093 11.306643409323513 0.5136303069713477 -0.19029377272467227 -1.0216522666169825
Ni 8.046960761558298 6.33467857845111 13.05656232361085 -1.2812017883146838 -0.19112012528070957 0.7581422176096362
Ni 3.028153066248193 3.554882337689908 12.521953722879175 0.08199607935783297 -0.5042897462967121 -0.7159645558003218
Ni 8.433601876338676 2.7501102610307586 7.537673147794112 0.7864302659210521 0.423900863524999 0.49536339034135973
Ni 8.124810915681751 1.908629025599447 1.419230651987172 1.5741594531591856 0.20152152311969163 0.05371574435590104
Ni 0.8592745098952838 2.7004901733813833 13.054149536547627 -0.5274934381066851 0.5431316588645744 0.28283908835326127
Ni 3.528392041773753 7.948022756935398 4.674458571455392 -0.6417254946800883 2.15994391369728 -1.9950783512377253
Ni 7.76086007165154 0.4496153149648787 7.951974783108025 3.3436579547764356 -0.03291063468509171 0.45031997694847614
Ni 0.723287633407069 7.8501011445858095 8.977501767518369 0.03980813313587338 -0.4728502968405082 -0.5425806714571108
Ni 1.9287554239484646 1.4928238622560028 6.559011003870623 0.4666292556314609 -0.08023975878835858 -1.406024990140372
Ni 3.1058933401258813 1.4087654742469116 4.296691202189133 -1.5410441586624557 0.7589282038460413 2.185616892983352
Ni 2.5222827281272515 0.13373433145006253 9.53950351351889 -0.8726576097514133 0.664290781575114 -0.04738054616649259
Ni 5.943349239851489 4.859746882880267 12.140486136336833 -1.631100903541236 1.9655739140207051 0.849159269519157
Ni 2.95102629040935 6.745905398221074 8.908067524551688 0.14758800632602967 0.3523118384331029 2.1461072649245043
Ni 5.455178777985622 7.231722591490174 3.0843558962875175 0.8702243177195723 0.18785636692777324 1.3196567498567724
Ni 7.73393025475233 7.951282537559715 4.477332494886926 0.8539011550795166 0.9617807870723306 -0.8033429825159907
Ni 3.324793103061102 2.03596191706507 1.0275451182575346 0.613162338330415 0.12679420950913 -0.5256026488418754
Ni 1.4530746833510502 4.643639909524869 3.89470531108788 -0.9101237250176712 -0.92323763669181 -2.2951818830983894
Ni 4.622048441232338 3.9713834092565214 9.07623283101175 -0.25795286663454287 0.9235322851140932 0.4610216796366964
Ni 6.373612812199983 8.18064839390391 6.769364830691585 -0.6145720741937479 -0.4622550378231652 0.7845464186347778
Ni 1.0464262071545656 8.632997895650872 4.997722591816801 1.324220715078371 0.33959876174180864 0.26054273884890616
P 6.304470667553289 6.576497529315172 5.268182744407838 -0.5558820165517072 -1.1502148808804449 -0.6191452953867271
Ni 3.1397364558210445 5.193059451716751 7.358398032818645 -0.23817028469097692 -2.979482532136527 -0.28292856274327405
P 6.169583509191425 8.822989997263141 8.916779196703306 -1.1840210307966124 -0.7578611960341077 1.5142200964910761
Ni 4.308221302644585 0.5662092437445472 2.7245063324304293 0.2138993279587542 -1.4061100936550106 0.18972710158792486
P 6.4723951531413855 3.9728484792000347 7.934565173835511 0.8891365812430428 -0.1818888364904287 -0.20275102465141856
P 8.039809388896522 1.7954889992116119 11.625537858578394 0.27426523064132124 -0.000973162546546711 0.020123510222752442
P 4.864709807313919 3.5738549934584087 0.33064614153928884 -0.15697278997503936 0.2836631269164534 0.1805240949324181
Ni 6.2541180449321585 1.7290114505246836 6.775824873473765 -0.21894923167783586 0.7466920667911656 -0.16776036750884657
