# total energy = -381166.0578334379 ev
CRYSTAL
PRIMVEC
9.34400359602766 0.00000000000000 0.00000000000000

0.00000000000000 9.34400359602766 0.00000000000000

0.00000000000000 0.00000000000000 13.67589376914823

PRIMCOORD
 96 1
Ni 1.1903419763201146 6.193261721446805 1.9997298558800702 0.6873528056009002 -0.10670849450284849 0.27868212876209425
Ni 9.119205666442726 3.511999857539175 7.244763949876192 -0.3670792265502646 1.7217166062472802 -3.0183704674509757
Ni 1.5925826479266512 6.9432862110517455 6.761922836687913 -0.40728253824202765 2.4313444211962967 -1.6538734213510613
Ni 8.68598962254536 2.4261892506964418 8.879018985538181 -0.6466265315261315 -2.1969585432484164 3.3534196621488896
Ni 7.975051100449481 6.7282526537277985 2.6666898901255633 -0.13539326403205068 -0.16870139126587722 0.24367347389739324
Ni 8.258716365006052 -0.10708975769253377 3.074381853495138 -0.40405760354682674 -0.38513068473533674 -1.4643635779802653
Ni 2.9711502349334893 1.8717160706850153 5.39996795387289 -1.1489146740117826 0.4695425726235139 1.0926252553914344
Ni 5.649365953632428 6.17672283488428 4.953504915919201 1.038157206250541 0.029780059475910003 0.5796276969080791
Ni 4.668432444404259 0.695416263136744 10.250916822698505 0.9151882840247723 -0.4393750479011981 0.4449044623598596
Ni 8.812843816880296 5.945122358986686 6.770182935965468 -1.2240402515020272 -0.6509855798257757 -1.1220515310723513
Ni 0.5427090793435061 0.7006788060248874 4.3916443665765135 1.204529178052293 -1.3559674113623488 1.063184581532814
Ni 1.7972256731277003 6.5320285758673355 10.232181160864313 0.4819903114685634 0.5879238754786004 0.09973026341280243
Ni 8.562602053585957 3.109740497925223 13.4521425921245 1.0642911843334315 1.4580535766018372 1.6499902842465712
Ni 3.1825676628225783 7.5255484580896965 0.6303231301082034 -0.8176354878792629 -2.120660028495993 -0.22200061690964992
Ni 0.029057048329651707 8.141028638308311 10.74561454219141 0.11590841583456167 0.09173053303677751 0.3432049910358283
Ni 7.9324330995389305 5.698982613320003 9.307061254582626 0.2298388820071461 -0.634318660693056 0.7615216756048304
Ni 2.1307318534608286 8.58525191857328 3.279328558816685 1.4188545378048725 0.1522558441153442 -0.7931585857838211
Ni 6.630383558893965 0.11846421340584534 12.34775984351246 -2.4417255073203044 -1.1689199134891157 -0.6045069766482621
Ni 6.209417503857316 7.396348918824142 0.9631481325710445 1.2628034883131543 -0.30903503002233873 0.29508499560014984
Ni 8.370096889201134 1.3495544554946124 12.02621211912437 1.8205703805924 -0.2578114559606721 -1.197936355326124
Ni 7.060693617638256 7.395246326386641 7.8942460251865425 0.2828830542173193 0.25563090336958555 -1.3563358504453609
Ni 0.08257950156702026 5.242612128235101 3.9709184524351504 1.8840439756660134 -0.18854516546468175 0.4059951868891718
Ni 3.128587353403535 8.32571287158984 12.06804615812385 0.2793272185452609 0.3479659027595814 0.1656716033006179
Ni 9.251787735050446 5.712437978659006 11.645994329856375 -1.043429510393074 0.1398520711343527 -1.4157072504251424
P 5.113300460925055 2.1673790360021967 0.28932305880154696 -2.65543148832133 0.08126691450129231 -1.0034347151676912
Ni 2.4711619405413185 3.0974905090645053 10.190181732999207 0.5054619122279425 0.22281899904588723 0.03520945802159743
P 2.5728901089064076 8.840259123758514 5.7816891933374475 -1.6115139825482439 1.0384405418189147 -0.14881416542364695
Ni 0.18465339806929226 7.224942514811173 8.46327249097262 -0.12450592769558558 -0.40090903061551597 1.9552033694196584
P 7.036025447850084 7.758316934450745 5.265875894266015 1.1740883450639328 0.18853642371393337 0.4630842185926799
P 6.7866993969190945 4.909797404176339 11.236962436355125 0.6310117078070101 -0.5002335739494674 -0.42062065011183036
P 4.290112422289284 8.2275914886559 2.251599344620279 -0.6909142976999134 1.6117590086795146 1.3662505384559116
Ni 2.337907103666648 8.37985202907191 8.457582927115038 1.0876645689520494 0.636476073355691 0.14969296848417446
Ni 4.136487657331956 3.8238372932742832 12.765612476513724 -0.4938775498244527 -0.6485147496877799 2.8757811998911182
Ni 2.4564638227091993 2.6909889717672844 0.6111099896845515 1.0475905837492991 -0.23251385773614794 -0.14868406760368585
Ni 4.887222291218677 9.23466017625434 0.5049359443553667 0.5297493240203973 1.5890345704988054 -1.9828165031512366
Ni 1.5135510645674224 4.800369776756153 6.364801744712793 -0.6472921901345884 -1.7630607164117054 -2.251357429714271
Ni 3.4806226930889155 1.5771930738201663 12.201564495903076 0.4273042327795931 -0.5282974220652192 0.7705693876293955
Ni 1.1489200078841413 7.139856017049392 12.848269533311518 1.7218670157822153 -0.7719037901701028 0.5608036222230407
Ni 6.830522774307932 4.572207894222971 13.55104700256914 -1.368798758799062 0.8708640081861001 0.1535676209482323
Ni 6.643885644251507 2.1357682714592467 3.4720084560708417 1.7714607675499427 0.2360488674725999 1.2211595875201227
Ni 8.995500401357265 8.475945763201294 6.477833354363017 -1.9237106981280159 -2.1148542204474934 -0.7718780791384899
Ni 6.543559076442564 5.056918742553148 7.3244262534856865 -0.9842645699971435 -0.5420875338707761 -0.4635557589124597
Ni 5.193985932940536 2.6949414853356166 5.7953379795531985 1.210844835857676 -0.30665264583309126 0.45948493127719575
Ni 4.4193213055585465 4.66121887354196 10.83504132967539 0.8516293283262042 1.3171730642029702 -3.1161652044039623
Ni 2.0591287530491744 4.792866541778917 11.890587642909443 0.18186441101039647 0.2212953633125092 0.46587617951552024
Ni 6.0462338231070705 6.702379107461341 12.125047383941574 -1.1048043139561294 -0.5183580514643201 1.4022017597395398
Ni 2.8919504595075227 6.6033139801529295 4.750403651329913 -1.960157113880508 -1.7657315783756493 -3.7027724179536685
Ni 2.647819674637982 5.45731864542928 8.085708398757593 1.2582413228637683 -0.050025182878191264 2.7741406068294805
Ni 6.950284869828769 1.7605878345900392 1.082130938182664 1.4304805520795751 -0.594625198758176 0.19558356036870186
Ni 2.63012213161571 0.3079634117979203 0.9578678360758566 -1.063276369915672 1.3087832974773783 0.771630224793742
Ni 4.320956978528208 3.4634951342928098 8.091233508149921 0.3429229410190352 -0.4491938337638329 0.4567410499834715
Ni 6.947406916686815 7.60527149772329 10.328075867714722 0.6204601575434089 1.8346433137456983 -0.8444613498228555
Ni 0.6586522805490299 2.9044340484609315 4.808457946365487 -0.34261543708094544 1.246924612299369 0.20835242999859602
Ni 7.110758789503798 0.5261645863787566 7.579426917868326 0.01649774054470707 0.6071549557940705 1.791473463226444
Ni 8.655743082543724 3.58403278212138 11.307338669079964 -1.1379147233568532 -0.14056580937192564 -2.4368144431719325
Ni 4.625636907423263 5.6090839536487875 0.6517358490046338 -0.46533419096912115 -0.4683189846290579 -0.7607963674030316
P 1.2349035300018554 4.396624720552686 0.2053671854883912 -0.562831708396663 0.24811711149104365 -0.5975590845755193
Ni 6.636606665363255 3.7010851165670013 9.347309616152922 -0.5489189549703126 -0.21083225899765626 0.7430099899538881
P 2.6260481459991785 4.005690293432395 4.674734974905064 0.6855558616014774 0.04004364618544717 -0.9773143639315557
Ni 4.988193595283447 3.835863026046017 3.753581598197271 -0.13401412429633694 0.840347841875114 -0.20843547663070555
P 7.479744151914839 2.6193111193259693 6.115367303338796 -0.5212621124849927 0.5905376589523637 0.2571591670886539
P 7.48176245671569 0.679808973743871 10.080541996694858 0.02389660411193949 -0.6064615292714717 -0.31912146772406336
P 7.843627688301509 9.141519147296574 0.4143196651994042 0.32190802933026497 -0.053043915099857036 1.2087504152224926
Ni 3.8623159005423497 7.291144781079811 6.405146349521276 3.37038071548326 1.731057938252864 3.9016372201768026
Ni 1.9407121940622376 0.41599130746270124 10.487578011004157 -0.3050377359374876 -0.09086329994047578 0.6658678962542468
Ni 8.25115706600657 7.573286973032035 12.705342718199068 -1.280178746366808 0.4693546249824239 0.5223877414490036
Ni 0.7249676092625299 0.9142023723496786 6.817638327595465 1.754562192022391 2.179023041815918 -0.4856896146970216
Ni 2.0373572244103704 2.738110782464919 7.68207827379973 0.02685697229184407 0.40439570361253585 0.2665681191073796
Ni 6.1802174922709385 2.8515376434719752 12.106174365252881 0.7220588416235177 -1.2724839488257118 -0.8927027013277464
Ni 8.830083503720893 5.62210949481724 0.4087422293863132 0.29701203741953364 0.7584152687653648 0.11645580369759945
Ni 0.7033539942863851 4.509771261448513 9.403777299358937 0.030012230091374124 0.04286131813990038 -0.3445584197399292
Ni 1.1404730285324338 0.06850275998145886 12.799583536393223 -0.01873048652996774 -0.10146524382603817 -1.2594625968653792
Ni 4.4072581967719815 7.45981339200644 10.372276742853348 -0.07002810836267939 -1.3595299319026264 -0.1138448484373136
Ni 8.005129448384379 4.203960708104833 2.198823477279151 0.3930239714404844 -1.5817609196555276 -0.25016730915185303
Ni 1.0630579578146266 3.77809839512538 2.2374310317983825 -2.1198429319113363 -1.62044805181308 0.7143545310007247
Ni 4.289944230222547 0.12369031467952905 4.633406446506167 0.006021523603731565 0.07061072033902678 -0.058891117909253415
Ni 7.307963987753564 0.6248970671551761 5.316996004150149 -0.3685738088179201 -0.395842414725886 -1.4204262531673668
Ni 0.4491569142226028 7.41608345465468 4.354199206118512 -0.7767451774228042 0.6691087717890476 0.32297812246599217
Ni 4.080507731119478 4.968206771352802 6.168005813825422 -0.010044014499563346 -1.502165222209071 -0.20393733165003589
Ni 0.3752066000795891 8.217200956533002 1.309153786663884 -0.18995001623200836 0.49927043870524984 -0.1604646051783817
Ni 4.858321287750943 1.288603519309669 2.488165224088113 -1.5185817158938815 0.1659852778862948 -0.746088885989528
Ni 2.660406047632175 2.252643069834422 3.182271457905046 0.00810051761994734 -0.4363411461708807 -0.7564023521003941
Ni 0.13238491012948916 0.10556575068781751 8.845117071286117 -1.208833204744286 0.9128339248599827 0.42173033823624145
Ni 1.2051055021781878 2.4277870753304485 12.052989230549358 0.2151316577039585 -0.08407687314626165 0.8497231124424268
Ni 4.527618308530108 6.271302840413024 2.9705821195080646 0.33466738587846234 0.33069168906016594 -0.21495605135804272
Ni 4.180002682598441 0.6610994751200611 7.095368280996942 -0.5454582501152219 0.4729647109311854 0.5234832885060274
Ni 5.068187611024563 8.385131391166729 8.467594092687403 0.5002101769106998 -0.33160803022684826 -0.5628196242118049
Ni 3.093435211455389 4.608761636727263 2.4039757506822665 0.4639072287146075 0.017444677839008667 0.2844413998433747
P 6.245027501987137 5.227110426084124 2.041605942896235 -0.4133930220151397 0.6810242922797111 0.2713033197995199
Ni 6.023602646127165 8.616255322875233 3.4191924095137707 0.9486481063451147 -0.8144272653546102 0.12009674288429638
P 3.090725450380173 1.4314826800032099 9.074010589309607 0.7220040771261823 -0.3534199838956172 -2.1593147647537134
Ni 0.29361382530409574 1.335809426040672 0.7286725067326095 -0.5288026438364118 0.13781035811397557 2.1498819014755877
P 4.762713441814359 5.606869424770076 8.69112602138345 0.40881208751267656 0.16103770407303233 -0.4262104854947821
P 3.8366012023389207 6.221499300651296 12.334630583902854 -0.6093347370542087 0.17565262577272975 -0.0356210916377193
P 8.873458368931763 1.9986263290421977 2.9702130313616126 0.07212921386608223 1.2140862256131093 -0.7348323392391022
Ni 7.599011015239172 4.246503956985723 4.537976136640028 -1.8586209076072184 -0.9159596149731581 1.6353442521986223
