# total energy = -340851.6394461791 ev
CRYSTAL
PRIMVEC
9.46824795849713 0.00000000000000 0.00000000000000
0.00000000000000 9.46824795849713 0.00000000000000
0.00000000000000 0.00000000000000 13.85773795242639
PRIMCOORD
 96 1
Ni 6.136485255385969 8.08534424364934 8.418368095918876 3.504996220809022 0.7900951163671489 0.831482421064684
Ni 0.1654510089277641 7.327562469928808 11.760785626230216 2.04193079281489 1.3522526815149227 -0.43928660195244995
Ni 2.944975504819361 6.387838839449729 9.205806316545065 -2.242282721106512 0.6731780567624149 1.7173089640978876
Ni 4.824659471981671 3.091032701028633 0.18770423259239868 0.7837452628897212 0.4258513023831505 -1.8019993024584322
Ni 3.283200265806501 2.0714822702617033 1.6015248257156862 1.2993049256732976 0.34345567359405366 1.4463447728053416
Ni 5.004073306479889 2.4948171140133417 10.997625887551377 4.45706235169675 1.663541797678761 1.289795700631282
Ni 2.4759847684110965 5.219182436564062 4.613989056637736 -0.5642224180966026 0.1755281843797235 1.5676723027729451
Ni 5.751610435684769 1.0532668624861843 5.771346052162054 0.7792556025494837 2.115703455821666 1.2436114887657357
Ni 2.9310571800152876 2.724450536784215 10.984114697418443 -3.826610887268584 -0.1121918862149229 -0.023331218526772723
Ni 7.7929363355376475 6.744801263557454 1.5848682835419958 -0.06463161993745643 -2.7914883540793083 -1.848564551812481
Ni 6.396615905499644 8.46615718488731 13.129916088009812 0.7827235064934263 0.11566364681360726 -0.3262161697873156
Ni 7.974916065288861 6.3253578698020565 10.687711188580685 1.1903210048727115 -0.9020291209349949 -0.1567997547322848
Ni 9.139662081681953 2.52472730996985 9.411496433353665 -0.4060388956429137 -0.37836276988388384 -1.3303893057829281
Ni 1.1921187218411033 7.58739013610117 4.04007119405346 -1.061406920807101 -1.1626867880952105 2.135859876164883
Ni 7.949437009474058 8.578526354121827 10.375233434831447 -0.4891606039647576 1.101388346296045 -0.1302662272181305
Ni 3.868375875460195 2.5235911201899257 6.6428452736559445 -0.13583369400357898 -0.40942812383012067 -0.44689886708206905
Ni 2.8466761523595743 9.062363303654434 3.957687019935963 1.556150932396907 1.7694185403089335 -0.001340830298610594
Ni 6.051365704373304 3.2102284771908614 7.936160631895642 0.0026641770957244438 0.8506168279012898 0.2829409040384482
Ni 5.163386050121612 7.343876261518888 1.304164076988341 0.6111399085837474 -0.09728411586515504 0.09424995702452155
Ni 9.44340348284839 8.789772438954257 13.611555457143087 -0.08014694196423616 -0.7241643180022947 -0.34170680922374697
Ni 1.6239655206940085 0.9305744622762392 0.6187926247672042 -1.9443126906490837 -0.9405547878140188 1.2400592526381031
Ni 2.601723104056055 0.8741910444474944 8.233270472046586 1.9929029408529615 0.2648876460811631 0.1615912625836572
Ni 7.5299557427259955 5.419700996224375 5.810993394532514 0.09034933641853472 -0.038109662387527915 0.1330633303472934
Ni 1.8161709584645407 9.40948821791765 12.075744060998957 0.46896998794949557 -0.20235276077173536 0.048191472103562165
P 6.093736114916316 7.429601780414179 6.271083977664705 0.07984252334993991 -1.142911405240496 0.057907928060377686
P 7.860302921238993 0.5375181293347673 8.47884369060498 0.4947987760871414 -1.0200682099593144 -0.9181859332005154
P 3.0121432573092206 3.328155508098841 3.9413760688203325 0.4299465554984466 0.6017258143586992 -0.46435280089245834
P 2.98207210113389 6.431411717509826 7.136069991245178 -0.92698064867401 -0.5478020677570501 -0.8615820686635419
P 9.17545205974957 2.607924806604809 2.01312756316479 0.13810217832278152 -1.2304150446801196 0.6891186392520712
P 8.188425061432973 6.989792184853638 13.199551265971744 -0.7359854790069389 0.41636007506326356 0.6031162669483227
P 1.762164070925471 2.68282811784632 8.584785812984393 1.0538170242749851 0.4753913180948071 -2.0207842406442618
P 4.687616048026465 0.36360155972175034 2.3960026888533235 1.7407643669073503 1.142894693069948 2.3622707063270867
Ni 9.246880523914147 3.079187922572922 11.789207413575024 -0.08572623582422656 0.013941806892072764 0.24644255200209814
Ni 7.36207423449401 5.761571032755439 8.08927451346306 0.21431816066372766 -0.634800485425481 0.5432617566845352
Ni 6.890716436044236 3.7013370413149866 12.43330109109151 -0.18224544849889904 -0.4377758217348783 0.3756299443337531
Ni 2.0101374903939555 8.814001686011142 6.565768999460328 -0.1086836159513483 -1.6751703830566247 -0.3643993657252563
Ni 0.6362511275605582 2.8428699165968276 6.273328899304872 0.45626642433989817 1.7506926817646558 1.3178819173445369
Ni 5.540108708151855 8.912177951244772 10.606145071104732 -1.0723706189074564 1.7436247191742809 0.7094678923323845
Ni 6.743589327792201 2.6179990226534713 1.6710766830937542 -0.09339300834086496 0.7834853243601151 2.3683943027263212
Ni 0.6945329291465933 0.8115661574276987 5.367476032990152 1.293876555568875 -2.1827004906675054 0.7444186973759567
Ni 5.544568253038058 0.8281980821561575 8.380689202342136 0.05489716625851191 1.670370647675136 -0.36998534445346604
Ni 6.029030106949626 0.8436104965208311 0.6869318195188994 -3.107468962181545 0.29785278815327415 -1.7579005123670048
Ni 3.5543708932817744 9.066112729928186 0.9379776855172629 -1.7231867630349034 -0.4583173933316559 -0.19138931978169618
Ni 6.9626277808652794 8.746616163813465 1.8926071790841335 0.012455966375165644 1.0852068514401763 1.2017459588802013
Ni 7.834767055935195 1.9561116663585538 6.619120684226308 0.7403632963596605 -0.2977268040983711 0.8315024756693422
Ni 9.229297987069817 5.087801025012146 13.18879722970476 -0.8419190430169758 -0.0966174288154336 -2.9371477759240574
Ni 0.9428566737972213 6.526690698804648 0.3262843532249524 1.7391414865919466 2.1186391414112222 1.5808990858758645
Ni 1.58550549664357 1.9656935335025822 3.426242771799708 -1.3276366827384554 -0.6602389801032436 -0.7362806416498545
Ni 3.7871667109401033 7.151292093821715 5.346315445163879 1.3230632044351602 0.5422011766305049 -0.7060562955476745
Ni 7.29230271375849 5.251810019744222 3.5692682349462155 -0.8575536642304392 -3.43613513617125 -1.6020777768360086
Ni 4.7647633340833275 4.014565627143791 2.2140097035546775 -0.2528721096775258 1.5065965185075474 0.6410122706631477
Ni 7.0720712614164905 1.7078541994450882 9.969964008580604 -0.267240719694372 0.25929832491884375 2.6415866120184375
Ni 9.385514613561245 8.296135852569801 2.2267170394183147 -0.26869622119397596 0.8891900601887976 -0.7583761879973133
Ni 5.799548176149409 6.656585595394496 10.571403228109098 0.5780490395670497 -0.5118487895908926 0.06700423393469106
Ni 1.8245976993323128 4.324953738522786 12.421134392198153 -0.43183940164578527 -1.8587954855118696 -0.22496766995777384
Ni 7.522059223755521 7.32602861372591 3.8233221633869285 0.87498625788459 1.9473157391414655 1.4300329230191953
P 8.760231504676224 9.187098004993794 4.175973694104658 0.07524847622135428 -1.5014543121849755 -0.6169344037783375
P 4.0308415457412075 1.0060771136266606 10.088696787407512 -0.9594338841067089 -1.8438087822950504 -1.271628799914268
P 2.0427177323332857 7.869894256631189 2.109743461100655 0.2437403225795867 0.010064069104221376 -0.9831461401219843
P 8.526583544682952 3.795943776990019 7.8108029198269575 -0.8852999811057721 1.287412545111086 -0.7783194638884595
P 3.8634429181656897 7.339331502399191 10.82397442888701 -0.27305346972140715 1.597269556814088 0.9614586278462215
P 7.0775723136009585 0.9815827556211253 12.457372218404023 0.10016915072243394 0.7820082255939564 -1.026406750582832
P 6.979973611505458 3.1304868911365054 5.051298087857627 -1.2510926276341294 1.259106241967225 -0.4906996663171033
P 2.3425108740144855 4.751593000884371 0.5617596851142694 -0.9944787915259841 -0.3279791752250093 1.8523412452460937
Ni 7.660693313402621 8.935166857791907 6.078890848616789 0.22529162895609586 0.6210515112705045 -0.9080082213365652
Ni 8.662377159880242 1.8123836591981264 4.137421828047009 -1.942033407696604 2.2901402069094234 -1.396573357809169
Ni 4.146496197089339 4.641335250990881 11.998085489541129 1.3353613050762227 -0.6293109230658194 -2.1093008947294316
Ni 6.1983318524065165 6.12456473094493 12.902884539834968 0.3487737433728574 -0.34545110675752766 -0.500290395329332
Ni 0.8889804480828427 9.17719421741212 8.960011540979584 -1.3309559769196755 -0.11433155826574504 -0.023048397179031274
Ni 2.2397425084203304 6.42271039744524 11.854699286139494 0.7385840929720506 1.1030953016848226 -0.03044366120183789
Ni 9.477148319312143 6.951625676496346 6.313045359886943 0.6450920971594761 0.710144349574119 -0.0467043460350744
Ni 8.178133075676493 4.046047552295861 0.785300290190298 0.6667672681400646 -0.25244222122895876 0.8298569696461192
Ni 5.1924819767358406 4.337262461138633 5.915064591074316 0.31599114962519775 0.409412697211153 -0.22102951124563228
Ni 3.9818528297301365 8.125660044340322 12.83373413617914 0.5398401325974962 -0.6054179184983057 -0.9582583757413691
Ni 4.021818305238975 5.7727435655913615 13.837908131924427 0.2224713858984814 0.7279446109803334 1.470459406465358
Ni -0.037204534343622135 0.8534148674967615 10.882024258392978 -0.1403161552549648 -0.6816727244969873 1.495650561019005
Ni 7.253994181678708 4.318165004587738 10.077236419827344 -1.0082154243857862 -1.6805005370202863 -0.3955508516273962
Ni 8.2696247577049 1.0306377493693584 0.552868053261545 1.160164535893989 1.2436366855767162 0.438075098142852
Ni 1.153734443775993 5.487749295793676 2.652177504883228 -2.0148563051956008 -0.4359012304199848 -0.6567193969857593
Ni 4.998666936777082 6.338925869423986 8.217140364470929 -0.5386170588236724 -2.6067918729367556 -1.4765488071925472
Ni 4.952367203245166 2.6130376606144683 4.0152104148438985 1.2752777095207648 -1.161436460627877 0.20818196585900275
Ni 3.581696257488954 4.318477456777217 8.128353760943558 -0.32322006327346914 -0.3555133760895361 -0.10073299364570394
Ni 5.922644870556045 8.953970798649653 4.284396497503571 -1.3795174307681466 -0.8499606823745297 -1.7580797182573464
Ni 3.2963421942609594 6.074525039387429 2.5849946031963027 1.535972400566503 0.6901681635625082 -0.7344052790040126
Ni 4.150586480297066 8.600956634027165 7.934358824269645 -3.312524466596424 -0.9775033400139101 -0.8259972295803967
Ni 0.954465692873598 5.439697936351043 8.119512310806114 -0.4515451076048288 -0.10799301764222691 0.08322686644114052
Ni 3.8327089846187365 1.2593432838199594 12.960435392662584 -0.5794045251536796 -0.09284947713256914 -0.5182649775298817
Ni 8.287974222650677 7.916430696367256 8.002830354531968 2.5877379416290984 -0.12100794184465613 1.8347752113378726
P 5.229900493488016 6.868532330591213 3.451976523490177 0.5413951357894418 -0.3172021392141634 0.23858397518962784
P 1.0795033781542704 3.980347378271737 10.056339049300085 0.22759996537429839 2.163018953078178 1.902508353018788
P 4.9832431605146095 4.853414541661923 9.881426419980002 0.27180417069533835 -2.6050124124388296 -0.45361638831156076
P 1.5734997579690362 2.051750441083684 12.815802220977485 0.015852136540908182 0.45608464734639514 -1.986551801823953
P 0.17589638030453508 5.587591972704526 4.768031773350242 -0.25912220435229566 -0.5392986582717292 -1.1176873405663847
P 3.839810170743264 0.41323601025774465 6.130497535245768 -1.436246765139391 -0.5919677065306708 0.051597412461317584
P 6.267980285915878 4.898606490158413 0.8146812110743245 -1.2027533170987932 -0.425810421842886 0.43276474167353207
P 0.533458144521171 7.201170825160393 9.580824689905421 -0.4782077044976797 -1.116332369200387 -0.2581135605821232
