# total energy = -340871.1521858656 ev
CRYSTAL
PRIMVEC
9.28237988465805 0.00000000000000 0.00000000000000

0.00000000000000 9.28237988465805 0.00000000000000

0.00000000000000 0.00000000000000 13.58570123853504

PRIMCOORD
 96 1
Ni 8.501249124696125 0.7771960378113723 9.556956475642558 0.3395967048592796 -1.1730354783193864 0.29480166003177616
Ni 1.890774386639461 4.164818241966634 0.3470616891645784 1.6277255593111 1.5701174218793283 0.6000972776163407
Ni 5.054849962374784 0.36812062458748496 5.50078292171924 0.543221133254587 0.3396830939254989 -0.46105433264684464
Ni 2.00698050140094 1.877918290390188 12.72906873595017 0.4860570253387694 -0.17930050693796218 0.2679997093475836
Ni 4.5527845949158126 7.4096598057632725 4.425053477191808 0.2981860031229768 0.12490239180305586 -0.17987849092861924
Ni 4.671441257987621 3.4195173899474107 12.152817659585917 0.21581891357897026 1.0466313051598233 0.31339844919735704
Ni 6.392580150796424 6.1560372621897645 0.7622811096862229 0.2889398019343604 -1.495749034270082 0.4125435295306508
Ni 7.837902405373532 5.962239733314442 11.965198482814218 -1.9692914720816086 0.42628761858962066 0.2550524051582962
Ni 1.0831330707862186 7.3900368545207 4.099580747346045 -0.06224692175536376 -1.4146392141719444 1.5150405355098424
Ni 4.935200084646893 7.9902819548522785 1.4132525600416468 0.5478596604678629 0.8768243395345932 -0.4899784718803626
Ni 4.883701440610094 5.687239944519526 2.5777234134949265 -1.2790708580146102 0.8770423690826702 -0.7135022103027583
Ni 1.7410774449701292 1.1023383149304393 10.19635372642165 -2.0990787027807913 1.4072303233023828 1.898885925774852
Ni 7.010573161617972 5.2079349727307465 9.755484305347215 0.345431823483818 -0.5106645394748044 -0.648471040934038
Ni -0.01995711692125404 2.566949355071438 11.539368373756439 0.2123183566248795 0.32070398171983483 1.114842672028738
Ni 7.165329000367342 8.328151303139126 5.394896028763044 0.4857410367602473 -0.8976721295178799 -0.28110487927097394
Ni 3.3805221117212763 9.27945601368551 9.343348491449404 2.280579559804182 -0.921488000990555 -0.7951948994875595
Ni 1.8476670140895524 3.7807690533619986 4.700843196521609 0.3423141037904427 -1.1586301015273335 -1.0869426031843603
Ni 0.7297575067705533 5.7153841205684754 2.284136587061349 2.281757896382999 0.27813371245779195 -0.20713064177635296
Ni 4.470505578920465 4.349648991797336 4.633036339127158 -0.2921197423242388 0.37434439275311016 1.3039069432216834
Ni 8.302661887759703 7.444413036346145 3.0846471786267275 -1.8514081919088632 -0.5928570511141595 0.47422789391432524
Ni 5.599920596204066 7.047340668652897 9.157726882845822 -1.0505640645553262 -0.7423204200860313 -0.2872557293637182
Ni 0.43832419248847865 0.43175876514038425 5.291739083754076 -0.272989192142375 -0.2990236685329238 -0.7085875466099604
Ni 3.2261654153103305 1.3947518485366461 4.735744945183894 -2.4969664300714802 0.9744511834511477 0.10924797309525056
Ni 7.800726473620219 2.8546660044161776 9.834743763140478 -2.380610128066223 1.5415894896429645 0.27510289605126814
P 3.709081232904862 0.5998970110829513 7.274150981867957 -0.24503281613876512 0.6482478691796384 -0.8169032376989286
P 4.6720910245850575 6.145659561390713 6.3280833900969125 -0.49221713140289425 -1.7863446266403107 -0.28886549705299924
P 7.296600417809378 3.951369914708849 12.164202498610996 -0.27694072059095526 -0.865107051097665 -0.996387835623239
P 0.9670383445843003 0.6373449165691909 8.154844628032953 0.027746573985648986 0.05572506147644597 0.11260172005883187
P 6.248220577606031 1.188608754310037 10.812397437450892 1.7659814896029264 -0.2105895468592309 2.0654977815015525
P 3.545302920831091 0.3329821752361328 0.21700533525974935 0.5423024780950596 0.09770783366613495 0.7817840253982923
P 0.3236895846547991 9.71772358365621 12.164364940260356 0.27141156324260995 -0.5589945940387598 -0.5123406416256467
P 3.0060523392388436 2.863855560579918 10.75135743504974 0.01599457565604342 0.23358035132744934 1.5990227920597686
Ni 8.462068198870723 1.0319221805282845 0.4849078163346709 1.864526474458376 0.9905141504512812 -0.23197366896196178
Ni 6.961051664513372 1.2857767077666358 4.5061053625559975 0.9185152915154762 0.7688192377075083 -0.6425788438193191
Ni 8.740270408753005 1.7716164750496295 7.027067950812888 -1.812624386272446 -0.6003045085311404 -0.41714091909334616
Ni 0.4083643829186928 8.01127869832943 7.1220322672661815 0.3026275838340982 0.3662724143782531 -0.896696910088804
Ni 7.691036589593028 7.907334607499568 8.531616430746302 0.7363744869152415 -0.20920732179972357 -0.19670096180259672
Ni 6.112484335401613 0.24767617513472964 8.981452630865357 -1.8420393490994533 -0.39510322256701635 0.7779096300445506
Ni 0.9737587876777831 8.122147444611969 9.580446466377873 0.011620614958063857 0.16492649760447725 0.27306709656816197
Ni 3.718391460008126 4.623015081718699 9.583339784212455 -0.2507118688014134 0.5769506642965483 -0.4240733845471213
Ni 2.5608322666755745 5.085017697255749 11.686624049495405 0.18222693655613778 -0.31138450409112184 0.058324446772506006
Ni 2.636994194275058 8.671552949884147 11.820660687928529 -1.4743592557403964 -0.34746325209155 -0.23116634256931798
Ni 6.632046989091545 1.0628974824660633 1.8779108644862175 -0.2773754941355287 -0.901725473651647 0.9971162291488311
Ni -0.3488012071697147 4.822985393269665 4.261671522742474 -0.46624950369453894 0.5240707855783814 0.8039245660510735
Ni 1.5942394763295162 9.175948194713925 1.2214730205703626 -1.2211832416692066 -2.250386324050253 -0.7747428022807947
Ni 4.983347789516914 2.229896856221366 0.7140155185906674 -2.270344769450051 -0.30382828901041864 0.15250061313629865
Ni 2.5301540008966237 7.149873837728325 8.04454210692818 1.040106102446796 -0.5970353508615652 -0.14156879671514327
Ni 5.259999841945311 8.415275721475355 11.04460452637666 -2.773649783235991 -0.8137487512303468 -0.7176522279153899
Ni 0.6886671953866856 6.901987880806424 11.919958947586721 1.4250719794694942 0.6380781277354881 0.41011846502892596
Ni 4.086883379794146 0.6011046487161863 2.794606221339159 1.1863507073710535 -1.1263424451382213 -0.7112697214278138
Ni 6.751863949658776 6.365874743641797 6.851894589096079 -0.0676117856117029 -0.5190021128062223 0.36279474024229774
Ni 5.36319205999814 4.302995750101418 7.880453763363634 1.8519692066186557 2.0556334871129627 0.10508689973902546
Ni 4.302429524923653 0.9779265762813381 11.834599109681532 -0.4381265202060777 2.5146872443900112 0.4581487289642755
Ni 3.2959317831150496 2.345648134364639 8.699115120709394 -0.6892497655132969 -0.7215541340729573 -0.610047446850517
Ni 8.961274593300976 0.3127308068700398 2.821220661170145 0.21817507251597268 1.1304919485302207 0.012602005034726685
Ni 8.803074991585193 5.205651507259757 0.27395459281104134 0.1540957255375604 -0.033604061207690515 0.26565512037480704
P 6.095803898607431 7.406578055615433 12.715224994472795 0.06785192664696703 -0.31134105244769605 0.5533895891471566
P 4.9831992714375 2.3328013204953297 4.060412816852592 1.1427005747812706 -0.3063495127703756 -0.48145783600386116
P 4.087505299251692 4.656543038146407 0.45991129533130115 0.612056763971062 -0.4209741767965072 0.2636949113246426
P 8.687620749600748 6.74059514038324 10.162566791592965 -0.2752409642910292 -0.7917519352442816 -1.8342900441713377
P 7.64812414702235 3.5812628608092023 7.745996633118168 -0.5948779381989303 1.500569852697493 0.33573336524913144
P 8.675479396608655 6.654333983383606 5.550438085095312 -0.06543457545472602 -0.29346160106411395 0.2270880587348863
P 6.829056221434195 0.37446791600644 7.0919397196629195 1.367407020657858 -0.09878255478755246 -2.0225480174129036
P 1.813182972525618 9.261903033174768 3.6199648158284936 1.0476430342537892 1.3064600486608402 -1.3603701684157348
Ni 2.014926218649588 5.667598428517026 5.969544038107621 0.2410563479895203 1.7636366435198336 1.0621970208085643
Ni 0.3198411099219843 3.048472815671463 2.739787269989461 0.0632257407288653 -0.33864591091023616 -0.893703631788435
Ni 8.851974569232247 5.915967069197023 7.789335136929166 0.7500784667648953 -1.0151543175974644 0.8464801800250971
Ni 0.6445879576546117 4.934912330868028 10.07898731416475 -0.7816277023260861 0.08436895046538374 1.2757554204881318
Ni 3.342278706272176 3.7630025781121006 6.989938430959391 -0.6238545279369385 2.0086306360008637 -1.414160731873629
Ni 5.0141188790954985 5.859455939980002 11.158670124318583 0.20450117457330588 0.2904055878466095 0.7292180783761183
Ni 0.4167333766936708 3.956586612248265 6.684830314515275 -0.15903327204849385 -0.15000510040795456 -0.2810156619912773
Ni 2.4145326760728376 1.8191236957021775 1.773381983718663 -0.3462913432706359 0.8455728377194792 -0.39607252845882107
Ni 6.540012191754692 5.775710307950442 4.437673800990011 0.4326474993693775 0.8434545058248958 -0.6658200737354469
Ni 8.353093058100713 7.770772233478411 0.6066666507902401 0.49773986099333634 0.07361402594172484 -0.39482271521212003
Ni 7.398669467886639 8.160455826720813 11.074316496401423 2.336506967099421 1.2575810635719504 -0.029024155146491946
Ni 2.5447923140988644 8.327650054621104 5.84375386603396 0.8516000177501656 0.696795953291671 0.10945031891404375
Ni 3.6861816015352185 6.952400486387508 12.990131031230082 0.20121144807844057 -0.8508600542603476 0.9477816445797613
Ni 7.003444293806101 3.2154164193127435 0.6207443082426929 1.621979400855942 0.5047450886665759 -0.5114042458543062
Ni 3.2102739808130343 3.723264709488897 2.4823933712710757 0.8246623128190572 1.4804206314431279 0.4575524901411733
Ni 5.538861100804993 2.119993477455018 7.3263745797798965 -0.31111402403855454 -0.6268596333118495 -0.763927971053478
Ni 6.592411226647938 0.2394919007210228 12.993324169937482 -0.94604769260779 0.6899773877079407 -0.05965859220289725
Ni 1.990105134627526 1.9150292454837572 6.572789203643362 -0.968039880608165 -0.6119783453246429 0.950524240321905
Ni 5.271147980281324 2.7062593135617545 9.77950431997844 0.33151418496146134 0.8637410239880737 0.16668204684300325
Ni 4.96033676958771 8.082196081249608 7.136188824948323 -0.2996024238545292 -0.43918787159105654 0.6558264528578447
Ni 6.0120025722980905 3.7288062903270314 2.733171717789565 0.9260733063683922 -0.8096038758240379 0.26820231227669294
Ni 7.0338812177060035 3.6955289581583357 5.417189520721079 0.08267690747494148 -0.9519373186193476 1.0312797624044174
Ni 0.593334368448846 2.888110419424214 8.901406027251202 1.1854631625597776 -0.008596483419759389 -0.49906475045234694
Ni 2.844891658314745 7.299524367497841 2.391966282143879 -0.1801271166043156 0.37011544227342713 -0.5808075761487933
P 9.026603983483202 2.4988538156601265 4.844172425536066 0.12443547946896634 0.6811849862272914 -0.5196716280694211
P 6.2728931435486786 8.505481889959423 3.235937904935771 -0.031087979654056137 0.531868170135613 -0.05940816675498801
P 1.9024423382534221 5.097251874047475 8.433636269042909 -0.08693414008939868 -0.7363186939766415 -2.1318800655815284
P 0.17275066054636765 3.149288744453668 0.23806519892065225 -1.4861071403049437 -2.6568281115585406 0.03779187403679298
P 1.5264595378369596 6.750007473666101 13.94028843961299 -0.19847836541799369 -0.18967850773817657 0.8011212922743236
P 3.325180562379641 7.328086250645142 10.13246032041976 0.5935710464620487 -1.6984478655273265 1.1512417794830625
P 7.9516022775448985 5.4451090631749155 2.302531479434767 -2.0923025603992222 -0.8186292192510998 0.11143495344424036
P 2.905189998556822 5.8329083332847524 3.9591448361661707 -0.5189830866428288 -0.6542927898221376 -0.6854296204362583
