# total energy = -340887.96823387285 ev
CRYSTAL
PRIMVEC
9.12795188414668 0.00000000000000 0.00000000000000
0.00000000000000 9.12795188414668 0.00000000000000
0.00000000000000 0.00000000000000 13.35968024997020
PRIMCOORD
 96 1
Ni 6.342931530760773 2.470434505760975 11.348420051221124 -0.11752692527459115 -1.1421025361859556 0.032419553981286105
Ni 4.775972562865696 0.44124701396806393 5.911898694819078 -0.36486884916250706 1.0147678807923233 -0.8283793566593282
Ni 2.9982218048339497 2.019486304655802 4.621914644136616 0.7405049641438473 -1.4993799461544501 1.1718645979397366
Ni 3.541973891545994 4.53080490637755 4.850619126819257 0.8149255451472674 -1.1797020917062844 -1.4293294691942675
Ni 4.168069231140855 3.0287730593953937 2.5451394886058414 -1.9853192149684322 -0.9611989464269316 -0.42234843143621453
Ni 5.501516936953215 4.703706568732755 2.216211008325591 0.7773637848434096 1.3856279145412587 0.05214737142751664
Ni 5.656208335534867 3.1961157991249878 0.16845908823059919 0.03180248922257749 0.14368070085182352 0.5550232680958377
Ni 5.884963934747399 8.31895052910597 12.638123873784364 -0.2665706902105409 -1.3068765673729685 -0.2837459164382468
Ni 2.0333060236298164 6.808913468424864 0.2129569402956075 1.385446651768388 -0.2618303473120781 0.2924902382897801
Ni 0.7986181919517682 0.4328401703914013 0.21551733076602428 0.17083489266911223 -1.2311845758562925 -1.8889874357142176
Ni 8.066836501323753 9.124464888617096 6.714001025960001 0.36412837145205673 0.25932120773697914 1.5446786700912492
Ni 9.281575194416789 2.292065200297821 1.2914217030856365 -1.026994247655186 2.402457305848301 0.2301759536315907
Ni 7.005255710915649 0.7998760237051494 4.834801299203624 -0.36364140451330923 1.4830776094500004 -1.9673389763409281
Ni 1.4150515946021147 7.823731761934768 3.0172033805317455 -1.3240780188529198 0.6404605119247356 -1.928127853359105
Ni 8.005779631959696 4.023400323598481 3.688567884115858 -0.15436774825202448 0.2073101047770107 0.1531307905211298
Ni 7.791108462322398 4.196904430770254 12.148330761142985 0.9683496985390999 0.02229994904878095 1.4894179498457316
Ni 8.266711261148055 7.767777417608012 8.852096848660876 0.06032219392882514 -0.369291403710235 0.3760469772665137
Ni 7.006159378140501 0.9355968001311252 0.5689817453937985 0.9875614955808604 0.7885169732467517 -1.7399845513185324
Ni 2.007108802060846 6.620056146382356 9.18471302145467 0.4959190057345137 0.41376377509099704 -0.6632199171084384
Ni 0.7191684997788349 4.912955735020935 0.982380291318388 -0.9968974282698055 -0.4912020598748185 2.244337803863328
Ni 6.301444989983432 2.3187553312621656 6.682913047834706 0.9975594873338369 -0.08166466416034322 0.897016755322068
Ni 3.5126640384247523 4.607707900007716 0.20563906136465154 -0.08519196058731135 -0.9014251688024087 1.3854093707725494
Ni 6.234820070041997 5.806244478715761 4.465540051249278 1.0402261729644278 0.550095234666601 -0.06996151679080209
Ni 5.69433579006225 2.9721249907344074 8.967338152504224 -0.6013828291969836 1.5648775136366275 1.163126189625474
P 0.6180709571972013 5.682779803126252 12.312054267997283 -0.6870411878977523 -0.09783433194167022 -1.2767864328558076
P 4.338360299290929 6.4000816367689 12.784639365969037 -0.003466618392361772 1.0108811441434074 -1.3889459231708983
P 2.4422839025140393 8.638045466948503 1.1895501101942298 1.0340835504017996 0.7297700942248464 1.4917306571393083
P 6.532546472799875 7.9779576349763435 5.499285152746381 0.6829202237508433 -0.749985907051089 0.972104794706158
P 4.941051570557273 1.076094233716349 12.868324427761484 0.5931414151237978 2.971689261344353 -3.1327673317370173
P 4.180318942411084 6.460873795531737 8.030129356091189 0.7143162215636214 1.0039443078142583 0.14891829510167903
P 4.909532753108613 1.2860279963869938 3.584642502077058 0.31812773635222635 -1.4701830128755196 0.30517323307408734
P 0.4873148737368573 5.881221474523261 3.279160078703447 -0.5376696073087386 -0.9810748594152524 1.220266129171576
Ni 0.3784038044433634 0.3510938855540942 4.737075622004422 1.3042188180351475 0.8025269143725986 -0.19552031123093422
Ni 2.069708295273389 6.7529317402428095 4.922174053509613 0.28277506788454526 -0.2806006859410458 -0.14804180603399664
Ni 6.24643995264036 6.091292156470399 9.142149382368917 -0.08564884561907184 -0.2610677581144407 0.20549799126893642
Ni 8.602236512169732 2.43926255047943 10.244015475101932 0.8003108805578862 0.43808024034917453 0.05381318916571377
Ni 2.8283597504168867 5.430501472212242 6.704221338437704 -0.6923050073998529 0.7720122907235092 2.3256186023216916
Ni 1.1854014561164958 0.048766082310879595 9.112531004477978 -2.050592839365262 -0.18156693437463567 -0.7566041836985551
Ni 1.7823512457219057 1.5419209962004141 11.321340156716364 -0.14799346929456447 -0.40947594634892054 -0.49765398614774936
Ni 4.355091834878358 6.927878063793641 1.5065711773954835 -0.22014068088277572 0.5437515518367603 0.7951434774243338
Ni 5.909764579696143 8.066051497471861 7.674882252483478 0.030083706759257867 0.34313274303699615 0.6726093287431384
Ni 5.456032353302281 3.0305530099898013 4.70013571400182 0.23256425135810918 1.0162200398578176 -0.5273324870487885
Ni 1.1065633367118972 7.977053967751491 6.808801194618139 -1.7520718215003699 -1.7261206488522467 1.982764823977695
Ni 5.381858617250207 4.657774715445277 7.19392043317589 0.4376225839864657 1.017940364983034 -0.599030269804407
Ni 1.045908097225553 7.541906251153596 11.305842720207721 -0.6376029878712826 0.6364645033914651 0.09913788124444217
Ni 4.776027330576292 0.504805854911234 10.52006664359581 -0.16818254264792973 0.9128565505678021 -0.21544841761342892
Ni 8.514069626060085 7.396361060241667 4.590693397915534 -0.24034698062732157 -0.9160359767370482 -0.19894527775208318
Ni 7.537205355994008 6.319226240023973 6.765729128619011 -0.015090318674219174 -0.13755839000416956 0.10447009209063299
Ni 2.5030212935662792 5.512963388468019 2.68740683203853 0.5858819053479071 -0.7243898037495394 -0.9129491102816084
Ni 2.81536154710183 5.331152845189012 11.363035727589152 -1.1449796006234345 0.5405613270342368 0.1260385622900281
Ni 1.297748286454784 3.4743357689585133 3.8991561209281382 -0.7439623265648285 0.46460271211973536 -1.5896372370798106
Ni 2.070292484186426 1.2448061662108718 2.576147140755595 -0.5383661191551309 0.0816770054555174 -0.8775007967763275
Ni 1.4368035036609497 3.867385372010731 7.95381876653065 -0.9709418847463084 0.14848866376342815 1.3637889642892964
Ni 3.852077796898828 2.9064037380178265 7.034953501986954 -0.3462602329223843 -0.27741868866863834 -0.6331773479997611
Ni 4.506442403113584 7.183652400234101 5.774681847098623 -0.7736526545404095 -0.8221927682326421 -0.16151644348166377
Ni 8.762514217232294 7.052419837691562 0.27395265238283084 -0.8055633872060771 1.5698911648011349 0.29849016462695693
P 0.2509009229924901 5.958790808632359 8.05666157348998 0.18080665916984348 0.26700494953448206 -1.2470472539201618
P 8.645795097997999 1.920804018111503 8.068017658282299 0.21419011972629565 -1.247417749885703 -0.555837536467017
P 2.27735094205072 3.4989355989684 10.096497733813328 -1.394377892819747 -1.4450972735514855 1.5497488855253052
P 4.335055980751567 6.141559786846817 3.7283255908286828 -1.0321104858358288 1.430907612314665 -1.4237686872770383
P 7.176906843878885 4.265902618170898 10.103445017902578 -2.219844446707654 -0.5572858388777693 0.42912225982493835
P 6.427036478334464 8.122973404685833 10.217843811797906 0.2686376000418986 -0.6228016611923919 -0.19170942212527628
P 2.48257468161001 -0.2512760818100806 5.684504073214884 1.5894078946778238 0.9825362744521271 -0.6381853427373139
P 7.466655416793111 4.009790547515089 1.3641431820117098 -0.340195257675227 0.13620367574848802 -0.7907995986333414
Ni 3.042556266562343 1.9871368435964185 0.12271983472538879 -0.47658482418227593 -1.1258408229114547 1.1177770720667137
Ni 1.3748520950238061 1.34133425613835 6.920888791126267 -0.07486101097494849 0.4802195927213859 -0.8420918211494143
Ni 6.9805280895810355 0.906242220046229 9.20123917812736 -0.12325765711078127 -0.6020788268227437 -0.4104275116289125
Ni 2.6340439132181963 1.8011548263602608 8.770750368110928 1.780655546675333 0.25097772086829034 1.740293340808203
Ni 6.680291500087455 2.166209001345569 2.525259722454252 -0.07996336519852035 0.491748676406908 0.15147834251937137
Ni 4.327726235483315 7.2271014506411735 10.40506631767909 -0.06802316211750867 -0.5683801490187178 -0.06766809277093508
Ni 7.496887193042738 6.622748892153383 11.525008493294694 -0.13592985326181106 0.5556603874592043 -0.5865521919420543
Ni 7.956525204229326 4.025718823347094 8.075993662535597 0.09773303047711555 0.45735245831522525 -0.5937625936475645
Ni 3.355142974795581 8.660518484196867 12.459812074417338 -0.15824162938513392 -0.3847661023070664 0.45388506859191513
Ni -0.22410216940212765 5.426010519943277 10.14606251190375 1.952629180934579 -0.18631576191353075 -0.4515649050991707
Ni 8.553803600098318 2.5780165452773107 5.883816551210389 0.47572350462324525 0.504883414016653 -0.534519234605215
Ni 3.8485452795653114 2.9990889602517377 11.640248884342864 0.5512902834159666 0.07886293304548998 -1.470400013982332
Ni 1.2414196961056148 3.6548957828455526 12.509590446579088 0.323577703723204 -1.6125493657912935 -1.1616730021187156
Ni 3.5202858781495223 8.716491084427155 7.837269427199207 -0.8430305309135997 -0.45863800989586817 0.5421536112220212
Ni 6.0624843406962965 8.082582218120434 3.35579105937098 -1.1332162894399194 -0.035990302051679954 0.006153421195905532
Ni 3.378756986014719 8.706550744953772 3.7664813420065406 2.0368734328966402 -0.14405685324431963 -0.29758693608639714
Ni 3.683283712838409 4.719050655651723 9.230056121853227 1.7393209495926045 0.06910688209999066 -0.9134813286359945
Ni 5.309382680226644 5.018684800328735 11.404691135474167 0.6416223934433208 -0.6619734462958471 -0.4709247976830212
Ni 8.679632415195272 0.1574991565449327 2.1670332553900558 -0.16130407036054153 -1.0145745338345946 1.4893652422309251
Ni 4.850000251689511 0.40116891614824574 1.400161166885926 -1.138008311511924 -1.1553388323705716 2.9717982761183914
Ni 6.398438605450986 6.087248473837976 0.13591611459377226 -0.07594961605343695 -0.8237572845062846 1.0746979814890523
Ni 7.946119339215867 9.035713813594413 11.510233077770758 1.0611742359710046 0.531454222526646 -0.017616170419866434
Ni 0.4124017735917213 5.010871273616874 5.783659187660673 -0.5886108742432961 0.5172928434245994 0.12576088314860923
Ni 7.693411994568847 5.983920059844684 2.2561028959293785 0.11832499569585431 0.9783775150887474 0.3593939420908649
P 8.627402275189123 1.911338332129962 3.5053799329153312 0.723089082660245 -0.09917079136490661 0.8207753190598251
P 2.1840085072896427 3.275191245275507 1.5979383233943565 -0.4042013282135426 1.1481590267926807 0.385125285418698
P 5.065036539397456 1.2138989215305465 8.040537046695002 -1.1844102958152312 -1.4847565398143205 0.0238040443981332
P 8.522586005057942 1.8277993175657747 12.422204913140627 0.5148119859842747 0.67836320050778 -0.28285297231033224
P 6.9815595481306145 8.065266493619967 1.4405605686079144 -0.242535246527892 -1.0467331208450101 -1.3143535924763041
P 1.9412871418748372 3.4063051444450854 5.936173569746089 -0.037910659002844384 -0.5354841696216455 0.2550470058416575
P 7.073505406271464 4.374242277683829 5.724849620021452 0.9367130454704254 -1.404757436281858 1.44919329799773
P 2.676498016882754 8.70286305244023 10.382769469899813 0.7037124779058462 0.23926994551305888 -0.10232142117874636
