# total energy = -340857.19404964 ev
CRYSTAL
PRIMVEC
9.37601562388123 0.00000000000000 0.00000000000000

0.00000000000000 9.37601562388123 0.00000000000000

0.00000000000000 0.00000000000000 13.72274660773301

PRIMCOORD
 96 1
Ni 7.033155689184421 5.970674959992784 7.521287008547955 -2.4496457906086455 0.652645998247334 0.6580054627870345
Ni 3.771502336919106 9.12582614931201 3.5539993986683114 0.6135454327014467 -0.16708648137027352 -0.9390481213615054
Ni 0.9723772177987409 6.398361918597047 3.7630657979439417 -0.9132553286681175 -1.5337301414995457 -0.9055970407919114
Ni 1.6768816655147503 3.8687316202848017 1.942756406640372 -1.6588279371428594 -0.21183036124486745 2.3120712026545602
Ni 3.3012951468718885 2.3648843255042764 9.367353252728469 1.3324135353018087 0.3879858947959447 0.1279640614475151
Ni 8.860738055908122 0.7153609363571991 7.272245966106497 -0.7622616390946485 1.0252317564381246 1.053451156295134
Ni 0.3365633366973664 7.531594062665979 7.2721634571678635 1.3694595323115124 3.3149765276813428 -1.2341899383415196
Ni 0.39643857330038784 3.8559146067495162 8.768396489554823 1.2904842420578744 1.95677457056152 1.5257797763042176
Ni 2.421449828546248 5.76623093648372 8.895029895925644 0.07549530212483772 -1.0854511062404983 -0.9716576798664105
Ni 7.418969361432735 5.303758959433291 3.633673967738386 0.807746510900325 1.3650565181478105 1.4292052849115773
Ni 8.397619133770691 3.8753042073281336 10.894763412699573 0.4374456920889692 0.6883239112649178 -2.6101044822497568
Ni 9.044404828507025 6.659755861793983 9.624489547171658 0.9203677713431826 -0.46910471375514695 2.073182808850636
Ni 3.4076004134871494 2.774400565577902 3.4888163995471295 0.29883494956088535 0.27965786241180224 -1.278726330190998
Ni 7.855497902892723 0.1791306561772701 3.190442512616091 0.19572754214573387 -0.0033090097685749466 0.760541056859116
Ni 1.696008737652264 8.481346954451082 4.419149687503204 0.26474957784140213 0.300607725190592 0.19517964006206387
Ni 7.113367503957182 5.435904525465704 10.157261952741626 0.018964714027960888 0.1177200151220037 -2.6284608732697574
Ni 1.7983479496037171 0.25796325903266387 6.524754361363 -1.437468296251318 -0.4853191187314803 1.1931885562284936
Ni 3.6356719966954962 5.114532209492454 2.5699002859743154 0.8195959540397434 -1.9378790192085977 -1.4349804968324575
Ni 4.68931114303141 4.0986877826596375 10.447744984814365 0.722707273840794 -1.5311883489142983 -0.07332734793924145
Ni 2.9230291673052893 6.817788607322316 0.1130438091374334 0.5454561932326928 -0.4257335458583636 -1.1516626690705651
Ni 3.511777324526325 2.112228828989773 12.355261636244519 0.6082589874915266 1.5606282514419703 -0.09333155897531023
Ni 1.2600052530744834 9.286896723944537 0.13717017287481126 -0.6889378906998329 -1.489955053296124 -0.5584148102758899
Ni 1.3393450983821515 3.4183828316038856 10.913536071441598 0.8234410388174465 -0.9215504787973741 0.5267907556127057
Ni 5.621437125199588 9.306220692412877 11.568028851127462 0.5031564040232174 -0.16390114166375644 0.7334377728844207
P 3.5723370102793655 2.23038537951769 7.189717337841 0.3385914035232168 2.881964445883695 -0.29448978521831215
P 2.9815073775610124 3.748887386921222 0.41528155216056517 -0.29392259986093255 0.8266559462103182 -2.743458347254275
P 7.8825570843578525 8.047715601858984 13.435364587045203 0.1281008441356955 -0.6694005919978535 -1.56631784562758
P 1.1017006030892946 5.965358759060446 1.4499183273684895 0.2832782327732089 -0.6151441446471342 1.4952019035173603
P 9.35711370592387 9.108574280325234 5.517614627555903 -1.3104660844964398 -0.05639149141585127 -1.2095466858715427
P 4.856157343368205 6.09720429258874 9.70187261799153 -0.9475433033167101 -0.5380231339934154 -2.554406160246188
P 0.8086701075362799 6.012416982128182 11.530537914534783 0.09467881703182404 -1.334477874030005 0.3126589999281712
P 8.825249836280433 2.5644903248844404 0.980675929342326 1.020501955062623 1.064902078444553 -0.0756361985780762
Ni 5.2286852012935485 0.4186334777925069 1.7245652688332573 -2.1193474803321566 -2.4005251218225947 2.0852343406985314
Ni 1.5457018291049671 8.146257527430194 11.428386222898405 -0.4655095402047209 -0.2755986047407641 0.425868271664015
Ni 1.4053241212408207 1.2247701858721416 8.914625768850843 0.5679502605701509 -1.0445803361680654 -0.1295000384760673
Ni 6.490284377046159 3.3179094467874153 3.304368604835946 -1.0264592010873226 0.6872836429258615 -0.5554549563166176
Ni 8.472524123626867 2.5156975389022724 12.417494003208017 2.0449353839691686 -0.15571680608075117 3.2741096142636517
Ni 6.46012173436656 3.3868700426557563 9.110559182860289 1.0891879475751114 -0.3722697696122686 0.3568441790858177
Ni 8.83743865676022 5.596234394853688 5.722618399205462 -0.7235598516490764 0.29237839530226417 -0.9553571429341741
Ni 4.913163519150599 4.1942950152999465 7.432061092229603 -0.18254755312035012 -0.2950364017504016 0.5526743082476868
Ni 6.125182323597731 5.3096283452950965 1.7649233910434114 -2.2045633521788677 -1.1247948981454434 -1.4234028192971873
Ni 3.3095085366721153 1.2553078691818882 5.188172374823459 0.29723803738741067 0.8704431185985976 0.33129589830306816
Ni 1.4310612844846813 2.0915640902686548 13.62421723395747 0.04533189116757999 1.9835641799505388 0.873808949747037
Ni 6.774077621878644 1.8334798806327686 1.4827428209205593 1.7548036186092362 2.2857209947958057 -0.11089939265574449
Ni 6.659971510156319 0.5313078719092452 5.8728690516582365 0.6704899684072904 -0.08451190380115123 -1.987247542339397
Ni 5.784251638762299 7.545676838328011 13.734136954645775 -0.6943248660433591 0.3596358828983419 -0.5448113605598424
Ni 8.51137833291013 4.782986916426459 1.102599763000073 0.15880315831555875 -0.927044669142726 0.4777970993228223
Ni 2.6029132374430346 8.024144298254225 9.352916063670946 -0.7094491232793072 0.597764515718106 -0.7506284257310943
Ni 8.761858593769778 1.8070395162073818 9.740241149658754 -0.7254580971130538 -0.28295581643678364 0.7723475625757409
Ni 4.41337499940051 6.5317169906616845 7.083338938302861 1.0431965684466615 -0.9726658094159506 1.3969376831271232
Ni 7.31789591160803 9.332989217389644 9.20925299988671 -1.0108772874886653 -0.34056549653045215 -0.2684151996184474
Ni 2.957092232538421 5.320082602860453 11.114848505688933 -1.2690196444261952 1.4600873192024144 1.4612175761521158
Ni 7.16294787526266 7.590484817614863 11.187784532236835 2.304702163883998 1.2817975129171537 0.26797117010249333
Ni 5.704968049549153 6.060440934818548 11.603158906953363 -1.770717204515699 -1.9734085795737752 4.483758372930697
Ni 3.8858709770825346 0.2836469789867285 7.250083877669515 1.320677477811803 -2.9717854206025853 2.3386828917048175
Ni 1.8607359584287257 8.070621208345232 2.0158855791128003 0.3844177178287121 -0.4261955730964466 0.26876538386901455
P 8.357049113604502 7.277466531678146 3.5256210117866384 -0.5000109164157002 0.914031801822826 0.4343788802381874
P 5.469761318352253 1.3078510614655292 9.862825992427135 -0.8837573192090005 0.977029228590969 0.8486123958767513
P 6.6274929915855605 4.763681699989626 5.817045191462382 -1.9598208135870119 1.689086736027401 -1.1132822695201536
P 9.164605350469245 8.689278855820517 9.991518371857467 0.8621963052087731 1.597791233645513 -0.11684198339242459
P 9.013951529339062 5.798203150203779 7.807035152665083 1.652625407876573 -4.981705979059466 0.0627590855050919
P 1.1157552507040658 0.9301598316646311 11.878587808131988 1.1735234736993982 0.7198749465983215 -1.3217162034889625
P 4.284014110046942 7.584737319957855 11.581462806499339 -2.005216982333624 0.9108413199099862 1.1217836221229456
P 6.2254588120833745 8.254325485007149 7.455788037695874 -0.32468482074445376 0.4500327847253604 -0.2949587544349307
Ni 6.983481557721408 7.49081777015321 5.445954676752077 1.179391502444401 -1.0307197761358895 -0.22808821786462657
Ni 1.059124115551819 4.484117038262051 13.367368783197918 0.46434791579645196 0.7047031239538896 -1.0955951366530359
Ni 8.873648829600945 3.3035735187000337 2.9133249910002275 0.0322298065679832 0.0029796514536142233 1.8592438859031981
Ni 0.6282605628102074 0.9281271114492325 2.192331881979791 0.6933702154395736 0.8507456401696702 0.5857924309578944
Ni 0.6551753536327306 7.097822069837575 13.527856169650564 -2.159074109497817 0.15130273617345555 -0.8611835476735425
Ni -0.04406633644073612 1.8719121692071163 4.694689225667722 1.2277832634842274 -1.21332440774642 0.16237416349626874
Ni 4.79039396887187 6.053615195349867 4.6381237226257515 3.7094824829839923 -1.3689517394371584 1.3359721991873443
Ni 7.700437354358308 6.841331782879815 1.456655932289086 0.5177600128690051 1.7454615152727033 0.35153793638155584
Ni 6.13098607734926 7.866252192962198 3.129788129103938 -0.06319643015282665 -0.542115558895234 0.4078088430591428
Ni 8.370288047848703 0.3721556300999235 11.837570552014348 -0.37706719100091185 -1.8122130097666405 -1.9520691946660509
Ni 0.5711081211820555 3.5452778288142355 6.54140053973209 0.6403592104601811 -0.4673028846597178 -1.3385276186193464
Ni 6.007532077920513 1.461242679195788 7.796331493080679 -0.3016587921629256 0.8887591432989661 0.016759478846525976
Ni 8.251362664028985 5.319379401678928 12.589522327451872 -1.198202207393001 1.5951429973893885 -0.36971923527627293
Ni 6.35089115083615 2.1617716962322353 11.882210700619211 -1.38079963991468 1.311256441608219 -0.2578255970280592
Ni 1.8645613728562285 5.685203408340389 5.904088371313276 1.1324832679286367 -0.03666804484499492 0.3439989476920334
Ni 4.769335437489096 8.260419895247043 5.688970691470218 -0.3774222603474855 0.9457041932254424 -1.681867335460826
Ni 7.6527228101878135 3.0413357340852656 5.780734695253092 0.3087763770443134 -1.7645943794474128 -0.08343795401068212
Ni 4.913454175638963 8.492195004678093 9.332482912538945 0.9192971639868232 -0.5761135131072336 -0.5916643163576392
Ni 3.482252250917976 9.40133099621824 13.42814693011802 0.9770240863846464 -1.6446799277772515 -0.20739777939481058
Ni 5.218259071775453 2.936990054762524 5.4360470409051596 -0.23937921739741352 -0.6809751842093305 -0.15972746990204104
Ni 4.705137857623628 3.033084840222024 1.0473431517573157 1.8153006475530282 -0.3918191524991058 0.650222733517822
Ni 8.36172774546559 0.6509655225593268 0.3314121536422927 -0.020439755911590606 -1.1901615964767116 0.8110179825627452
Ni 4.220388467142447 7.2664965932463375 1.957535820272903 0.3492776795924694 0.42722632835380614 0.16803856087089772
Ni 3.3816100978179393 0.20287541607347304 10.888930593299207 -1.0146429251786846 1.1763727702227353 -0.10172158281121836
P 3.100442137396485 6.569061661408606 3.8890400704072796 -2.849297808888609 3.0744922501452083 -0.007310674728800312
P 1.671049783715959 3.5030295018281383 4.597683091476965 -0.516240490900685 -0.1790685934328142 -0.4684452257942771
P 3.0064663314973177 0.9295222625933807 1.6171433187417323 -1.1135141830253017 -0.4222376168899631 1.4705360253395643
P 5.957839194425992 1.4298517784524563 3.8384855310649946 -0.6429256856357766 -2.22936498460358 0.2467369433140654
P 6.124104081786058 4.155881478757106 13.275577588969359 0.5932512012287847 0.6133052916661825 -0.31465006221627095
P 5.4340574503622285 0.9646701328492133 13.497021266641427 0.705593754088959 1.3121689261201595 -1.4397722617941462
P 8.274830831460454 2.8268124936409915 7.885323946606764 -1.7250477275030422 -1.3490771120004184 -0.6276088527730482
P 2.5776448749868583 7.423319832742444 7.312576897870965 -1.1322487833203274 0.8681075284868855 -0.9590615883689546
