# total energy = -340862.80522434344 ev
CRYSTAL
PRIMVEC
9.33089098848336 0.00000000000000 0.00000000000000

0.00000000000000 9.33089098848336 0.00000000000000

0.00000000000000 0.00000000000000 13.65670214256344

PRIMCOORD
 96 1
Ni 4.151630521120116 6.8971517996341944 9.854703572888331 0.3002374863353668 -1.431222572451922 1.0642770432660447
Ni 6.559093629702965 6.432202847122374 2.429281530298283 0.8112542669432674 1.3661361243652341 -0.3955472520829704
Ni 6.164658218183977 4.383820405209786 6.560651888449267 -0.7324108742818032 0.8587173455212371 1.0039890450092643
Ni 1.3705305563805954 2.145274410904195 11.449724162355912 -0.11887289777952428 -2.6668088769203364 0.8315770376610195
Ni 5.619920819327085 5.486629045728751 4.5496891174965235 0.42886772061197104 -0.40597873182893957 -0.8746892954694614
Ni 7.247694701317233 5.835445732632952 13.18852258038646 1.4079952264928655 0.5305772192383313 -0.9125053378759704
Ni 5.185213283562355 2.672199139421625 0.049302560261734255 0.04178068348121192 1.1870258790612074 0.23547705412952993
Ni 6.299750853686719 1.944249701740562 2.48470048941152 4.250725409466286 0.16493112559016757 -2.031209549742644
Ni 4.26736155842779 5.512867510367079 2.423504775868131 -1.6698944793696662 2.02983041000693 1.0909293557462503
Ni 7.797592082729243 4.487038718093563 11.264047835298816 -1.2847241996456455 1.6423841897645395 -1.5984643484531373
Ni 0.4119681551375581 0.5183683017488143 13.20553932574952 -1.0526985943998257 -0.5036282014533133 -1.400207869237963
Ni 8.085627347636976 3.010966457045782 6.381476392940367 0.8273935957072912 -1.7823157079865755 1.0001023083603486
Ni 5.200534606085874 7.795156720257478 8.017890679715396 0.5021570162244255 1.42621920570006 0.6798130455804292
Ni 0.31637691230903264 0.5399478526624206 2.3945248955431953 -0.6310371617283067 -0.282434653825991 0.3517225415885362
Ni 2.7418635693610827 5.786747814088345 11.867455075587577 3.2487989034130043 -0.3979620321720501 -0.5354954824755552
Ni 0.8636084582490772 4.012749543994628 10.70307095427388 -0.3396895216834021 2.870309892363902 -1.0799543447919853
Ni 1.8974459540073287 2.38990237229219 3.4037008471908132 -1.4311436395848707 -0.3897923518770642 -1.0491977803354187
Ni 0.6562947287560585 8.941204708263646 7.795450643314415 0.3468580144073833 0.8562310887642737 0.06781207454796709
Ni 4.067820460884889 7.307403070883612 4.860324732760051 -0.7822769058743109 1.3785447824422326 -0.1530963377387686
Ni 8.303783572119233 7.946830348527755 13.235119182346233 -0.051741908458981856 -0.08595223579210359 0.47919860765603917
Ni 5.204341609490013 4.8716300399278305 11.742715063312513 0.3552678357376333 -0.3212536835757177 0.0798872605449463
Ni 3.296426396121303 3.466313923030988 10.747783649402047 0.19628212909762327 -0.22026409383451745 0.7812363804249384
Ni 1.5339890996004486 7.719707138086241 1.7855181877475141 -0.9314988482593376 0.3365653742321236 -0.09890931017340385
Ni 7.493153111977208 1.0070737019737153 4.6236401586219165 -0.06142673984691356 -1.30063701422116 0.3429514802641255
P 5.110584819772403 2.036625519635102 11.032170536047479 0.7049324663558763 0.0021193603358479625 0.39711639634230317
P 2.8648260469584814 0.7586452688050693 1.6050998175978515 -0.22786401766896242 -0.6960397918519368 1.0143115099811952
P 1.0375017365347348 5.271962574366955 12.680862408800856 -3.0834584581995603 0.4599639277961433 0.44692149278988835
P 0.34141169204752253 1.6590790202766303 4.958024756885966 -0.7316554841730173 0.26204914819110353 -1.821594193871224
P 5.340302017827521 0.2173976230686377 4.884415226360063 -0.4887852229032098 0.39174819005185435 -0.5219794502669913
P 8.423872135382133 2.168489666956883 1.0283350695145737 -0.7305833341547611 0.5768336791027098 -0.0034398789194843983
P 3.970919161002586 3.3990568628912063 6.402193769553625 0.9281487008401821 -0.197965173227001 1.6340080498857021
P 3.068332773047361 8.664002607454455 11.71747780324591 1.0656327859629906 -0.5242960142153099 -0.6293895988225547
Ni 8.91446237552771 3.7550023502874694 12.987413893206561 0.9089721279117313 -1.2657875106421426 1.339352685623803
Ni 5.373165414860306 5.352982698283954 0.5051678906805915 -1.35678219395416 -0.4045959925487999 -0.2283828662869099
Ni 2.9852411913957577 8.620604634825414 8.35612613656986 -0.3454523923091083 -1.6131844282721313 -0.25716868017035066
Ni 6.258032441383033 3.0032124868770587 4.700513634713427 -0.31653545216444195 1.0015071591276752 -1.8166517622642844
Ni 6.115811005388228 0.13258822443982343 12.684344697208758 0.9531992160509067 -0.5566032109884479 -1.7244566308862623
Ni 1.2882414313288835 6.866238558756962 5.562921207329874 2.165384625096877 -0.26384737774210687 1.5256201107979017
Ni 3.5730873052701013 1.4685422322557715 7.621682398964089 -0.36913199531423524 -0.14975647473225823 0.24558071822243513
Ni 1.25008741927123 1.8150635200486527 6.817521045341893 0.105545841653315 -0.27009927218908963 -0.250577142995762
Ni 5.135544952385322 8.9447131231655 10.574179628727975 1.8017529907755807 -0.6468823562906795 -0.6147129706469865
Ni 2.0967071248293383 5.640196844810402 0.9076288012875691 1.350452137971074 0.5332215988397139 -0.7748297055676462
Ni 9.236303457428567 7.124144377605959 11.30504496975167 -1.6283395387460151 -1.2151792015669716 0.8891291250438752
Ni 6.966377677710921 2.2808989071766326 12.425318238387122 0.8271619393124594 0.24796413085294716 -0.6850542393747105
Ni 9.432504096102152 5.90185368171936 9.211582195617476 -0.39038113450099865 0.14295513553970865 -0.8928973338370557
Ni 3.4668364529099875 1.3915717149010183 12.460633793494926 0.055489034206239914 -0.08568098440858793 0.8511523886897857
Ni 6.8967878948970345 6.837247481363191 10.657894513878102 -0.9859072478068892 -0.3353299591631257 0.8897189361090742
Ni 3.530230524301453 7.944394986055991 0.43123084589124366 0.14219203212143897 -0.2281545523261877 0.669239383829641
Ni 4.12835927972325 3.542155402611475 8.655112134798907 0.010189281828176 1.2175042501557225 -0.8353264774011228
Ni 0.09822815253933323 6.27890564387092 3.7411170518421297 -0.7842016337008495 -0.761118783739457 -1.4050983645610444
Ni 8.503903184885312 2.841312202403507 3.330692226025759 0.7522687895479947 0.4962067121782615 0.05048463901311306
Ni 7.609388017382489 7.4783263266606 5.139836229016604 -2.8848607935948833 -2.615307880827567 -0.4339351078325494
Ni 5.665278279002374 1.7716095620754335 6.556555627433539 0.39387963457256037 -0.0613380367878492 -0.08584836322438764
Ni 3.4662952612495954 0.90775663449011 10.052602433668664 -2.489669382189435 1.5594979944922691 -0.2797727907231117
Ni 6.4286384468763424 3.2638989111535897 8.71077742942653 1.5453705539519516 -1.2483562025395727 -0.20578004128572946
Ni 8.244691041338816 8.246062682271189 9.51136038646665 -0.3768399054814542 0.6709013449130963 -1.4499584582985288
P 1.646995516824769 1.7469386870741037 8.949605309157631 0.3657075430137186 0.12516978653182959 0.9371154231151667
P 2.2343377626015064 8.9019869746666 6.214905064584189 0.7802048538366305 0.6455816352013849 -0.7537564298371148
P 8.207535434585678 4.554314440014738 4.975587359354765 -0.6807216734376277 0.8111946173499255 -1.8401673288877212
P 5.886205778021466 7.895249184757956 0.6951756171989634 -0.5339075691631451 -1.63361235710918 0.08519530302142102
P 2.5921307663556608 6.007675313107438 8.507810961908971 -0.7341849354630904 -0.03772245425143826 1.071983667881683
P 6.038681862891636 5.063977020743795 9.751977931033325 -0.8647398975662334 0.1807313258472178 0.16328870489073816
P 5.626872332895917 6.739832982492585 6.307402184057781 2.20456720883361 -0.2237875336067436 -0.6405808395526839
P 8.9376776315804 7.283618630498442 7.241261052182052 -1.364336095042018 -0.27890632895775835 -0.19919930274441824
Ni 7.491772140154138 4.288990563062088 1.3297900214218943 0.07770130863722101 -0.626702796019011 0.45687089069311637
Ni 0.008562958392102943 8.644510376789638 4.967092516464746 2.0990841020974305 3.1144145402614427 -0.5155167253607832
Ni 3.230503653351109 1.760561787490874 5.115964078258888 -0.06262281703754377 -1.949603506734378 2.6841229427187514
Ni 1.272761483663526 2.0646648461778385 0.8923345383470701 2.2330198077473478 -1.3614412899927262 -1.06633546845697
Ni 1.5715459346535317 7.740608333246217 12.846313097184394 -0.9173955760887361 -0.59600099605978 0.3289780488031689
Ni 4.698448708602309 8.615351343363331 2.873151067637825 0.10668201214028723 -0.5589323733422568 0.11892457695306616
Ni 3.409582107596766 3.4159737677238122 1.554309913359108 -0.6600407480495084 -0.17981704156306452 -0.545110636967816
Ni 7.380389297910995 9.009236232331231 6.943763331019082 0.06467121492614024 -0.03979270651690566 0.4142011197387318
Ni 1.7887037538312716 7.087427322715554 10.23538338534266 1.6873772095354618 1.2984988848322345 -0.9789506139833978
Ni 0.851622929149528 3.965012707191753 1.5479462459041509 -2.0463248081175274 2.3150554820938645 1.8810488975934314
Ni 8.186475614283863 2.4360902812394594 10.329232550878164 0.3379473421813148 -0.4528352871711621 1.9953727425496925
Ni 0.8795110952629825 9.363362196041692 10.260253008315823 0.87770982746334 0.4856497625980216 0.3284229476306473
Ni 4.396435769431343 1.752182647645491 3.213312420332028 -3.2754435025837267 -1.0129485681953974 -0.1490905590134852
Ni 1.7640608715020312 3.937897138827962 7.760475665717031 0.2179932955224697 0.8067342675857266 1.054786587277106
Ni 2.213707163271726 8.936082049271311 3.679074093423506 0.8188948142076606 0.4416530453020974 0.8662650759615081
Ni 3.3115797626122863 4.013999883347949 4.5291770204785875 1.3267082573869151 0.16823910691747798 -1.3483281496495358
Ni 7.350651749261511 0.14583622305059796 1.0812748109697718 0.760994856567083 0.8395826815743154 0.8969722752373778
Ni 8.544520552086821 1.5034677561324647 8.37076630407254 -0.17806997696497073 -0.5064556435997793 -1.3140046937773178
Ni 9.111241529424474 5.242243687498863 6.792392956696438 -0.42050109381483064 -0.21906390287882918 1.0475993255000473
Ni 3.817911215362721 5.762422182042783 6.838456764797446 -0.612474568234771 -1.3015983496931647 -0.559384630388327
Ni 4.873757483006615 0.4985214972375329 0.8171966079250932 -0.7746204177703175 1.3092885192485708 1.2741736778233088
Ni 5.021810725686681 7.218750278376943 12.366662393291296 0.1569679048790329 0.182647311923008 -0.3096119855717313
Ni 1.0983857983288634 3.978579822264345 5.299155589123527 -0.4119478049281809 -0.5145983273115718 -0.5691692205789165
Ni 7.053892101552627 6.197372320965619 8.197434745406806 0.4158157725240193 0.39647259211071717 -0.5627612601700437
P 8.973685538777877 6.488309492879937 1.4970201106612397 -0.12055311369542464 -0.6169498303973052 -0.44407039649433844
P 2.6756608998699956 5.8810644572477395 3.8901528373125296 -1.7216315027326414 1.6658069395638537 -0.05359567383826899
P 7.9424354990097425 8.65130326521663 3.0688655669061267 -0.07598381172548205 -0.7839213834562693 1.1647858367160844
P 8.267299789496237 0.40087465918858656 11.193251568317883 -0.44040811715140277 -0.5683482673395179 1.3456107507183728
P 5.273016965015651 3.7784415477168722 2.820941934924157 1.0046917275032439 -0.036461071040511404 -0.07647772064276506
P 3.504626560230481 3.90794497969246 12.896173644709775 0.5705846128692044 -0.00197229323502241 1.1316648857923994
P 8.792918193316169 3.8966732637311865 8.8693176601603 -0.29166414284405895 -0.24936281097268667 -1.2174916517502323
P 5.957596422739761 0.6204183871174004 8.33210375847193 -0.07007824487432446 -0.3180562596843426 0.9807419015558656
