# total energy = -340891.6316535022 ev
CRYSTAL
PRIMVEC
9.08841590660842 0.00000000000000 0.00000000000000

0.00000000000000 9.08841590660842 0.00000000000000

0.00000000000000 0.00000000000000 13.30181535047788

PRIMCOORD
 96 1
Ni 6.4119137560167125 2.0838192578933357 11.60873357431207 0.14327703765550162 -0.08041665068585506 -0.2882301774618456
Ni 4.553369062506267 0.31445737171642835 6.072305102197843 -0.3432751821521314 -1.449639127285897 -0.5668523995202818
Ni 2.549564218008136 1.6730864790917084 4.859698663902462 0.8836228505136654 -1.513688392357322 -0.06087446688786934
Ni 3.04693686538047 4.1597225055564095 5.001615186688408 2.332432025699099 1.7667199104308478 -1.997251447629644
Ni 5.097274399177038 4.467565328196391 2.8550749531336694 -0.4382823290576517 0.09103787784512708 -0.5701045879089923
Ni 7.284201735213106 5.895709910943918 2.6445336197315803 -1.5328202280907666 1.2788273745452363 -1.1091649049176704
Ni 5.408743499752583 4.68005249143809 11.550019681211543 0.5113741639473194 -0.3327704259660656 -0.39784093321315356
Ni 5.945250865898172 8.057280566678687 12.459264794736681 -0.46619036832182936 -0.08557222674486555 -1.0100049121860413
Ni 1.761035079548933 6.620692845579941 0.3381590514862326 0.6723815290030485 -0.19062287392931687 0.0031146343695817326
Ni 2.7734209895139643 1.5572455303030566 0.31025397937257526 -1.1056720612730635 -0.2820921828849077 0.7899711891947749
Ni 0.5859383512677148 9.040247274444686 4.753656845114118 -0.39803890815657256 -0.13194772868561144 -0.2823796322183395
Ni 8.547891432637341 2.3323419900936875 1.3307531181924341 0.21678230593350406 0.7125349612934826 0.1517184835546355
Ni 6.6775045332370775 0.825017310528612 4.816959479391751 0.2771068138551743 -0.4793487600806583 -0.3429134279373385
Ni 0.6562090739994719 7.632397124354078 2.3369425462114353 -0.4115796229554847 -1.0552750968777502 1.265416500455969
Ni 7.611021170207607 3.5906967873971842 3.450171701082251 1.625716499300871 1.8492312388622023 2.2448054875283665
Ni 7.634714670403121 3.9132991974240148 12.684039496246246 0.7101852301143834 0.06939484565405468 0.17454268053800265
Ni 8.123898655068833 -0.26325959854750375 6.715926720205452 -0.8596457708727775 0.07698139975206096 0.09218818939948639
Ni 6.856582679709037 0.7924716932673409 0.3801339002215526 0.054957330072485995 0.64357231808084 -0.10505527517014167
Ni 1.9879364703740923 6.46917986446778 9.291942772628259 -0.28728503993975685 -0.041338196627154614 -0.12461699935215312
Ni 0.13033424559025727 4.8318835671060025 1.4000559246331203 -0.48664940750712965 -0.3571820220412107 -1.0231915860796443
Ni 6.39256451861117 1.9261988613107537 7.035981647261511 -0.4701251845998613 0.48222248208402757 0.093690999197258
Ni 3.454007012583021 4.580461630240377 0.6317421496126895 -0.4939953063492395 0.9680301104161522 0.26244484096762544
Ni 6.093501105709917 5.719112902006816 5.007720784475652 -0.8501506868981488 -0.22406135609342057 -1.2927277866764124
Ni 4.953750135622167 2.7150006522463155 9.576641944233382 1.8143225999104755 -0.5836139352493368 -0.22241379318766857
P 0.15746862003740922 5.62480241043457 12.455367682007935 0.15063527779278574 0.07433727726099455 1.0929975511291887
P 4.268865291842532 6.276796277149547 12.562154750898324 -0.7178273200406734 -0.9900305259466433 0.44851686230146626
P 2.4168188156852866 8.390861783086867 1.4465322657531117 0.8101846880281725 1.0807256757403712 -0.985996979307218
P 6.273360855947436 7.919591066117878 5.789854404681084 0.4422037755992449 -1.0553324324782472 0.1171731414795982
P 4.674681237653837 1.3035333126360233 12.81508900016615 1.14420287035841 -1.9203109284178477 -1.741513072147917
P 4.253969378217505 6.057392829424233 8.091880165928522 -1.3450659339584965 0.371134884676877 -0.6525498389891019
P 4.7095534893800295 0.9255733614926323 3.816436678673058 0.7804115705307979 0.803579524006829 -0.008617309355365803
P 9.11240929652078 5.5478053511110605 3.510003469335847 1.7821033348654534 0.0802173901908554 1.0625731732010604
Ni 1.3245639069791069 1.29205464338135 2.714062727727644 -0.13872772772192238 -0.8192635104009891 -1.227846512621995
Ni 1.722581991966571 6.68365739078689 4.9265530511054525 -0.5913892083193815 -0.8889442627265789 -1.1203543458755867
Ni 6.095155197399822 5.705207625712556 9.094424230338618 0.7951375638870629 -1.0807529294338807 1.79645266160859
Ni 8.694323989273364 2.27475778708687 10.173254639950514 -0.061276073201662215 -0.3738743950952271 1.046898442778281
Ni 2.310411642578623 5.115914740144049 7.0528088492607415 -0.23166590791355587 0.5563090767867968 1.1002118094894406
Ni 0.7716892126777434 -0.028370399006641733 9.109242892428675 0.04404119738061448 0.051913915260471885 0.9370979396136699
Ni 1.567197345690125 1.066053005728172 11.40636000026008 -0.1943484024100201 0.8342545844931826 0.45365392641771546
Ni 4.2899867703444015 6.795726646985923 1.5633356777833072 -0.5123609533406208 0.28769898754872386 -0.0004188327049734723
Ni 5.753403495116779 7.787172846766658 8.060075254561356 -0.05867668790560217 1.171093524101667 -0.8816724116555138
Ni 5.126693601376071 2.974647605482075 4.776987717516075 0.7458623718010187 -0.45049943994913383 0.34144918468698615
Ni 0.8950217426751261 7.4692873245808205 7.1848289959964795 0.5418324804371766 -0.10302436078304193 -0.5259340640393653
Ni 5.078779472864085 4.191195689744006 7.234271796059246 0.7507904052302554 0.8953131423674 -0.26102687757417625
Ni 8.167550316533756 7.460680594743785 8.849006101002395 -0.04429239415947211 -0.9918279841666985 0.682895798270811
Ni 4.779779678873982 0.5006417505638662 10.629574003957618 -0.42923384570213824 -1.0167676848311715 0.3830941139212822
Ni 8.15803474510886 7.122191633761159 4.735380040782251 -0.08000784528321059 0.6195710700702363 0.03528247735137795
Ni 7.2262358187393865 5.891838245779633 7.088338193454957 0.7915755575674174 0.7634805991034141 -0.5000548822797583
Ni 2.073140369235979 5.323394186236638 2.718492421626874 0.27044020046827616 -0.10037355342375617 -0.4920875478035654
Ni 2.2175007670516815 5.27666155178887 11.475409239897754 0.9944032010930424 1.252593894770004 0.42352676801503186
Ni 1.063544602945678 3.3140181428049256 3.985343978935275 -1.2582508359454654 0.7801444329123403 -0.38403719456084184
Ni 3.4587784309192866 2.359470911491312 2.6873255170543864 0.9627542067291934 1.188091087100928 -0.13147618836583164
Ni 0.9846935067829335 3.1372121003026163 8.472737504054011 0.7725337104446179 0.6818796983014708 -1.3813848229941887
Ni 3.7932048700041774 2.3636152291319545 6.81687448189384 -0.7832559819581285 0.4094769747901851 1.016030806665147
Ni 4.016116446258631 6.730317317907629 5.794444054699778 0.33144605072768724 0.6662203944976591 0.7770174572475844
Ni 0.8219163430308333 7.481347652451724 11.402116618886362 -0.06212248036235753 0.4135406033365974 -0.43695692537800873
P 0.2164324445745986 5.533745571746864 7.9838298072310065 0.02497749588094408 -0.006415159497724435 0.6239069784414286
P 8.510747076941497 1.4557097481073231 8.03222107757662 0.27899271802397757 0.18109179451043006 0.4136341914916683
P 1.8160381724462278 3.418353157091268 10.46632060721348 1.2670517220665467 -1.0439445023562794 -0.6019860099986213
P 3.8044926825254004 6.030027609213765 3.735296210550494 0.8513886730703079 0.5344791253958988 0.2545201868039101
P 6.927999451683085 3.7163532253347253 10.192968322832789 -1.174122797846294 0.7756360035190254 2.5764999068214336
P 6.511359202560368 7.954672351409278 10.173520930535757 -0.24478470468370103 -0.5514818306014825 0.7665281276804864
P 2.374003288481196 8.496950861637782 5.810857733776532 0.9851174049157421 0.6489196984356824 1.0088787690013978
P 6.788328676460741 4.010445274750384 1.474546398857312 1.08904190891555 0.5047098645532663 -0.33731073703858033
Ni 5.155967388921046 3.0180084376388816 0.5234518567359796 0.5911020160962659 0.4810690852058747 0.833763246679061
Ni 1.505677858607873 1.0746688239810862 7.110125852840729 0.12728734709546466 -0.0729761352474098 -0.6105138449639743
Ni 6.8562009662421355 0.8721198435026389 9.277031408696237 -0.6161651297124807 -0.43214227759818474 -0.03871310029948171
Ni 2.9497089923111934 1.405977936419617 9.234705747108004 -1.9827208581136369 0.4801697133200569 0.33604806827607286
Ni 6.338188526409499 2.0580626872933796 2.6100957942843843 -1.8099424685649086 -1.7198692686258963 -0.8089554436067617
Ni 4.433801863207388 6.934115955569385 10.437562132848822 -0.5223540599975908 0.6929639811400904 -0.12111772794964303
Ni 8.254181096688583 7.4126664936571345 0.04821949928550691 0.14370229811837834 -0.0458301709602372 0.48844712283750064
Ni 7.634423841095006 3.8200338736778083 8.343244845774112 1.0169039532987196 -0.22304577034471262 -2.4311667579678518
Ni 3.5313494317099177 8.292952278826696 12.44382175847576 -1.4329387838120806 0.844934689914848 0.630957714640623
Ni -0.09122770090622385 4.746188893786671 10.547674653109189 1.0983341328507534 -0.9918449534475628 -2.238604243813661
Ni 8.53068706137915 2.1822740671062233 5.9708120355567385 0.8903311157717763 1.419079252221169 -0.4656848894403206
Ni 3.6514437591297546 3.271966042534637 11.986611729712553 -0.8802094539567421 -1.2604781826140872 -1.6128869516363706
Ni 1.1659074309863644 3.406683631103144 12.586936134474506 -0.510953531470133 -0.049375979329966575 0.9238359323974412
Ni 3.3455367690719147 8.093697849104242 8.054754895906024 -0.766053759147229 0.611984773082546 -0.2288991438016961
Ni 5.6225848369601925 7.574640241445567 3.585837211426896 -0.40367913716148535 0.9945173580734032 -0.3269980422586627
Ni 3.0728842927138764 8.642220101041344 3.504842157958389 -0.20948037295545216 -0.8690210414400905 0.636913932224058
Ni 3.8866156084044414 4.590158969982844 9.61278293881623 -2.0539828388834174 0.6959983970910399 0.12773703303837355
Ni 7.394735049128655 6.14254219779085 11.262261348821681 -0.9424280935773317 1.5910284610003824 0.212533300849163
Ni 0.589667328302705 0.22943524117211342 0.48619298700006586 0.144691401504525 -0.2373202779858558 -0.39398839223628274
Ni 4.672490929427093 0.2871294140110622 1.6058085717087744 -0.31020411062977543 -0.4481389101367573 -0.16300459799141606
Ni 6.268407669293599 5.896646017779413 0.17607442502408174 -0.04947496680167608 -0.6793453619153913 1.2379890003726357
Ni 8.004694992405101 9.08031810005344 11.406107342298654 0.5776775151602438 0.12683303316686542 -0.07765631433189853
Ni -0.12710422258700238 4.925557869566746 5.670763438374245 0.7048576472538829 -0.7798490131591085 0.2749535149575974
Ni 7.950964277730809 9.186843422566524 2.43479115808522 0.04974776084708851 -0.5548636025895218 0.5628173102189598
P 8.570285289362214 1.6448851246204086 3.8397421035105554 -0.3420143131618368 -0.00911738892023591 -0.6992881235859053
P 1.8428035572087085 3.294314457180118 1.5065767029382666 -0.5847933002694186 -0.01852968337307131 0.3017449241188287
P 4.738263795140531 0.8991387950681327 8.292950461143521 1.245463968593442 -0.02612986431783242 -0.8682787639574273
P 8.787325748959091 1.7865917049995597 12.502176659149082 -1.355314094049066 -0.6033759483676125 -0.2109952669380818
P 6.4660988914849336 7.885882131624146 1.3308994416880795 -0.26360055183862346 -0.6090082069527254 1.1014477387790709
P 1.7473115715722451 3.180572932459423 6.1741835176721995 -1.8675310656126547 -1.0492504879502254 1.7917873949224368
P 6.933134406654496 3.985706606728831 5.803302533656651 -0.25077871748360686 -1.596728082488321 1.0555892856840594
P 2.5322053436800083 8.54036622428986 10.375429177694762 0.7863539041571618 -1.0268906321977864 -0.5916992833606326
