# total energy = -381168.35187282786 ev
CRYSTAL
PRIMVEC
9.25816966306339 0.00000000000000 0.00000000000000
0.00000000000000 9.25816966306339 0.00000000000000
0.00000000000000 0.00000000000000 13.55026713202066
PRIMCOORD
 96 1
Ni 9.124453833715211 0.6286861891069198 4.634679500332624 0.5256805532676624 0.08341224297906924 -0.30556841162997694
Ni 2.589176736558242 8.13452405170362 1.322562853472726 1.7980516306645935 0.5671624745615328 1.2340953217451844
Ni 7.544121319614199 2.6569650542004104 4.5664940072156055 1.1294470522054743 -0.5101274360244117 -1.3023799650541958
Ni 3.1794683706127387 6.808217194453989 3.2162640397792286 -0.7436993027114289 -0.49286042141384795 0.22838595161070344
Ni 0.12831545288516313 7.778936274593484 6.6570294336290585 0.778732125945846 1.861433694465665 -0.08308571287758594
Ni 9.223405150153276 3.240766711381491 13.434208614576441 0.613386281415763 0.5224854433691324 -2.5396747675732843
Ni 1.8968508155965689 4.69613245253331 12.844474322330475 -0.2871600843261184 1.0436848209369896 0.22834841350454865
Ni 1.368088976550246 3.9907617706377647 1.6567235229140505 1.4890497678730354 0.575114639529074 0.6433121224409178
Ni 0.6188873424267134 2.896649806377152 8.481125849422401 -0.7552592396348864 2.100131312415022 -2.0035707049794524
Ni 2.9796122639558837 2.333354994808938 7.2474006879419175 0.0033792008848780516 0.0775239025190923 -0.6872342777451648
Ni 2.0669604234027976 1.8127496031598767 9.669876674732151 1.4498448155388 -0.07632499711498467 1.2477316815816963
Ni 5.7668490222730595 5.702939877683618 6.170968124305381 0.9835256349485899 0.4965604959732545 0.8265464172156475
Ni 7.0646314590562165 1.9783597405517248 8.451057166270498 0.44203613967312905 -0.08549663631192371 1.2776377251125093
Ni 5.450951018139157 2.381266022369471 1.7791091181851997 0.05431686827500968 -1.3510028682682216 0.21222656824202157
Ni 8.620059496995328 8.118331513113596 10.493543618396721 -0.7507580093304231 -0.7309571725544122 -0.4009851352690901
Ni 6.550173492006226 9.160551436895602 1.4788898242298019 0.10503599189643201 0.6671565331586833 0.8365402952035658
Ni 6.642588540722987 3.6369700784255503 12.906818836261417 1.2993974853871042 -0.596688766155424 -0.38185304242532947
Ni 7.860611846601024 6.290444802695465 7.032182500506088 0.28552511982585665 -2.475693893845949 1.0061760253582543
Ni 1.1992199634673237 6.685240927963833 0.6181439114096872 -0.38004941355768745 -0.15685657611214923 -1.4041928220276398
Ni 9.264928040705737 5.633994288844335 8.834353719107382 -0.38795658421990603 -0.4939814223921686 0.6073423892145283
Ni 5.408094951167619 3.1613408745811404 3.9669488326689826 -0.877935827431217 -0.031324521144894445 0.3159021894558172
Ni 4.96124013836826 8.087751779001048 -0.03310351113921581 -0.18317953027739423 -0.316995422519996 0.6372962552641412
Ni 3.3106103426697344 3.5619881630221193 11.514067947592187 -0.16385743291001456 -0.9618808029853048 -0.7421916078176508
Ni 5.405576729042698 1.3076331292129937 13.15071050069391 0.3997628328262147 0.026411400113993223 -0.6310893551224809
P 8.031906500113099 3.9026610289438453 7.75522425067309 0.1441249874780937 0.5649747228815948 -0.04457084463183937
Ni 6.019569277214098 2.6722410340023197 6.283434516691825 -0.4416355618006007 1.0047364646982502 0.7501586851835274
P 8.13278351582316 8.857744484543456 8.341788545655922 0.7211743821360355 0.7431521719587072 -0.47308683833134657
Ni 3.971764006665936 4.299512467858289 6.258109719631132 -0.18520530245817138 -2.376069816993708 0.15415820334437966
P 7.535927839538631 6.432363284139988 5.036701626955774 0.06284316057846596 0.19939522080530822 -2.3385430236928433
P 5.014687551335787 1.8017416395329253 8.12586488569833 -1.1828501504169628 0.22859806762150953 -1.6800212833910229
P 1.097296774595071 2.0127630986995393 11.679151295135108 -0.04954592924892757 0.1754860182878784 -0.004413555686663366
Ni 1.2650177746504558 6.197937172282934 5.358005476305638 1.032460927196712 1.2599773317182688 -0.16440302100083945
Ni 1.8103609954090325 5.085197770833569 7.3497599366012425 -0.16171904641077312 0.42895025302344836 -0.11271921947330266
Ni 2.8205106197766066 2.4789674859146507 0.283856405045159 -2.854299632978574 -0.9156359130851521 0.09588157909067357
Ni 9.08266245624502 4.6138550995032706 4.482387239877168 -2.0604159961032704 1.1784242534351252 0.22818540556412312
Ni 2.2378199429447565 4.2846716220264955 4.34113997572697 0.720729838399449 0.2956472958615231 -0.12400250569660579
Ni 7.531650565194095 5.630161406639493 2.834336770222771 -0.21198462743454458 1.6845739357587117 1.3587526874169698
Ni 9.020410524009847 1.2078115448347004 9.843035923597014 0.16097136961147115 -2.0080603653196896 -1.3399067583550601
Ni 1.259999846739768 4.108840465421733 10.368745344133828 0.2122067707476797 -0.6550960024497234 0.9148206162727083
Ni 0.5866365087055314 2.746898913470559 3.515386240639762 0.4475115609654035 -1.8623868024075538 0.8274123647603686
Ni 6.401274350700708 0.2930655063233159 10.258785138251856 0.47621689931989597 -1.7180980356580862 0.013029579490448528
Ni 4.44245860612585 1.7524048538575474 10.128526395572498 0.2673800734857137 0.5959277196196834 0.18211637912020248
Ni 2.418798641834283 1.4923706449507472 2.7438066848318696 0.8560629386175257 0.49146765483137944 -0.12419662398528289
Ni 1.7526270499273933 8.879501183049205 10.747367447151328 -1.4334409202594796 -0.9506952186821304 -1.149313452112098
Ni 5.057367713085363 0.5026510233885507 6.301077810454551 0.9627588347148839 0.8042459539462343 1.028643353222835
Ni 3.8064964215484336 5.8929730664193665 0.9540321552940639 -0.4202162155845602 -0.3377552807751667 0.33996051595660165
Ni 5.824203382802045 4.5973385249780545 1.852132004906156 -1.1121432708197039 0.5245143008737031 -0.5013010959820334
Ni 8.410084210990906 1.8523838271186481 6.565212462666967 -0.44733826861233283 -0.6689732746524479 0.7214404913132285
Ni 2.905324711270721 7.438337474028374 12.431434973910797 -0.7935820464744848 -0.05852165038497663 -0.2276202770892725
Ni 3.421069563891902 0.25862789294806676 8.357709819877343 -0.6694512427301309 0.668281647902062 1.004688127958818
Ni 6.676927091683764 7.285133283869591 8.618349513074472 -1.3476637765926598 1.2242287133637497 0.34983175232372654
Ni 4.118404154594686 8.195563163724218 10.208541051957942 0.4912709654395411 -0.9770531398503688 0.1524687314570987
Ni 0.7973218963165036 3.2731980794094224 6.058839655108495 1.396793444239775 -0.3253535646767042 -0.3054496266639255
Ni 3.310295564904119 0.6772545467074137 11.854139032491414 0.5105071879613337 1.2068570548545217 -0.027163962009301608
Ni 0.6640625808772682 6.177189614261068 2.9622781930570268 0.7851393150237704 0.5347475485659371 -0.2861519547765781
Ni 1.9144228214535526 8.644241835930229 3.848045234975711 0.23942858257811026 0.04169455152530884 0.7260167978300012
P 6.39758034103952 2.2811574347342933 10.999293351142667 0.5400221667013151 0.515574318071596 1.1125654459587873
Ni 6.252717761669537 0.3334061286208059 3.8626796236259398 1.0333608133031622 0.885225933334727 0.12210323179136391
P 3.596261906795857 3.924269596736364 2.7717209919232246 0.9965744977127483 0.09417925168758619 -1.5367609579060697
Ni 7.469046822514999 8.495592665203288 12.947361286655683 0.01510188863844496 0.16818948462646519 -1.7202526201072437
P 2.1931307583969897 1.5064800953859652 5.204427256095949 -2.560144348281546 -0.13400923920033048 0.35620628839150265
P 0.6708062315970927 7.403785985167328 12.030821014880294 0.5826716259407255 -0.7386157175409344 0.37940252400230784
P 7.665357050223896 7.3885748125524575 1.1553093909809755 0.5646857308862662 -2.3849789465578795 1.3883064898146864
Ni 1.1449300570682965 0.23725355684584404 13.152241801941932 0.32496429965808554 -1.4437104205062876 -1.7015820402809338
Ni 8.183231281847767 3.545008680018058 2.2002114064894136 -0.9888182508060969 -0.957978382607105 -0.2622401811559871
Ni 8.282886219173676 3.3358295965972498 10.297755551451964 -1.5282354369335618 1.2059306863855102 0.12324274471244581
Ni 5.444868400727124 4.164213577661259 10.731906303957881 -0.36103199191492014 -0.9885110039783234 -0.24908307494873877
Ni 8.725074914506271 5.201822932993962 11.784951805426173 1.3866147039345604 0.5684027747265372 0.030997991043411135
Ni 6.987464615632633 5.677609525721179 10.161940981209499 1.0652183241333912 0.8935732768581579 1.686639817148805
Ni 1.2400207167927864 0.750370015124139 7.592376751082993 -1.288472353834168 -0.6442287207179163 -0.5924485028218313
Ni 1.435053317100069 7.722831766957381 8.675178935388447 -0.2646364493023055 0.8326391603769465 -0.8950889421717358
Ni 4.502599675697487 3.6148708276454555 0.03749743842041947 1.2564137827367265 2.9039244950945533 -0.5140095446876374
Ni 7.651969737015677 1.7889375910080525 0.5515619332633905 -1.1657826534117148 -0.5093753883497356 0.7688282365685727
Ni 5.954484345088387 4.631177134781677 8.388346954641268 -0.2972876596784235 -0.31619426677493934 -1.0554080229111888
Ni 7.305788260195687 8.936762961882422 5.979407337589441 -0.15505834656114587 -0.6665512954745165 0.6388623141996804
Ni 2.546672480030627 8.4424507718318 6.201834861674814 -0.2692888604726523 -0.06154809591612626 -0.3261408364646899
Ni 4.067910097722194 1.1537068018272116 4.507821283338868 0.21852808498001722 0.5584757454208125 -0.6518684966513613
Ni 3.3549292004344244 4.192404704022964 8.750260839023309 1.0330448247246402 0.049651601588856425 1.3953148028117195
Ni 0.46199006842369955 8.683709412836617 2.0412532639385788 -0.5731665146637678 -0.5123745801873757 -0.8465082050495549
Ni 8.116590977233136 1.2495010824395467 11.920711752468133 0.35131193641367886 0.5521978828319006 0.3362856382081757
Ni 4.914143829730495 5.479753183692939 4.098481499482123 -0.49992298468758417 -0.6128219242718607 -0.8422771976873431
Ni 4.951898645265152 7.815756015000873 4.961836364489013 -0.33979545113364706 -0.14924122565873651 -0.8658439292636894
Ni 6.859600035605865 6.000701127616344 12.826669010600153 -0.6662278506968268 0.8120327969805047 0.5810484885150058
Ni 8.135736871918196 7.905338063827099 3.4399793752527503 -1.149301625037556 -0.2813913001631412 1.0468377647436746
Ni 4.470760830522479 5.707994838272613 12.159982664464787 -0.11645837480076073 0.22456503520271645 0.14325029818262425
Ni 4.4091662283272655 0.2179336085727387 2.454495366271992 -0.6196944830219778 -1.0333235323073235 -1.094449967304999
Ni 8.81449957444969 5.2966543639702985 0.8062939884534917 -1.9795386037309133 0.467233207764047 -0.4625751401667453
Ni 2.1969636406018322 6.112808303023204 10.015043456166511 1.474774231790628 0.4011823388815607 0.891794073470548
P 5.766506469998713 7.5475283260185035 11.598811676997517 0.50162608342162 -0.19371745369424057 -0.8947611265186719
Ni 5.414159052240499 7.164258621873394 2.496663551243965 0.8806038611816835 0.27623855231760813 -0.5401355523507279
P 4.403139159932694 6.353279999613984 8.701209204970901 -0.11778609247324875 -1.6336249555146702 1.88006673618582
Ni 0.701984969281268 1.5525209726919613 1.2039916240672655 -0.2681912565330994 1.7506939673162365 1.578954560554984
P 3.6006873118536222 6.248755265090618 5.993919518401255 -1.4034469450005507 2.4772982622185915 -0.9645202974906808
P 3.4117836198062568 0.49835152943703165 0.35545908855301644 1.118327545253545 -0.4426766014706054 1.2659307210882262
P 8.277349833766682 1.1302558582888869 2.5013926242638527 -0.6249585596343946 -0.11595135325735514 2.026324453736201
Ni 4.511820812596095 7.924983899669312 7.373852471291248 0.9499956215119445 -2.559451950200211 -0.5014250231544074
