# total energy = -381170.7907880745 ev
CRYSTAL
PRIMVEC
9.20900302523651 0.00000000000000 0.00000000000000

0.00000000000000 9.20900302523651 0.00000000000000

0.00000000000000 0.00000000000000 13.47830678772604

PRIMCOORD
 96 1
Ni 1.3491281768229988 4.5489344713861986 1.2530644600119933 0.008333973786992098 0.29336981268125606 0.3245719493156733
Ni 1.224272511528112 5.257152861967646 12.173539716090424 -0.8853879128338881 0.6001150182281535 -0.19095557467838725
Ni 0.924077425432617 1.8455579119647207 0.6093422441952059 -0.11496687785689877 -0.4085158964284964 0.5421194155499761
Ni 5.779358597047441 1.3224404855687886 5.32596621742933 0.5181564769764754 -1.5011488651294147 1.0288775807208281
Ni 0.6385025528068197 9.063003656682527 12.056628657850407 -0.836459048343669 -0.09577359275789957 1.5622606448390708
Ni 1.9822931913789765 7.449227146090208 10.951380670795178 -0.7367128440912667 -1.207500344865475 -0.5418209104729508
Ni 2.5358187463192157 1.2777860290844318 12.600289528569974 0.30984389907687926 -0.7611668633685731 -0.6268159245581076
Ni 8.005027324819194 0.4850833223072455 10.458694395451536 1.667099947343664 0.6780664952029678 -0.09646753350113065
Ni 2.6629490354028498 2.8732089963124867 9.58769950622579 0.0635998362388324 -0.6029668858546519 -0.10091759885268427
Ni 7.899059325073784 7.98876422517981 0.41707391282433737 0.16382992210618882 0.4125568992670895 1.1210099771817146
Ni 1.6165944655694728 8.24214073904052 3.8027022365230887 -0.11193400456784594 0.7907774871461541 1.2999865251213545
Ni 0.10590445762337572 7.761071621225239 9.273439509553157 0.18659652637874316 -0.37092019756290956 3.0290351462536735
Ni 4.790560297172246 7.516793602519517 10.380102920399198 0.07264574849118458 -1.3271103779213405 -0.22171085358337297
Ni 3.9321799005206977 6.323085772589999 4.549494378780351 -0.08312247965279233 -0.2384747033052732 -0.838314356384853
Ni 3.6849273737835375 1.4495247296364562 1.4565871141854052 0.33611054608289215 -0.038031243741108695 -2.4065193917328167
Ni 0.32330600050942393 2.603744353873065 8.876031423048131 -0.999591173051885 0.7194694836297867 -0.6364976706222458
Ni 8.231292533278802 4.520211590426267 11.235247273328616 0.35748181266981666 -1.4705072289841579 -1.029581034545756
Ni 2.54829694564615 8.533826706185398 0.48283908822903604 1.0462117011239014 1.9040916383455078 1.6364865933331816
Ni 5.76001969034149 5.933894879634363 8.619444650674232 -1.1735892939403272 0.4052107433146634 -0.5845228202168513
Ni 8.73171897580642 3.631598036291084 0.05844678056697583 0.009697429793422009 -0.201492212543653 -0.7219619110343373
Ni 6.44097022246755 5.804885953899294 4.209045818826582 -0.2375336795482425 0.23313143671548883 -0.7498964326610763
Ni 2.8753731120629142 4.349016221062647 4.598595862906757 -0.9229458164830041 -1.633122304846639 0.6226633358423148
Ni 7.844827505268386 0.21105930238681608 3.1554336335765583 1.5366102912608182 0.28142729560739915 -0.0017262386624873494
Ni 1.2491460291532401 0.6902239983417218 9.964728068664025 -0.7857242409929629 -0.4749411179312659 -1.0287359129366411
P 7.08599643313651 2.5109452286940876 2.9035103004197516 -3.1671560936295324 -1.549864070946931 0.9822182289910761
Ni 7.546741280904159 1.5095674304568327 0.9330488363435387 0.4115091747288655 -0.8129414248377033 -0.479638009186303
P 0.6903538452867475 1.2524520612996384 4.649301555389437 -1.1397818584725792 -1.3803928913945647 -0.19631452499745547
Ni 8.570515374907542 0.06746239469322558 7.901967528282231 -1.3153203272649476 0.9571731130969903 0.1372017779956992
P 1.1380025696131908 7.056334233850861 13.368768873347479 -2.000028496154149 0.29192305293240045 -0.028492193902421897
P 6.664279340902107 7.604094952792089 2.315276933344249 1.372813793495726 -0.29885860370996914 0.546130336481582
P 2.8507758645335852 6.872485694099636 9.083435672067523 -0.10109860451523879 0.002639751615692228 -0.4797277406866318
Ni 7.9584758136770155 2.015068033743964 5.775441087089007 0.3591630570269814 -0.8490991057051828 -0.06535230015356486
Ni 2.116523621924652 3.9509386400254685 7.405466883815921 -1.6765176411131384 0.2770610482189035 -0.2611281790387309
Ni 4.602567705984031 8.695417085218395 8.48929841304479 0.24360456833267083 -1.333537878714239 -1.7665553598285253
Ni 5.27625233459057 0.8115949768282604 12.917029509802568 -0.4740602579882094 -0.4272348129942384 0.7392602931034687
Ni 5.375792450107049 8.016934565948143 0.5409211922695568 -0.7901503950851165 0.339919378306021 1.3885566581522795
Ni 3.1792057544197663 6.4456483960897515 0.18638654103130195 0.23221175311469686 -2.2482129705480185 0.4752483647590396
Ni 8.659879541895414 6.771334003024327 11.777372082315539 0.5600032378089324 1.054414805759984 -0.629372115321058
Ni 0.9144162601825162 2.7170427201603484 11.183719216860773 -0.8371439902258356 0.23119796713820184 1.0709364575640912
Ni 2.1055372811150344 6.21798341914476 2.8571448111420783 0.4445285670776796 -0.023312192363379204 -0.5537729406285044
Ni 6.419531663033526 2.692288919576733 12.53454277117166 1.5264945429830548 0.9472463409015817 -0.3455871181147597
Ni 5.77590522084995 0.6695470234717845 10.396384438044969 -0.5644250210257117 -0.0058520879054028245 0.42218850881958264
Ni 1.161586826791256 4.8135828051555185 9.772122687776282 -0.05876102008929235 0.6293446045172323 -0.1899469309082148
Ni 0.6440233502212086 8.894055284098076 1.5160395179010902 -1.6086361467798167 -0.17702045265453384 1.0009721125598117
Ni 3.408961175089639 4.94841182090876 11.18088929017947 -0.4918090973311981 0.2463944723729821 1.0809424197368673
Ni 4.689408606096937 4.528306304233185 3.121009458739649 -0.563321760659204 -0.7647913474950376 -1.0475936690730925
Ni 6.884457398250937 8.075964276417254 9.092722030887655 -0.09949397903228026 -0.700808931105806 0.4016209690808761
Ni 8.937484943157722 7.925433910219422 5.756476986813025 0.5035125018110554 1.1131164333662507 0.37155217471995367
Ni 2.219553949651396 3.5353547439178086 13.022834510191455 2.8350988916804076 -1.1652175249368641 -0.42964008000162135
Ni 9.093034216095909 2.3094890748372543 2.871634256766431 2.091777798244004 0.03828886827786954 0.007660344758735195
Ni 0.9762924735386803 6.0623973101938 5.313405137073657 0.34917329280412124 -0.9683550978557387 -0.5722337184368532
Ni 6.8008764852684624 8.236679800146888 11.992148138391174 -1.3848879510514407 -0.06430483272565699 -1.6267451976757017
Ni 0.8085679774786196 3.3095223586082856 5.516118319866377 0.6213150493445364 0.16867105224857404 0.27765985814516697
Ni 5.76026833342771 5.711083047372246 1.3855157111407217 -0.41530926520124606 0.20640147691981228 0.49954503252287513
Ni 2.6018933442312098 1.8622814617637702 5.340658261123935 1.1148218460931316 -0.7771629816865131 1.1819803462174998
Ni 0.6479970350991215 4.54304070934248 3.4480340547385313 -0.3302360895799861 0.053254745559082474 0.40117822511650264
P 4.728767885745142 2.1989626185111564 9.20031910329796 1.0231098249991153 0.7054150624192497 -0.11756369204979752
Ni 7.061389976603988 2.626011723594486 9.730785314242153 0.8327643731009013 -0.25590935384195285 -0.3804283941636609
P 7.026966722667399 8.144497678181862 6.891593454825433 -0.0031812259414590372 0.7710152169175625 0.1395592224842822
Ni 4.225431398208437 1.8184189795540382 3.871131576551612 0.6364652747224135 1.2195302794468157 -1.9018228969159892
P 3.215194538899219 8.750744776403797 6.083568808535218 0.7106837670173567 0.020857560175299564 -0.11452336256157696
P 8.444407285178364 1.6693620538671345 12.319414931174041 0.24046833669653425 0.3341071424996181 0.19822099799154894
P 2.770611491735828 3.40100459633062 2.3549704998083696 0.6514108402886524 -0.3479671883111621 1.0166015915669524
Ni 5.132601093778138 6.414549592305946 12.491344258092166 0.9292738155835609 -1.4700066351986554 -1.7239542373285472
Ni 8.093295620427064 4.272065790379355 5.095123213482328 -1.127432849988923 0.8328479339536431 -0.6365074408142586
Ni 4.188153353281922 2.4770929329554825 11.634717255648624 -0.36810766781477894 0.531923963074213 -0.058768219178143954
Ni 1.7322503366742434 8.58291990220893 7.726735852818985 1.1773981261634563 -1.2743950498054955 0.5937271124239388
Ni 2.8650682374896013 6.584630672283175 6.724017223716785 -0.027809051792468235 -0.3490156841803344 0.7990772652611012
Ni 6.827297115430067 8.08299074585375 4.678913105157523 -0.43618893686373267 0.12202892691000275 0.5288101000355796
Ni 5.169050328417256 7.111394863943657 6.377570839983213 0.6089596131029771 2.1657481790838826 0.20867458922470514
Ni 3.644859000889449 4.841449248818473 8.927855088518479 0.6071796383844188 1.113766922466056 -0.8433295502112572
Ni 7.391173589959585 5.986155972756393 6.534053905845202 0.41851671639495025 0.28639826645942934 0.39720741339421267
Ni 2.126892959520318 1.2234068652279408 2.867793181534502 -2.0222392279232335 -0.005944133398576859 1.2318096110348011
Ni 5.671060719494124 3.609772698722941 5.065471144100191 0.1803276626508959 0.33480828233170085 -0.8867405702070406
Ni 3.445078885613798 0.6369453103668311 10.131104366656585 -0.13697912046193184 -0.4171424617552429 0.633848920145489
Ni 3.637187901229422 8.480221098597145 12.025426713230836 1.4117508368805558 0.29965873101376134 0.8388617442478908
Ni 5.6214057742758 4.010023604513741 10.736549360700382 -0.024506212671480378 2.456518349358763 -0.6393891332374279
Ni 0.8563636249522141 1.2465214632431472 6.933025681092451 0.9919807076944787 2.0373596285044395 -1.1912874825510387
Ni 5.706478545775591 0.4703295782912448 2.32053343236699 -0.553714062366111 0.3784051930860451 0.22866028831801266
Ni 8.693077998407295 6.90786668436833 3.474060539563461 -0.10509409882787707 0.17183479468853632 0.7911220149697665
Ni 7.7471752354065355 4.335948645531341 2.242426350882618 -1.213996237002464 -0.0064894643790855975 0.27656045443340116
Ni 6.501141849332633 1.3398178745945633 7.797484019851583 -0.916305428348351 -0.9763100910367574 -0.05427007419747428
Ni 8.794367824530504 6.082169040049836 1.4102483310169922 1.3581741892056802 1.0165213731483203 -1.5927444152502248
Ni 6.638429668938488 3.6569872580950373 7.255561808934914 0.41835345134420854 0.022278608892542278 0.018806848293857936
Ni 7.67770251531621 4.896159936789924 8.949177614512267 1.930652676663488 -0.06933596739166123 0.5625296037752119
Ni 3.409476879268464 1.200844807404333 7.6960597422817525 -1.4053547035462248 0.4348411645865866 -0.7631311861837954
Ni 7.240873448841586 5.2890160130164965 13.091694831569425 -0.865207067010639 0.7644586467459673 0.6245901205513824
Ni 4.582759140115223 8.47046876421543 4.266908748591102 -1.2765257229952531 1.842050404843047 -0.40112011818505755
P 6.700562813483745 6.216224499534838 10.721360030833338 -0.003409797012497353 0.0804413332762034 0.19292529681024836
Ni 0.644505901988538 6.3439073288100705 7.72385159301884 -0.08143917841309845 -1.4734398292499205 -0.8797325143203236
P 4.547009789718796 4.31774244621817 13.074281527431197 0.21441097748785007 -0.22127145205310925 -0.09675729682740755
Ni 4.230662112022237 3.237323773572741 7.0066571870248735 0.6759468777568036 -1.6013072172185714 0.08146334678281454
P 3.8639503958614694 7.414905191188744 2.321691924968708 -0.24452193794061763 0.038725698704972014 -0.1667409251053967
P 9.025449341660213 4.313607603784374 7.320837065369728 -0.11206590216001991 -0.009978965589582814 -0.3461087949461846
P 4.763227975694504 5.120951704738602 6.5355098492500625 0.3575843996859519 0.17849189499373774 -0.4130050425481016
Ni 5.4768428421472315 2.8475711314223138 1.3054738180854355 0.5125265323842076 1.3218563286112524 0.1415500276620659
