# total energy = -340896.64232289663 ev
CRYSTAL
PRIMVEC
9.04170004921806 0.00000000000000 0.00000000000000
0.00000000000000 9.04170004921806 0.00000000000000
0.00000000000000 0.00000000000000 13.23344197108361
PRIMCOORD
 96 1
Ni 6.3240272694880115 2.1333529752506952 11.418898700290455 0.4490719634739879 -0.3430173005050544 0.8548797169427019
Ni 4.540597130374302 0.37178205033415795 6.038406292056368 0.1151864500668726 -0.5897336749938296 -0.66848965014781
Ni 3.021555344313009 1.7194058606018885 4.68275978127691 -1.526578875166745 -0.44014123664326127 0.8784765304260355
Ni 3.7000987711168696 4.286507273752469 5.115532619734425 -1.4658622740129787 1.3318777174029968 -0.912546732636867
Ni 5.0897447868374375 4.628482455488679 2.6692247034354932 0.043142339715428926 -0.5373495049651584 -0.24182099406968677
Ni 7.2286945744591 6.078762112178075 2.68675927246783 -0.05583921845680706 -0.3919479647674863 -0.7496447216615865
Ni 5.077059281576587 4.491319864749472 11.513412495758878 -0.32877056077805317 -0.34974150660276543 -0.5690010704321684
Ni 5.787393325983549 7.798683349686498 12.462290097610548 -0.7043776222936707 0.9158680837006163 -0.5365570909708501
Ni 2.007637176856632 6.2162863709218685 0.5726479392311167 -0.3259608592433999 1.17986509964671 -0.2125440994824404
Ni 2.7450963216075372 1.4180098289802179 0.42611000964303086 0.04311714290444832 0.23153272476980125 -0.3536084457573394
Ni 0.397968622206201 -0.045864023831551075 4.745168307978243 0.5504163654514457 -0.30855011996612025 0.6468946975858536
Ni 8.700140851116887 2.484387940501782 1.25854498073822 -0.23583392324831645 -1.2129228014326272 0.6237671104294548
Ni 6.837776670002301 0.6320654715345247 4.772415471273735 -1.2048400244244928 -0.7468602169379137 0.4833329415393869
Ni 0.9456442898906718 7.626366628901541 2.6938922696882757 0.16614185806881707 -1.261457258697905 -0.32345480499209456
Ni 7.456011957041461 3.9056346981230443 3.906724222986859 0.6147525656356702 0.06732253650605825 -1.189752533963751
Ni 7.748438622149401 3.945843138532883 12.501050057662022 0.09522131979885537 -1.3153444956346638 0.2778328933879215
Ni 7.997329501205311 8.841679624711583 7.0446109851449386 -0.4855039810487768 0.25175136580952123 -0.34811759784609725
Ni 7.002498362690956 0.7304491146520192 0.37666095171602193 -0.014957135530464565 -0.30673826356836204 -0.2569779043157832
Ni 1.5728941519441353 6.674492607631876 9.057444427057458 2.1870358848180653 0.31829820049181956 0.9426834041212473
Ni 8.980948931577503 4.819515495510958 1.2591444454558212 0.7361119772824742 0.31041725508184603 1.4091792194986377
Ni 6.297905797856795 1.9225909455782544 6.845778574603764 0.9127871307824474 0.4624720389299778 1.2619884486110267
Ni 3.4160266369148644 4.289075116585029 0.5046254209285981 -0.2773310140508385 -0.022127685136974797 -0.10273331190518435
Ni 5.867340038397265 5.63254516982009 4.871825347354242 0.20252811000733506 -0.10667429883080339 -0.031043499569365893
Ni 5.3763485970715434 2.744237360096646 9.317097641759835 -0.6983314160995908 0.44794504895839626 -0.6307160309434622
P 0.27033960006787816 5.578123176830025 12.472215171826399 0.2918063248488781 0.20385968433456503 -0.8282698276646573
P 4.012091675272908 6.111655817195164 12.531632704129807 -0.08959806007480697 0.36800636635022427 0.93484256792059
P 2.438799688523728 8.379648748853079 1.3344202155903102 0.18329882946407786 0.47416618743845435 0.6400254812698462
P 6.282887533966364 7.815428578298826 5.863619378800088 -0.07709504251178981 -0.4455019867345424 0.3488197661194444
P 4.773131573922814 0.9852831031932878 12.554632980881447 0.19933634254291474 0.5559702053901392 -0.09866042738739139
P 3.8638891686937153 6.177063475824526 8.294351158311516 -0.4009326847645998 0.9929829237067479 -1.3786265435227614
P 4.854678667256823 0.9352282513585976 3.645535727605016 0.07436967316082677 0.021448399681763063 0.4212590550267777
P 0.26911535387235486 5.621857880284577 3.479059040924109 0.1324336671830945 -0.7118212230559096 -0.45615381002143374
Ni 1.4395562003534237 1.0358894987349718 2.5783248755028927 -0.20040540723737743 0.19862054742281277 0.018917662840109355
Ni 1.8092351512409146 6.499653252514931 4.831185617848934 0.7428058443628821 0.6277345797176351 -0.7109539899596078
Ni 5.764780033996814 5.574298537681529 9.199544690229276 0.8770716796587089 0.6481745927395418 0.5931085050033333
Ni 8.48553609889572 2.3789165086644153 10.272155245639865 1.051041775522693 0.856815243402518 -0.7707928164941112
Ni 2.320082166018402 5.269719827619503 6.961716678493848 -0.5023868728470444 -0.20807655062939004 0.3623208859296728
Ni 0.605567865178538 0.25478968421070686 9.155688827993188 -0.4323605642565779 -0.41618498293798 -0.49014739335805907
Ni 1.4009481408638775 0.9977335242511579 11.475855985992668 0.23893544499177558 0.2156607907345512 -0.4731094640391659
Ni 4.209209779472345 6.985120215070602 1.7184157944393343 -0.08336802000469513 -0.42049209495376616 -1.070503998012363
Ni 5.434821271712972 7.885212419783678 8.101804537690043 0.5811335920296443 0.20951354018623272 0.1393514773488503
Ni 5.234421030371918 2.7711002511372644 4.844432612686905 1.4442958606961127 -0.5441513583783404 -0.5914647987523234
Ni 0.9028164689576195 7.4209753690972 6.943573603043795 -0.7284112662041068 0.28771441416769156 -0.46020792548614936
Ni 5.01701335111521 4.5747024232067535 7.117091061603978 0.4917754158797853 -0.08157776087349176 -0.18538759367230656
Ni 8.25073218861843 7.185502373011428 9.08248179884493 -0.8289712246070563 0.4272708084384964 -0.1553571087484873
Ni 4.751784119952132 0.486568241629635 10.421719432256324 -0.46564298045879154 -1.2815907962229864 -0.45842255145095245
Ni 8.135857388661831 6.966837897438784 4.767784312475012 -0.529346946375656 0.9916469785041439 0.5571205169444986
Ni 7.001006482172039 6.088816482705563 7.007266051161409 1.0321313117714355 0.010236075905711404 0.20346604844057214
Ni 2.4103906667635044 4.916469645840326 2.8299318812732435 -0.1890403599335454 0.14854728491550545 -0.6971947313919864
Ni 2.2754975427530733 5.405634663742889 11.326661604910898 0.06807946927674081 -1.0584282977947512 0.5706941418638752
Ni 0.9814132555442185 3.1672442582603297 3.787569986365996 -0.4616942802236887 0.18376008537121255 0.2471498624817679
Ni 3.774882672765122 2.5457901259803557 2.602435473028613 -0.22625219309715228 0.6901604502530243 -0.9843615005863239
Ni 1.1145794148327517 3.373295562173039 8.301801519205984 -0.5823363540884939 0.269246180160175 -0.23267737989720574
Ni 3.5331076116994393 2.750033089870135 7.171704738636475 0.6916113237669379 -0.4619850719912302 0.16751225605378245
Ni 4.012480468377837 6.938275166776612 5.924797330115817 0.35657781279830847 0.2285918969739225 0.5417183234568154
Ni 1.0004098674850936 7.44780209333736 11.455052842368886 -0.16074845496738766 -0.08392929182480385 0.029382309816859076
P 0.08596125132997978 5.53192913094429 7.877709617028544 0.08474047487218955 -0.034636873347579054 -0.04501590258905796
P 8.477290068391161 1.7937828857449816 7.982385379255821 -0.3606501830954692 -0.43569142840202385 -0.09885480278638459
P 1.8338647423532153 3.4439112400684384 10.424710426654249 -0.3042970011167211 -0.6615954941311379 -0.4146423210412084
P 3.956982513074129 6.174197256888182 3.8055674904442025 -0.6726913469339834 -0.25199073551383694 0.1731900231648501
P 6.8973524320577155 4.020283455576778 10.29499638846949 0.2585578472083934 0.20792871219761608 1.1275218101583036
P 6.449236732675655 7.685770598654776 10.262375742795864 -0.9532388110395904 -0.31512288808763145 -0.320910441303686
P 2.292731023171592 8.67427254708888 5.759445430929172 0.9983783836907064 -0.4965622957454674 -0.7887640562605513
P 6.89465800542355 3.976006250115348 1.4461900957275409 0.3915368453719967 0.0006178360896570004 0.8953517089148194
Ni 5.295307838943956 3.003101234379013 0.406915384469645 0.41698511024177215 -1.2680223135099324 -0.1387593522908062
Ni 1.3741575834241762 1.2608741226877533 6.863987654464654 -0.05032960149248752 0.3590108477198333 0.2973262262258428
Ni 6.99120527924776 0.5988218527229991 9.293224840947131 -0.6602981154759532 0.4235118556166964 -1.0991260326244296
Ni 2.767592071492781 1.653464741665762 9.215729333434496 0.014239540638149669 -0.2965911478320311 0.320466411787732
Ni 6.5566882968381295 1.9393271324904675 2.5921405932780743 -0.07468900417345847 0.40219509641679124 -0.5012008229587432
Ni 4.009550957540691 6.839774885727638 10.42160008181481 0.21805808732213414 1.339522635542764 -0.3399841701056855
Ni 8.252549570341476 7.0221459770400845 0.5347460365205244 -0.24597204012358284 0.4987726731332249 -0.3451703422923152
Ni 7.482675930679557 3.9373891489256874 8.207129493985553 0.8810831148109471 -0.6261104138506507 -0.5379840532253637
Ni 3.169911559794151 8.311628038890584 12.455964524210343 0.43186871222182394 -0.3977841118332891 -0.4155136679025683
Ni 0.134453697384859 5.121716238442833 10.141713350595877 -0.5254177865245789 -1.559004085574986 0.26207743032587766
Ni 8.381665047978645 2.329223324834311 5.670516693621566 1.217451028320284 0.3897530139986965 0.6833657959286941
Ni 3.558144079316899 2.580320378718196 11.48858669975409 0.15430861287931488 0.12300800299382043 0.1007615328907942
Ni 1.1525726387145019 3.1510686567552244 12.559052563897488 0.2087033855801115 0.9724459800956607 0.04500973194147087
Ni 3.063490749444746 8.452334976074733 7.85357189440248 -0.255605706558605 -0.14092370693197664 0.8567206268061826
Ni 5.519162250382406 7.7629867176338685 3.666060386865267 0.7645908014484574 0.7733546636840166 0.06611746045436355
Ni 3.178175673698939 8.405019759374781 3.5984510742579876 -0.43475091886562545 0.08559022446699453 0.3816352699875686
Ni 3.4485586739273675 4.30214941495081 9.167639243034717 -0.21491568503841052 -0.46762093012076883 0.7557598334203888
Ni 7.213477393166147 5.9104056560433325 11.448767052449183 0.13599978726779804 1.6290465921153687 -0.9032977032347734
Ni 0.5867412371998182 -0.1295187374622842 0.2883642292464286 -0.20696891938750805 0.5471063272416062 0.2204805807206977
Ni 4.754153045382169 0.46178946246544267 1.4069527339100152 -0.0005702706811732115 -1.0619080288132356 0.7724144112579343
Ni 5.967314116564927 5.647843726414075 0.28195275969513184 -0.16432331680283957 -0.2501261715012725 1.3027715440656595
Ni 8.1162097743127 8.731036340408638 11.184746696591432 0.07003376478963423 0.5813981585449406 1.2926416547205093
Ni 0.10475171250824088 5.0116154561467665 5.653643977037621 -0.16134726489365114 -1.6558385154972322 0.7526179453572973
Ni 7.889018975531945 8.561332670956814 2.722767843174415 -0.24402262970669586 0.6460192369594357 -0.2927830869398506
P 8.430996563804165 1.456952431374006 3.6497572973885455 1.1018033223462766 1.731528193021063 -1.6100638803652787
P 1.804886093485769 3.0708235682377256 1.5543342541187977 0.13862745469863222 0.36051674284139845 0.5496208661333437
P 4.765491337325937 1.076269731446989 8.099978114266886 -0.37883816685840566 -0.7000391428193169 0.8317446735871353
P 8.497064266541896 1.6827327249368769 12.327374369349831 -0.3507995155536346 -0.8100931567556307 0.8183685093905454
P 6.3844891181546615 7.797001593465175 1.4228200134412106 -0.6867799638165657 -0.48009540843869575 -0.29138106438600136
P 1.9059994258678754 3.2703829314681174 5.960712771311221 -1.5146798097363139 0.29130675950464024 -1.1084236558762717
P 6.911864360741725 3.9589807287994665 5.95839719191186 -0.9425008557967962 0.5516340399086307 0.5345583153732665
P 2.4363493877926583 8.64011300405574 10.137809144486372 0.6272807800096681 -0.4856420492885379 0.22593003387104316
