# total energy = -340870.37709857634 ev
CRYSTAL
PRIMVEC
9.34374515183700 0.00000000000000 0.00000000000000
0.00000000000000 9.34374515183700 0.00000000000000
0.00000000000000 0.00000000000000 13.67551550994802
PRIMCOORD
 96 1
Ni 7.556464064120759 2.371629340667316 4.939309137665425 1.758952607780603 -0.26522111816118193 -0.9432693585317045
Ni 5.343968043526351 1.2834381174666347 11.549464876750205 0.9608582752580613 -0.36645342004080755 -0.5509953778833672
Ni 7.225209618508367 6.780905202867079 2.917493723184797 2.2179294890731285 0.5133361727696966 0.7782490156618403
Ni 1.8286176034800137 0.34490846009319537 6.381651653453936 0.3248007774970277 -0.5197459329507824 0.589734703435094
Ni 0.6116779843767676 2.564970110965512 6.749537316729052 -0.513337201210961 -0.5686992229210335 0.842213177218627
Ni 8.813954601889053 6.531016088192087 7.376860467633332 -0.49023763907902024 -0.49721998393412437 0.22300617535602885
Ni 5.216453956330357 3.0992547903788674 4.907882385934275 -1.0449639447597294 1.3459840748973915 0.569994030473057
Ni 6.67104144986272 3.7222209530176324 13.551902298599797 0.2963121831390316 0.5078029016562932 0.31465854685670325
Ni 3.186254399515079 2.5077957356777363 10.352529281188977 -0.6337393911508182 -0.43833555089309023 0.04815162000456223
Ni 6.990279839482292 9.311088551421022 7.196301940413037 1.0630837942888918 0.6654241238486088 -0.36259573685761426
Ni 8.81687919405527 6.38537513581252 9.896013525285621 -1.5459410817434407 -0.343454388042473 -0.8363238083173855
Ni 8.161060424207513 4.085374943855139 6.329001519466101 0.3334275999340903 0.3940292727765472 1.4966226951242871
Ni 5.195626748859128 5.89529571371024 3.007587980645132 -3.006979452005215 -1.7201832003218893 -0.23119308204219538
Ni 7.578795614527327 0.5177462508695795 9.92335051985654 -0.3984790810177847 0.2116771234964548 -0.917415116472762
Ni 2.745612731890267 5.002482197204672 1.7097128428717243 -3.2988526255362864 0.1653946954901474 1.7724419005162895
Ni 2.17186007385041 2.4655246335692387 1.101413556665256 0.6720421433857587 -0.5522634459625134 -0.29082030678652493
Ni 3.0716627115710877 8.799574578426414 8.33911015591142 -0.3357138248651057 1.4131142928869855 0.11159796138466586
Ni 8.71471468688146 5.4879644967964785 1.5503113573190408 1.1944720509266074 -0.918125255165909 0.2170766972454713
Ni 0.9355985245857656 6.129421930671477 13.45654284086578 0.022377082143619526 -0.32988487688815443 -0.9185453734224631
Ni 3.462231250062514 1.2455866067147503 12.721402217098996 -1.7375587154858594 0.2879576405267492 0.9345417488507195
Ni 5.651339877072139 7.80840880268255 1.2397990910989227 -1.3944894786969468 -0.9308817835006291 -0.3979306647134824
Ni 1.1949621966299047 6.129001462149176 4.319219914093681 0.13338368980118964 1.3926022889765628 -1.2546209525023617
Ni 6.381207825569286 2.6098200866774466 7.339704131504982 -0.3072419426776579 0.4250095232081455 -0.657968181791196
Ni 3.871991840660672 6.312260331657128 8.056861783760267 0.8549488796177405 -1.480291304954115 0.34354077710869224
P 3.3249996681289358 7.094481283053018 0.8324968397944751 0.31566024864834025 0.6304172687561208 -0.21390395594444453
P 4.373900443856975 1.3919003087299953 7.08862088622666 -0.5283182480008256 -0.16749580099355024 -1.4651621626221605
P 6.710948584501402 2.6403461013963816 10.331072305308792 0.041093427606200196 -0.3968687991078714 -0.4528854236828071
P 6.472496213632953 8.91787573311158 13.079331185766062 1.1677906849806792 0.6302684018830823 0.6722480887489778
P 1.4907851614298702 1.439730939077785 9.01807244760103 -0.41739777229915853 0.33340677399848384 -0.24633970787564674
P 8.630761138595682 5.115373323569585 4.641210036598078 -1.270446863791025 1.2687525068077377 -1.5484095978885914
P 0.30724008674213465 4.489622724938705 8.210670103591875 -0.36452200734604967 0.6862084075838117 -0.7021621026995908
P 8.940039096109228 0.4773513727450308 6.057856319427134 -1.166372464476914 -1.0357365126241904 1.7105140526632412
Ni 2.0024673218333984 8.532960160308846 12.95272344182925 -0.7024382391791129 -1.0335487609442524 0.767881042163955
Ni 4.213636530646331 3.164810504877811 2.6265332432515995 0.3012124486541264 -0.3565544157595408 -0.16038310120816893
Ni 2.3953157340901816 3.6830893492089696 8.151249492020526 -0.013159163089777338 0.19762733027160803 1.5662767079769995
Ni 0.2899382742367621 1.9562344718703464 11.056586068663908 1.6683155649183203 -1.3249079709533826 -1.7593305599453122
Ni 0.5627868389782893 1.4114100481646867 4.527676060581293 0.8645910306931949 0.4027975058874805 -0.8956273311737092
Ni 7.546382163330515 1.6741561558771008 12.145321097820094 -0.7884912622151388 1.5391718813404074 1.4023814798505139
Ni 5.585017975488117 6.044720882790501 10.05497678920062 0.0878643652131519 0.4962712468676098 -1.2496402114583187
Ni 4.55442159609751 5.198112185013165 0.645305188041284 3.138644359343085 -0.5066320212766436 -0.7994284779529329
Ni 4.440577407748717 8.120144165115311 12.650904595901295 -0.07030013107714345 0.8533506818926851 -0.0834243271639273
Ni 7.048799714041426 4.766552637470018 8.260667548391247 -0.22572306006655968 0.9051018463230477 0.37121484598519294
Ni 3.3374268488991174 9.364114303955445 1.4075389346360503 -1.0312357965403596 -0.45002507141587655 0.3588437260143498
Ni 3.1612038193309764 7.534758544625172 3.3476021871387625 1.570368875768502 -0.05969433053683914 0.6258360771433416
Ni 6.523597154709737 7.859322868860535 11.261636420120894 -0.23093160085069261 1.602128427568286 -1.700017781117608
Ni 6.029107484995784 6.877379369372437 7.133257824553962 0.7579123609870173 0.43208545621832034 0.944897895274063
Ni 2.8670346973853884 2.797433141327431 6.097967147705507 0.956840669458236 0.1412360959660729 -0.7702114900693445
Ni 4.0034957069460395 6.135112271339928 5.4824320654175125 -0.7750284518420136 -1.1325596296925269 -0.6477812139558651
Ni 2.026172402746144 3.4179232115570994 12.501129970760278 0.6180885719874387 0.15293332979834307 0.3312868994420037
Ni 5.290596572429148 8.387842457645919 9.05522878372938 0.6368082598841291 -1.0746383318957105 0.2000793913565264
Ni 1.5085195893259642 7.568573557562982 1.8435554485155699 -2.2272890759111577 -0.1984634530196582 -0.2718226826380996
Ni 3.1943741138679274 1.0962829063187096 4.471360375453502 -0.8757575888329757 0.33824019083138523 0.723035089493858
Ni 1.655066884964709 8.956082306171185 10.622921375385781 -0.22272695355271319 3.264329652058752 -0.8408240101805841
Ni 7.776228945109237 7.528853297823101 5.307207882183457 0.31456315892941955 0.5614176016579557 -0.5179890981606756
Ni 8.362418127664215 2.7138439990943137 8.855141829584513 0.648581084149341 -0.1879990631532246 -0.10822081738231686
Ni 4.407902331693585 8.411127070036365 5.474144163655745 -0.7530064390449677 1.67207786017423 1.750201343950534
P 8.94462687487476 8.106773266106192 3.271812268807052 1.0969249112080528 -0.2834317276319377 -0.6683906626761005
P 5.651872470533717 7.73375228061206 3.9914179822366127 0.33802498949678556 -0.20337605982992715 0.06189750883574501
P 3.0385017607790767 4.744183712083691 3.982624583873592 -0.09461531078374028 -0.24993385298480827 -0.14499144924344706
P 7.344800209995252 4.645766046630816 11.208931158037913 -0.22215925397470127 0.7340548376431294 0.30328527202275507
P 6.634750344515814 5.606583338809604 1.1844093710946841 -0.32751072022902306 0.06232122663672493 -0.45791938656228875
P 6.54222858212007 2.047812516027152 2.804710984261186 -0.39974560643503415 -0.8460459207011559 0.3955981599255639
P 1.9432560101487053 1.28660564700129 2.8219838311572447 -0.3974470402088445 -0.7838653334073532 -0.06333192728942641
P 4.284667679680107 2.986401038993713 0.3400665314652945 -0.12568837803946095 -0.4954407805465145 -0.2719710352905058
Ni 8.655643531370865 9.164718786936138 11.874189913398538 1.5348313449835245 -2.5969843999280307 1.1633894705891898
Ni 0.9757766278277066 3.8158733085511143 4.588245018405766 0.951832160500051 -0.6273440291474357 0.5956418129481483
Ni 0.2696997226967518 0.38891843313502467 1.4192718751571913 1.1042253015242078 -0.2439352121992122 0.28631856226142943
Ni 3.2959966838352184 5.996021284163293 12.551633846535397 -0.915251790272856 -0.47346890426111365 -1.4454415442647817
Ni 4.990811859774629 0.3713596676438025 3.4779707884139213 1.3254569014783173 0.11671291401372802 -2.440243009237507
Ni 5.16069983027346 3.8879696445080487 9.42924020618715 -1.0292820152480984 -1.1470575661983857 -1.1286713503817143
Ni 5.193075906490511 1.3729792252265232 9.014680668187815 -0.2548796270258578 0.31717642818255054 1.250252134010705
Ni 5.769155157020425 5.936697847539319 12.298637002293365 0.299824052947032 -0.1313679449227415 1.6856998218330386
Ni 5.914786765655051 1.034175033702621 5.483840167779968 -1.3599613630130902 -1.4062538183217264 0.5821476351164554
Ni 9.185816963010627 2.8567098592267035 2.7445391355966624 -0.14253038929746423 0.0924509561425698 -0.9982099764336423
Ni 5.400329513004347 0.9382054294240219 0.8205873024939686 0.4846717149554685 1.1726775807593353 -0.3999032150588209
Ni 8.07411687754094 6.518289907583824 12.100027294223512 1.7437190786603 -0.5526313708248934 1.4362038277165976
Ni 7.2349364569908925 -0.1845511094331509 2.3495351213822246 0.18508806015401671 1.3218828109738137 0.8589939962213917
Ni 1.8436797203232718 5.503783456979875 6.537976243797882 -0.6707298523322385 -0.44398734986222893 0.3799982486047779
Ni 9.04651106970037 3.690545657671079 12.302247425338177 -1.042207979281147 1.8376952131981448 1.5751267021684616
Ni 7.760531453610061 1.774778945135813 1.0079247166682235 -0.0075114778856967416 0.7421535554908638 -0.46289344273811245
Ni 1.0488540570033393 4.267746157593791 10.27872210553353 0.740818381619208 0.2808714231039292 -0.01734569036729916
Ni 3.339164785457955 7.3519575186192805 10.293136700852447 0.5988410366117365 -2.001579385581037 1.017432314998364
Ni 1.5702630558893935 6.551553639570176 8.83451925012747 0.12536544748240344 -0.5678132207716543 -0.46046426447132954
Ni 6.246910179546863 5.546540433825252 5.272389351039092 1.7272380502861415 -0.44757712409601624 -0.8671495354489904
Ni 4.832080320734142 3.7482900014001936 12.027656252165341 -1.3374179304949354 -0.240227938550954 -0.6167346290627056
Ni 6.79377153964944 4.0981478431881 3.3794381948982837 1.3461432261830752 0.6860528558425538 -1.0856917614963946
Ni 8.117350385378257 7.703114140953844 0.6224064723168596 0.3140535662828527 -0.10341414002229288 -0.5616171192632715
Ni 0.3860788690477629 8.701680162690177 8.34607124589171 -0.7602721194684455 1.0587504570208603 -0.23127612867430491
P 5.0920419924544404 4.589516702092099 6.817353283128977 0.1646768434875164 -0.13053953548417518 1.037729117574187
P 3.9399488976091925 0.009773557207225643 10.556964814228913 -0.016755107971151793 1.0374915476420843 0.4196667708389934
P 3.4358912330766933 4.945102259528216 10.36859771936227 -0.44997262091138635 -0.41166446935980716 0.07259869730333304
P 0.5211230802908905 3.7371522574317306 0.7878673764631247 -1.1244426570123474 1.479367507588265 -0.9377103763866882
P 0.8497052148504478 1.045583746274344 12.984217468523967 0.4152912674791171 0.2231781821575189 -0.0068530183660914235
P 7.414028016255609 7.986192237655668 8.741471434891602 1.2142209514187605 -1.9549298040432976 0.9974234759766046
P 2.681589391561481 7.4995326262014235 6.70412017569926 -1.0116488755473674 0.26948297876132943 -0.7303241669561036
P 1.168809054542883 7.036690220599203 11.036893191828392 -0.5714621303781513 -1.6637217749000508 2.006445712534402
