# total energy = -340872.0868671049 ev
CRYSTAL
PRIMVEC
9.23155931504489 0.00000000000000 0.00000000000000

0.00000000000000 9.23155931504489 0.00000000000000

0.00000000000000 0.00000000000000 13.51132019788466

PRIMCOORD
 96 1
Ni 5.63600546988383 6.347924865519484 6.0740549631036505 -0.2724605733324147 0.7668168625654986 0.5677720831210737
Ni 1.127154936179907 0.744984994993622 10.027534884999163 -1.3417214429662958 -1.6382575691906751 -0.09153872874094557
Ni 7.576811585976796 5.854387238383494 2.005701209009016 -1.5863498245777905 0.20075096350225427 -0.04965211580948868
Ni 8.721571105878756 6.762800375248236 8.216626040827013 0.1703453546272034 1.82607665512261 0.4812948280634356
Ni 0.2534192289394511 1.9251216967202516 3.5664615657271512 0.07891461221903184 -0.06361449152685174 -1.630609051506482
Ni 8.48542781714772 3.786268686993823 13.246552866428988 -1.8650779760864717 0.3647582917265718 -0.035627005174990255
Ni 6.679910203648707 5.601054786102138 8.5440048308297 -0.6975644560265792 -0.9856678781025735 -1.3047255824682369
Ni 8.945685672748317 4.288871705432936 3.3112597226730025 0.2765278014232528 0.3538670987353647 1.1791338779076403
Ni 4.037256323194738 4.290745711985415 5.905676859097363 -0.4236396394438123 -1.28131028886809 -0.8526261450218348
Ni 6.516308508461395 0.8266695249391927 9.076796894726524 0.6534510106471326 0.8235814210500526 1.989155043774755
Ni 8.652048232249614 -0.036957624789125454 8.367006296682009 0.018087710739646268 -0.8239346906244132 0.152891163706498
Ni 1.8587283217181556 4.590937559638105 7.196169467866547 -0.6785184951387218 -1.271283243649391 0.1880602554084632
Ni 3.5098111784860695 1.4916261317385477 5.552422931331415 -0.4876220558330441 1.930051038523747 0.9841961786530535
Ni 3.848240145056819 8.805384433415465 12.480352824842997 0.7561886934276912 0.2657713342376971 -0.10124207207163853
Ni 5.133891724091423 6.722347682080941 2.178889878603957 0.9500172187784994 1.1108883153666804 -0.31349923644127947
Ni 0.4438838387428076 5.238706849199015 1.268752286448559 1.3131225482826805 0.8041875899044731 -0.6138999878273879
Ni 2.9533420111124133 6.511701960334859 11.038938067683691 1.1299795276701765 -0.23629672181734787 -0.5061558529711734
Ni 3.622343887228498 5.230306130170662 1.2738462609099268 -0.8611148992191363 -0.4914391155862891 0.7088999356440565
Ni 2.7597654426448184 7.5405500207643055 2.715099465780227 0.004612044850714638 0.16006119909237596 -0.6454484520576304
Ni 9.069647051993051 0.5080487153125471 1.0186850367170142 -0.2575520316516984 0.023157411953069792 -0.5081703122980409
Ni 8.807581544545958 7.4119451671555465 0.05716366194215483 1.3227379598852573 -0.4251352501527323 -0.9033241855973346
Ni 2.1225662885646375 1.22867439459176 12.832754679678928 -0.42798660355859836 0.560106596156016 0.03603606768795084
Ni 8.374002895529907 7.819767765524231 5.864210540711043 0.9275568328924542 -1.5483643464729526 -0.00699391481932989
Ni 1.3225408902843783 5.597491404184616 9.481285053850108 -1.898911379696149 0.2616254303901236 0.1771754901751594
P 4.876654322195789 2.8565398795395582 4.294964534618334 0.24780883622200547 0.16539778081394096 -0.1806271961691857
P 5.016844782816176 4.08634052437468 7.748593365923473 0.06360086468009692 -0.2563659817633972 1.3249581074650278
P 8.790724717133024 4.10713922763938 9.418173498204693 1.3110067874912583 0.6388098636951902 -0.8818431329054233
P 2.8579338450047023 3.2264300004494544 0.6119019119335952 0.9221348905459344 -0.5120305665843956 -2.011440851756149
P 0.5661392258156323 7.81381340972941 9.8478878164677 0.09247255340912462 -0.1743393062779449 0.5257594861347139
P 7.6409709236109125 1.537451592460239 6.6387328330707245 -1.2835312077788088 -1.0189847470871483 -0.9699833774877812
P 0.9881368835997401 6.594305953593864 6.7508362743023635 1.055070437066112 0.6127008253129642 -1.3547026857173121
P 1.6765158028372649 7.124289777129781 0.8838331868813476 -0.2160950500584924 0.46809992663971645 -0.9336218081396115
Ni 2.6271540922686913 2.6675606276391273 2.6250871461253418 1.1640368743652019 0.26180360783920076 1.6732376848102861
Ni 4.694331024602437 1.4655100502756822 0.7454908844471975 -0.12300491767002687 3.508794254398873 -1.177121475463302
Ni 0.9561402988170282 6.56530039404762 4.441495230215285 -1.0286253555007059 -1.8424656380035944 -0.000972648325914454
Ni 3.278846794562622 6.220446262154087 6.999876974631762 1.0607880562761793 2.6949334030706944 0.390143821679212
Ni 3.100031489530559 1.4251865989395927 8.113115335058659 0.4280184852377983 -0.8938118752315253 1.2584228427469553
Ni 5.54685630103021 6.345413881370351 10.492013409544555 -2.139404913203664 -1.470935574770828 -0.083653669565914
Ni 6.965866986750058 3.266716525548057 8.399014882491905 0.4640018453109429 -0.4253028860788482 -0.9111652789083082
Ni 7.283635723446686 1.6672103909904752 13.343388231615583 -1.4238481343647218 -0.21393763739585736 0.2707721298863982
Ni 8.230415221060692 8.944430180673749 11.520143254654872 0.4689162518934247 0.19698455448128654 -0.4027941634533708
Ni 6.509430996729393 8.547565443279408 7.059354065352495 0.4014314787778893 0.59641674344096 -0.5772692239782315
Ni 6.097121860506006 8.618906934104796 0.21146825368611072 -0.14757772191338456 -0.13680582810886116 -0.4366239675186222
Ni 4.036527030004365 0.33932535098575295 3.6260734372147114 0.5001860085409837 -0.19477134888005165 -2.037460158638046
Ni 1.8666305365404297 2.924853418890992 9.641893877489077 -0.27022139958925073 0.809777939508057 -0.7338257523514587
Ni 9.052310183492782 2.9103875653553573 5.642868211120838 0.04173054696956684 -0.0035969733226389666 0.6699808899813557
Ni 1.9545796026757143 3.8875573564213806 4.7124784240155515 -0.2199506763591567 0.04254532956137834 -0.02284502291897356
Ni 6.433326021268147 3.9935448895691925 6.011619157604252 1.27875872609083 -0.9067486378978512 1.4474727157621974
Ni 4.310233533819317 2.2096014303221123 11.846753055761887 -3.08234079965535 -1.397065209843923 -0.03730207888456802
Ni 4.20778168791091 8.905759178465214 6.803692490641629 -0.557391254107382 -1.7671953074053692 1.2436811656614064
Ni 5.442807395350479 1.6110917415692099 7.301436016227419 -0.18631164814847267 1.6554189114613103 -0.7901812483230519
Ni 1.0710362867586416 3.3206288322794584 11.82286454957544 0.533395662523733 0.7556179085258857 -0.512263251420492
Ni 7.079378240785899 6.096189473009452 12.428806566778594 -0.22453546751636166 -1.1505725213301798 1.9477710815113296
Ni 6.662481019554719 7.863553051624752 3.9049339206269487 -0.4888150476998807 -1.2332738542851533 -0.21517690911959714
Ni 1.5814492044263107 8.146315715183455 11.877787712058057 -1.1382134855441945 0.41534808885898145 0.48357488234686397
Ni 3.732984126299705 6.061460346652684 4.1917787797398685 -0.40543700039285663 -0.6098816106966142 0.7321846172036099
P 2.0182588992224963 5.2484738390143955 2.8961654249871387 -0.5383838597669438 -0.4872405041239093 0.892315750301973
P 7.500900473262359 5.855836593204868 4.968220313292951 2.308162097408141 0.4916939119095725 0.39339395318539344
P 1.9671437549807549 0.9717693288335115 4.159757269746852 -0.3654013246272094 -1.3057447677613705 -0.5264685963865966
P 4.389274145160799 4.53202174772718 11.3073401174836 -0.958777995690265 1.1168985261165023 -1.1294326540277708
P 4.553069703094919 7.934959163365743 4.932861594587025 0.8017350145989225 -0.11772927109338434 -0.568526444788595
P 7.602198374249289 8.036450927099482 1.6223043935822166 -0.40164539456090825 0.55538373675905 2.520675857873278
P 4.223807674980382 8.944374791317518 1.395503442935458 -0.8099111226518115 -3.781217546735449 0.9198779761909577
P 6.297188215211987 1.8637410584570515 11.342928702017884 1.6690035921242805 0.06186665559780958 -1.4788797693185691
Ni 7.971876169293633 0.4022430438843603 4.485744863752207 2.259153785830238 0.7326998662771317 0.3382895560120819
Ni 0.8449517051191358 0.3474186590870234 6.381126168800218 -0.3074885114708253 1.7920689307185975 -0.8247237621846119
Ni 2.1371613839314776 0.4417125759785566 1.771144825333995 0.1603933856208141 0.19142840054974772 0.11049161569436454
Ni 7.161649897907518 2.747025890711713 4.070960746461235 0.6526801939193791 0.05760556632861046 -0.32175967667785876
Ni 0.823696039665531 2.7492322334015773 1.1048247172154229 -0.08837421497003489 -0.5703280167737081 -0.24154974268617108
Ni 8.441079405925517 2.1082019821820928 10.284209161773118 -0.887843316352916 0.052890420241128264 1.282843951903797
Ni 2.3305533212116365 8.169800802225353 5.1594188320663665 0.7306167584958578 0.7297626380256786 0.34862179117602543
Ni 4.692337007778125 6.573451860972932 12.903161936695888 -0.03344722391485208 -0.6984766834282036 0.12866108751453972
Ni 0.30950926052666383 8.281622680896152 2.890706803930584 -0.40461579004314185 0.02171322330737551 0.09468653034130789
Ni 5.620736470682848 3.5677299819848387 12.802989362796383 2.48506530775852 0.48624780119333677 0.359294183288207
Ni 5.84861751377611 3.2382740911234937 2.1941976503543015 -0.8853071801946236 0.4316514540046953 -0.8174449691350114
Ni 8.238723624495327 6.093475394554139 10.509794316050607 1.3619231147251512 1.2701540151409545 -1.2059057466848457
Ni 2.1915168055127263 5.212129189767558 12.881935812232273 0.2983734365434345 0.302333449632447 0.08045547434359047
Ni 5.8787123973282265 5.003348243014583 4.063759206995282 -0.9464073899400538 -0.19426021357158801 -2.91021932696433
Ni 1.9059846741424784 8.292755941498562 7.975867895566006 0.05442614015936433 -0.7106711686118663 0.679926688340158
Ni 7.027819981694311 4.136966395969715 10.617060420171416 -1.6046051712435525 -0.6936090709232571 1.4279259039785215
Ni 8.686435790909625 4.887529099135788 7.059610702703031 -0.6426492920459383 -1.3157751554141792 -0.7494287489960383
Ni 3.336894839892597 4.7701959795200155 9.218557643596057 2.804910026801853 -0.17026205088477775 0.06035613249055412
Ni 6.863664392944691 7.782010687693507 9.257334808737365 0.5017798353906648 1.338801183995707 1.4309158398447808
Ni 9.01202365839418 2.177429445911336 8.07799940636421 2.6945544224647207 1.2421690998922543 -0.9802053123261053
Ni 5.0079363280223745 2.7846260320331173 9.596928798100839 -1.1137126721893529 -0.0224146202497743 0.21722967788356784
Ni 6.643528628164383 0.860407181819429 2.2240035860980814 0.4007043708038776 -0.5618924844118452 0.6015916027736801
Ni 5.9492692056070124 0.9568511288886581 5.018131662192608 -1.9200003391559641 -0.25989559218321046 0.6608429322358296
Ni 4.5109091714438385 8.83530391733952 9.976110483518466 0.478860250480014 -0.975493508672733 -0.5536189315491433
P 6.3139434954718325 7.950209699447983 11.59187524044169 -1.148583515924609 0.5997573777784188 0.30175880807589966
P 5.116268677250628 7.165554847521795 8.193818550243005 -1.281520090886051 0.1391416753308894 0.03835108897437266
P 1.877062198630581 2.5190340689059902 6.833431036001996 -1.1816867262364812 -0.22225309924008824 -0.9191650092843332
P 8.007537683146955 2.788327887341215 1.9028801007257368 -0.5455605800210411 -0.4214673143828419 0.05758448328268793
P 5.768192168528854 4.9635325274439435 0.7474876707393211 0.7021340776751327 2.559030803502393 1.7418244327407486
P -0.07770388154444391 1.641675897768034 12.334795135603837 0.8923700005786761 -0.9526104334269722 0.6940101630164177
P 3.0475408429424173 1.0216751387975451 10.57802661767957 0.978738755082908 0.5068297391097465 0.30083732470289476
P 0.13559591352103498 5.5507058612882565 12.240796628612202 -0.07073876127645881 -0.5197467042817306 0.9463780793640153
