# total energy = -340856.979908158 ev
CRYSTAL
PRIMVEC
9.38210368282866 0.00000000000000 0.00000000000000

0.00000000000000 9.38210368282866 0.00000000000000

0.00000000000000 0.00000000000000 13.73165709739523

PRIMCOORD
 96 1
Ni 5.323489912793398 5.459521030110168 2.24393080710506 0.35841949399273754 0.30594147869867955 -0.4502189325942375
Ni 5.163637634922984 2.6206560345201004 12.763369380749245 -0.32494424505342745 0.9354876577037567 0.7273146907058184
Ni 3.1019485572618763 8.552631645961437 9.221892734067586 0.2091867529744333 0.7019774974926104 -0.5848012706892186
Ni 6.0000240074616515 6.919807897196593 5.906109152344686 0.3622044149564665 1.4933525090134474 0.3349682049483328
Ni 8.111738460495749 6.434471687885845 12.011121711576104 -0.2657263399323746 -1.2777343985913736 0.35414889164184166
Ni 5.926008593673665 3.227603068209081 3.88165107563869 0.2138319650559285 0.4041367935241943 -0.10371804441595686
Ni 7.895715529519914 8.107403928721121 13.669589563586824 -1.095131823863372 -0.2245706916296713 0.8048655898081041
Ni 1.963786828595619 2.109528422939968 2.4859243385253778 -2.112611190049588 0.7557454352426856 -0.342358583875133
Ni 4.434638817995582 1.175774581230085 8.197868046204517 1.469237875353431 -0.4562921353715109 0.8535080334061559
Ni 7.481204818838333 0.7389006888645085 4.468500705616776 -0.2761079402770148 0.8363497764593145 0.6578679087679057
Ni 0.2705404574607168 9.08184795291275 6.05855801241562 0.5115001480022223 -0.4940598410385878 -0.6393479955868472
Ni 3.52285786246791 1.5999488584222026 0.776064138675079 -0.011320310108825664 -0.318398987735742 0.5940153330883189
Ni 5.685470226491972 0.6457748686441808 0.4654348915610875 1.5041434289813644 -0.4811454469697649 -0.6376433541909148
Ni 0.344037040930224 5.741040424979263 9.484043714660611 -2.7360080616238167 -0.5145443341451847 -0.8424096095001492
Ni 3.531404958672861 6.314999983084702 4.112384206548381 -0.6727569100645963 -0.616949316176673 -1.3539359827546167
Ni 1.863379557920119 0.7600151125848612 4.578916804208237 0.17525796143747235 -1.2431587174990333 0.15822003211857913
Ni 4.725540316272966 5.534990669926438 10.001974289422094 0.08524389687116932 0.7604641808745936 -0.023957796367178097
Ni 6.979919033733495 2.978254905927005 9.07916560954832 1.8791874189046605 0.20711907181212713 -1.0212460323174994
Ni 6.843756566969009 2.7476709504615062 11.235090410262956 -0.17166124522514953 -1.8391432584985807 -2.061884096008365
Ni 4.179586336841267 8.11294875183542 7.127676842100286 -0.6874242822687839 0.5551497663713729 -0.8582828290869798
Ni 8.67045210056272 6.304811018783302 6.145891321991671 0.7939075481347037 0.3287844447351241 0.1786181361589569
Ni 0.6577060895485008 5.939622025719092 3.042097304989384 0.5533515368203696 0.18250127326344698 0.2709261389657592
Ni 2.417280178938637 8.548597341495872 11.760051933318609 -2.8925748744096893 -0.6752830189205595 0.36362546367370924
Ni 1.2277045235949602 3.654075960736229 8.613428614257487 4.153628469911272 -2.2635097488060887 1.7345546385522128
P 5.468818694587781 1.1745642898904158 2.549762984746393 2.466829501476784 1.2695516056702651 0.38762542613273243
P 8.21066335883274 8.088752307145445 9.08180198060605 -0.510177829646373 -0.6505438643026666 -0.018885266940277153
P 4.192242794339048 8.08762645473645 10.954703435275238 2.0835309848541796 -1.5282398078089356 0.3457359849877981
P 2.156711020980249 7.948818234810825 4.153180406798641 -0.537294740467823 0.9443613060443027 -0.2579150714180719
P 7.933318999980333 8.05572730314827 5.217603493727458 -1.0179570771535824 1.1357760797472953 0.18860327239612681
P 8.802186214518496 7.348851486057612 1.7413662413056716 0.5725569061042269 -1.1664704235073589 0.2717429784400997
P 4.192102062787924 4.679005083367857 11.996236066308514 0.6594367959169224 -0.8915716730470967 -0.4550348659256422
P 6.778541566177997 0.7270445247874547 11.971396009324732 1.1203245210789157 -0.39485022601594577 1.7955185798300948
Ni 0.29613483555852704 5.7615497030297815 13.699373989066775 -1.1544559155449858 0.8047979697949623 1.7210599464998875
Ni 1.2109011763907163 7.878546280282747 7.81647053129215 -0.34126097993558 -1.704971525578457 -0.2929226978415084
Ni 3.212385296480837 2.900890081222261 7.075387565174873 -1.1106363472568743 -3.58925924182416 1.5147538575073591
Ni 5.744755737928946 7.813584596283759 8.845356086931051 -0.5168081904786971 0.7595861491450144 -0.8063182630942307
Ni 7.370073803967159 0.7530291983870497 9.252390199406568 1.5459341397649051 -1.2994483932296974 -1.161592269479451
Ni 8.465331173747316 1.0166259611152924 0.8291161806075853 0.6913107618073836 -0.5308626116892341 1.1680637361364075
Ni 5.544860642711957 0.26298974063772645 10.319518146747994 -1.7287303185609517 0.6923834260462721 0.7265148205123423
Ni 3.4257812385023523 2.7661724583826506 4.682000788986123 -0.018532511586548728 -0.09881006559137821 -0.5497116260749372
Ni 7.323866944681341 6.641975668966955 3.6210237486391708 0.309119619316345 -1.3328753054295757 2.0655006097150297
Ni 8.231369661054833 1.1947921048386851 7.0020326514668305 0.5854633297532498 1.8042875842719763 0.3912946474542035
Ni 4.583044929707884 7.886821295488858 2.573875928716035 -0.22208006399733368 -0.29362615166643624 -1.3669568204943165
Ni 3.12790883739261 5.011056487193993 8.258232499533444 -1.2072044108916111 1.2244703970609103 2.0449850062601813
Ni 7.239127786697681 6.239126912821876 8.071138346206723 0.9216687495427932 -0.5310999245110208 1.4985877892704578
Ni 0.09253380949526482 4.453055886986052 4.803237267438364 -1.3334746295764712 0.1834322697181486 0.7529141364414775
Ni 9.325388593185094 4.133482680692939 11.746718087954749 0.42593126369146644 0.6172375368410531 -0.9597110490274955
Ni 6.442737320988546 4.815054964891444 11.57663837915896 -0.9970426955984184 1.9024008809066462 1.173189230288431
Ni 2.2955004766990563 0.6456650980343037 7.282556605164307 -0.9289657974248388 -0.5818627568861849 0.03175620936567434
Ni 4.83513266618518 8.89171962734379 4.624602018544556 0.6065540889852779 -0.8172012285553215 0.16959382117315955
Ni 3.6010295480657675 0.7214133863218002 3.030425968349473 -0.8760578936822139 -1.2524044044670173 0.24716091822536143
Ni 0.5008082360413565 9.090601455392683 2.6432612744720303 0.05925030102088505 0.15692985255224584 0.31021876591779474
Ni 6.351064788586163 9.325482414219177 6.456226909268984 -0.6532013565301718 -0.3366692467998395 0.8913382168800519
Ni 9.126581821963468 1.725612751472815 10.59166575852255 -1.3075720507780966 1.612567877734055 -0.09385657824084481
Ni 3.697214872207538 3.682353620408809 1.7609063480741134 -0.3297087563216064 1.4322666974457205 0.644130247466839
Ni 2.5503653157852053 4.006617878406066 10.40623411391978 1.2068123176595151 0.9271068898392292 1.394435999751192
P 2.866542200644518 5.92154271245132 1.0379026952246084 1.4996571110752366 -2.7427140128890826 -0.7428233278643788
P 4.164396711423248 2.0593154054988094 10.255831490602192 0.2739153035010702 0.6042030722545981 -0.0946829307968821
P 1.656926372420737 0.30452994168826325 0.6807672997260733 0.2895764070770948 -0.43144962240653434 0.2779971868799277
P 1.05938958845027 5.194354641481719 6.973814099045722 0.6796698351343456 0.6768647615853828 -0.09449626870737275
P 0.5820732011329264 1.5184089977007702 8.497218128601064 -0.544966398080468 1.0415870578676965 -1.1276825041058838
P 5.970920722689141 7.646836472408253 0.878752198689134 -1.5974734452947779 -0.12482243049473987 -0.781863472485976
P 8.001611330689263 3.0235798474924453 5.64073072817921 -0.14150374780516276 -0.9482832668065281 0.028069761653022624
P 7.836092262360243 4.861702783037453 9.899591147768808 -0.48147146285061604 -0.6964897349051618 -0.010641795984562318
Ni 2.0624208817269527 1.7439078531189771 10.302642557347506 0.08316850239937934 -0.7420903063530963 -0.5793047663510216
Ni 2.166374587490786 6.5261066918745945 9.991524502645943 2.8650645848045624 1.2731418941246848 1.7425813655114313
Ni 0.8793141866832905 3.4425564393963715 0.30878472558392195 -4.086427546584742 -0.1163025659491868 2.504232881825906
Ni 2.6850172639009577 3.4667059735693053 13.215799738776102 4.873501102516748 -1.4769154465033467 -1.63160072599579
Ni 7.960677213518903 5.020644996877262 2.180202869704262 -1.6804807395259445 1.1945988063124586 -1.9475098574301426
Ni 9.211105191568736 3.356672664796901 2.4964285415012974 1.4244993947954758 0.40651274995553865 -0.020492720636713094
Ni 7.041231079506659 8.543934436101955 2.6401304665646843 -0.15412220790012165 2.490592408224336 -1.4441932736799772
Ni 8.852371085649429 3.9272171372617235 7.748196964790036 -5.371874483329026 0.7193998067341159 -2.718838491823066
Ni 5.248677020215707 3.699269552853953 8.19840282609879 -2.882211271787178 2.321246955616557 0.7870064501394962
Ni 1.8171351702206662 7.490061524455758 1.6605694431741753 -0.14824877983848014 1.3790399769110961 0.30345856437582575
Ni 3.614521012766886 4.665701260734904 6.229352637491122 2.8531122975386927 2.6578748076555 -4.695442438405688
Ni 6.41799671430089 7.359162417703321 10.944611106638945 -0.7489042439511361 0.7612951614163211 0.35720079109428804
Ni 0.7483953775136962 9.151388103374982 9.62891277338799 -0.41903787900574285 -1.205564304185027 1.4180250999250417
Ni 6.3474808250841965 3.2067560344358643 1.307481487085976 -0.2510288858211999 -0.3188797840269024 0.29237248176499325
Ni 8.036447080644237 2.6086563242609 13.01778950813384 0.4907019803099485 0.34529349813374083 1.5969383987269143
Ni 4.203670196290343 6.5895578572248485 13.171569688678412 1.7262769719244526 0.06163962718866803 -0.21030878239401846
Ni 1.1227281685596235 2.4968591800477378 5.7979034773162175 -0.6867470536961012 0.4286314362314489 1.1595590410995062
Ni 3.6413256822043656 8.686870781527224 0.10203694203751995 -0.3747771094151546 0.1439311262997328 1.2113132908536621
Ni 8.95765705009724 9.408279476797322 12.153930460395022 0.7349580661836891 0.17377314936182975 -0.3900288933679025
Ni 3.3831301964082745 1.2106478595986925 12.270402706736535 0.07784811862773044 0.1120504755410522 -1.0962070592054218
Ni 2.239001449974345 5.496008030265001 12.514002454260353 -0.7842445711236429 1.8124122702616399 -1.0764185637245849
Ni 2.502891872539267 6.605216587813281 6.104723590446444 -1.7869557778617482 1.5406309823844369 0.5669837828918236
Ni 6.84742496940165 4.778389704771853 6.289524757700177 -0.7074508619023558 -1.2213930436871674 -0.9531650203788616
Ni 6.04667182560766 2.5344251220945235 6.569389149528051 -0.015443845358895982 -2.0281725626885327 -1.6681355876970303
P 7.275314559543449 4.718531885026974 13.729391090711252 1.002516831339112 -0.4546990798527782 -0.13329858628655106
P 0.6334467847656899 7.010439016120658 11.740553107805164 2.1700059259189723 0.7644596751872318 -0.3610983263764813
P 4.943833716273608 6.072669634152026 7.723123293431385 0.4382396487451743 -0.39322940258307115 -0.13512072709695438
P 1.7796536671045549 4.032625069053841 3.650643049099136 1.1827406214222922 -0.8318704005317222 -0.7447922786652915
P 8.827574186341323 1.482766386852683 3.0211292420822007 -0.1321243634727918 -0.9439293607132065 -0.2683100414991508
P 1.0406910563575515 2.20713044469639 12.309373149663543 -0.17244671724092234 -0.596678738853095 -0.9203405176496731
P 4.115272017977452 0.888470181399439 5.994911699314475 -0.07877577264832239 1.317278479432583 0.35676987420445655
P 5.443815389004694 5.6069420209646 4.405073933735385 1.0948690571202886 -2.481584548298771 -0.6403615244530262
