# total energy = -340892.459171822 ev
CRYSTAL
PRIMVEC
9.05459752012416 0.00000000000000 0.00000000000000

0.00000000000000 9.05459752012416 0.00000000000000

0.00000000000000 0.00000000000000 13.25231872344414

PRIMCOORD
 96 1
Ni 6.438207972216666 2.0530393740187396 11.527303594912484 0.044634865100555386 0.17237986855872892 -0.4036487981441822
Ni 4.633210234485609 0.2823576542977109 5.947640760268679 -0.1128943115985862 -0.15520824187544882 0.29167776969081377
Ni 2.6852766250148523 1.5336857865839384 4.685701545498494 -0.024234961287964714 -0.2775876101463348 0.6572683275106938
Ni 3.33502546703748 4.453232005512466 4.8938422882098855 0.5881336774965613 -0.6495138803762556 -0.190435183398543
Ni 5.124105222853016 4.558989701060401 2.8007843108509736 0.17035101105415823 -1.4247392787204236 -0.8736670248525341
Ni 7.128331263250273 6.053269880536067 2.603377793145753 0.8822411396747902 0.4647055562461868 -0.5918250103052194
Ni 5.423902936859194 4.387079118211677 11.692878676085275 -1.1943908040667108 0.42548929105804134 -0.04321510193489332
Ni 5.735607446211734 7.780389027564402 12.41381747784305 -0.9873622350858607 0.7805025875827074 -1.0415556904091288
Ni 1.900958359085253 6.300107255393283 0.40375263924729743 -0.18727786871648391 0.8622448990585215 0.576602279818194
Ni 2.644675811073333 1.6072996619953008 0.4222176793612447 1.1618570931050636 -0.2755410120299513 -0.11966556888414875
Ni 0.852680474952451 -0.10704616473256483 4.369262387258794 -0.7097028911613261 -0.09216864901546062 1.6626298273874525
Ni 8.832813917224684 2.6065287929788594 1.4520830400439846 -1.724859522751636 -1.474338944025422 -0.011488460255573764
Ni 6.7460914415417035 0.6186300022915372 4.690817392928682 0.06866773768004303 0.19380744230488559 -0.0008489782638566024
Ni 0.8553099299855949 7.41561552389624 2.443886495846134 0.06652909407048542 -0.7469340075986427 -0.13324073646542214
Ni 7.6520310573514285 4.051959420444156 3.840468476760784 0.12038213533519912 -1.1933600488093512 0.7040963436078261
Ni 7.524995058332803 4.1190087128698805 12.81874178197082 1.4051423304251025 -0.5380688996296862 -0.4154735586932522
Ni 7.790421521285902 8.959886134632194 6.8112148211384005 1.8991008699991356 -1.267619935865191 0.4327130624999902
Ni 6.676742281421701 0.757468668788478 0.20984481790849124 0.8742167267084171 -0.44149826489178806 1.6963501024580332
Ni 1.7776528541219154 6.6215816751478975 9.050299909728457 -0.174487401820035 -0.7741488774505377 0.17637330598883819
Ni 0.008206181461908723 4.948047634476813 1.6419226308511394 1.008768982896411 0.7083841723499027 -0.5525881762917838
Ni 6.5293153294601005 1.812096541952767 7.017911355592951 -1.4514023898339068 0.6882488350526083 -0.1815273393859519
Ni 3.5692950609511565 4.4690051138724405 0.7720166901443741 -1.0851058070859376 0.13163353987930235 -0.7271190297552445
Ni 5.98055241024964 5.567273429265529 4.821869105815071 1.0350328016889465 -0.34874340435555423 0.8837616900843748
Ni 5.129528926588737 2.7108468075685654 9.531226692014638 -1.672193816926804 -0.10371187376836977 -0.6576938450838867
P 0.39826555333102615 5.523521615490904 12.315339678461259 -2.3090013054799847 0.30954205156574427 0.5875469517551559
P 4.1157037848840075 6.086427815561457 12.490375908270869 0.15190668830604162 -0.8301642164738928 2.175517599765821
P 2.431720739019233 8.482473441527704 1.2662084573601553 0.03453120100765021 0.06722534880656164 0.6033648926240189
P 6.366459343832947 7.679421213946677 5.782384400918087 -0.2945422357228024 -0.2803093799528721 -0.8748628449328482
P 4.694564185258966 1.0483412663133531 12.59093445409418 -0.5262112289601518 0.6681155546378429 0.7086826774269279
P 4.010923985836002 6.094459243296989 8.409868248246825 0.00020311714974158567 1.2183501430957857 -2.158661447440431
P 4.58845336041939 1.0479790824244903 3.748842291096553 1.7754511196562583 -1.5800593635833884 -0.10432302498980744
P 0.14466982710763168 5.631216994844255 3.8276009886492113 0.9888478184924517 0.053983396194990894 -0.660887669430836
Ni 1.47884209121289 1.256759985159447 2.546512206215128 -0.07764037349229855 -1.2185257494417017 -0.15444590978812756
Ni 1.9644310856084575 6.5048860261563055 4.818767906266683 0.41503904225899485 0.07422492005284637 -0.5886013611615992
Ni 6.0277811893573485 5.529832669754338 9.27904801025642 -0.16793031742780756 1.1333407308329255 0.41168220997162003
Ni 8.686880973804643 2.1597840206638264 10.229291770271285 -0.06580198609647378 1.164841372544368 0.412437857190722
Ni 2.249116676851834 5.114552622784261 6.9090696642313505 -0.062320969526408795 0.4138265100081325 0.8869056350299952
Ni 0.6367419131138432 -0.04368933705379651 9.254279159556814 -1.4720676314927421 0.3645664874307399 -0.7307486560880319
Ni 1.4680942843108866 1.0267188881482445 11.54981966182336 0.05478198083688629 0.8013187529971103 -1.4604097355388397
Ni 4.194949619767187 6.8412462037431805 1.3410546634533735 -0.896074960234089 1.2061620856700261 1.1892059174316618
Ni 5.739682014961441 7.816571198061795 7.826514051270801 -0.8408538349772551 0.4067678033891382 1.6751498142313341
Ni 5.036773632650975 2.7551237879820416 4.916278674665214 0.31896951552723135 0.5521233208402233 0.5041727611028737
Ni 0.8440197527100195 7.3966280335226084 6.622382101542284 -1.1380913581440335 0.14750341703202338 1.2514847208662252
Ni 5.117441039297941 4.463653846914493 7.323164464425124 0.8967120795974557 -0.17175817581433 -0.8808062070004766
Ni 8.011933187714385 7.231617053756721 9.168430712379667 1.2666827687629023 0.6226342823765922 -1.61935559007985
Ni 4.5402919577978595 0.21526671072476725 10.562853171856974 -0.22959565564808843 0.3317707810569577 -0.8788508830463188
Ni 8.09080778411148 7.351690067511957 4.381932485150936 0.03434839557288278 0.43907448594164383 1.4040460120371305
Ni 7.222001071507414 6.059535661813394 7.126937760737873 -1.384236690620687 0.5628751600400888 -1.1298910817214283
Ni 2.28064478437734 5.2524360292743255 2.8022022607758714 0.5858716209352619 0.1405642667100289 -1.0946502562412632
Ni 2.340088215136946 5.359225948905521 11.489136656704122 -0.21986891527862779 -1.3194667453331534 -0.9171613485907429
Ni 1.0285841351758878 3.464596753278144 3.804978982950841 -0.3011512563988878 -0.6597918652634959 1.0893422137647883
Ni 3.7980866235457817 2.5616632637459813 2.529920562266324 -0.762490724386319 0.6812004128462591 0.031860339043706415
Ni 1.0586001249653918 3.4192151120036365 8.313483871742658 0.31818532906303915 -0.44957409992138697 -0.4205394032519338
Ni 3.4901126082485283 2.8914860221388827 7.331633229206458 0.2186910929204427 -1.0945294143926825 -0.05249729856776766
Ni 4.31228814516151 6.5160684537249445 6.102626489990845 -0.9610336244936611 1.0552455291913956 0.37668281107829965
Ni 0.7690757569668083 7.470911949128368 11.299562365595559 0.44415318601613185 -0.3746634666554257 0.17781929440674538
P 0.03411862779059722 5.6650992976473695 7.924674034290118 2.013796239362203 -0.113549685794398 0.9057410225689432
P 8.493963725401876 1.5511521046243464 8.151023572014086 0.41656293510268905 0.16653420841122932 -1.1915384222195802
P 1.6275095229938445 3.2864203891520933 10.492284357491226 0.2323415938243418 0.14231853039697426 -0.08432524171164187
P 4.201496093558382 6.178141830818737 3.669725936953642 -1.6762692725477584 1.2308770719182027 0.5279186985695618
P 6.776940454275593 3.745850652174546 10.155410784241887 2.4494156768757107 0.5788532806358998 0.4495095652320388
P 6.326374641933056 7.8784593700712255 10.223036854510626 -1.0626955577115376 0.17742437296117186 0.26166913914386547
P 2.6107482352841105 8.430527217267558 5.769198190984314 -1.0789742402669031 0.4303620457693104 -0.8874584222096716
P 7.035240949215314 4.06322333938779 1.7298382425739716 -0.9685736416244479 -0.6387581845216483 -1.2710898966916626
Ni 5.284172392535928 3.0114956537135695 0.715161063270693 1.1769414982420117 -1.1572579037701554 -1.1389519063721159
Ni 1.3593304624853901 0.9183534686004968 7.0693695370628555 0.4108831111090924 0.419538215680929 -0.4676576968959752
Ni 6.665251997547529 0.8644061783543838 9.215238452716573 0.35765330525067435 -1.300851187114495 0.7458896254945283
Ni 2.7439866333995107 1.7853945347463576 9.34719109802651 0.007214001249935963 -1.5662126875082834 -0.16494115289249658
Ni 6.561821333485536 2.0453610755748484 2.71099983026161 -0.5311258926529498 0.11894231756487902 -0.5946205707724856
Ni 4.032111743334475 6.789164160524711 10.574634108301957 0.6515831042004584 1.1014220277474578 -2.0878093005145595
Ni 8.280890943583895 7.309278334126125 0.1608368104467446 0.32650439045169577 -0.6849840482584074 0.1934541727305249
Ni 7.734590874817702 3.8131444187252526 8.024517266932923 -0.7590665291961185 -0.5295858018593396 0.34324381469356374
Ni 2.956923596259168 8.275449130653731 12.378553443503925 0.8430894091759932 -0.003283298736962087 0.02900358632120166
Ni -0.049348460317277645 4.89819302217485 10.060497779786225 0.1619113649272373 -0.6164505221633835 0.2981942306530929
Ni 8.700001085178696 2.20398856429953 5.791992234029894 0.3203900500238418 0.44525721771358795 -0.13422726874840754
Ni 3.4114009946014217 2.7212686489705917 11.60114564617383 0.8945117295120272 0.4596592520715309 0.3531168508329015
Ni 1.02542408074556 3.409843603879312 12.748623886546707 0.22632315554440374 0.055579537037517175 -0.4884178122614621
Ni 3.1698515045216036 8.156761470273395 7.780236910331079 0.6259746596037349 0.5044632957600989 1.3479591963458915
Ni 5.8370279896905375 7.7047559769726295 3.4901171355471385 -1.670644470161813 1.3741921619004913 -0.06636865723322118
Ni 3.030528417073309 8.351435310537145 3.464726234018413 1.303230485979949 -0.3989922732087774 -0.3095348524768927
Ni 3.428849203447387 4.451937198109781 9.466117799773496 -0.5107830673305397 -1.2085544971616025 0.48246982220814333
Ni 7.509584133861692 6.340943488862562 11.204569680684347 -0.5185830229909327 -0.9778787210754578 2.1398237459086373
Ni 0.5897494589936181 9.213595948780581 0.22861047065019466 -0.4355171076076887 -0.22691913725718985 1.0187093819385746
Ni 4.704596678980465 0.27012579891109223 1.694586884670956 -0.19863391715925144 -0.03150861213124251 -0.7469864581031329
Ni 6.0333859850375005 5.8071659280538 0.4202048423988898 0.5625339746505861 -1.7852876461307057 -0.3767082649995964
Ni 8.050460498892164 8.966360171645617 11.24317395593851 -0.6483975073836252 0.4869697669610258 0.37799098836676187
Ni -0.14653869597416372 4.821545856694262 5.952437885876667 0.6505958005865247 -0.691101474010055 -1.257252476587938
Ni 8.106725766027 8.894004885248052 2.406779850972418 -0.6739627574472393 0.3235774466128879 -0.6497388519028681
P 8.538883582218084 1.590331346802079 3.645500362087332 -0.013010039106422754 0.2060399798153355 0.08669888415014101
P 1.8039111860644677 3.228742604850694 1.7461256520561312 1.2904258780161129 1.4197953044515872 -0.9764121638322603
P 4.7103916212022705 1.023106103856838 8.180218309835594 -0.5543696936722388 -0.19784073183399475 -0.4440063760256224
P 8.39656342308945 1.8163793664385695 12.576224355448016 0.40417536007161353 -0.14886815859003394 -0.2756968208815252
P 6.4769435391305406 7.772402872814977 1.2251621572353348 -0.39372048328687675 0.6753005024220563 1.5510475497320708
P 1.9057210772237987 3.0562978007658965 5.980228255669108 -1.5156917959405962 0.6642802400521528 0.16345351260337654
P 6.799069889885109 3.580893999991987 5.878913650977797 0.43001288996000786 1.6788470605772632 0.08123503282209235
P 2.405453352479458 8.484691817846988 10.064671949105369 1.6573384970815264 0.5170233918132967 1.3599240820172516
