# total energy = -381168.41012913536 ev
CRYSTAL
PRIMVEC
9.27546845101389 0.00000000000000 0.00000000000000
0.00000000000000 9.27546845101389 0.00000000000000
0.00000000000000 0.00000000000000 13.57558565677762
PRIMCOORD
 96 1
Ni 1.2801259420406401 3.376316867609362 10.891243841064467 -0.10042137594255608 -0.4458933086356901 0.13770879953910478
Ni 8.993466314702914 1.489770078362138 13.076275202775445 0.5063931657929601 0.35673773541494047 -0.3817329719076974
Ni 3.814239556227487 5.581364690084069 3.9315714485921474 1.3288543571956404 -2.0737798190046863 -1.4972029931077893
Ni 3.7120331701498577 6.666733622552879 0.2571326793326828 -2.578487626675424 -0.08071978374857065 0.3485099481885095
Ni 2.241954911158153 6.8539218499267465 2.9877146270074424 0.1661346589799655 1.4412285346246985 -2.07243076117596
Ni 8.70447054639175 9.050640301796344 1.060286210876005 -0.6399403777552076 -0.01500161561515481 -1.1969007149727582
Ni 0.5305623566087719 9.005357465165888 5.117723910289118 1.106829057695642 -0.386003060037961 -1.0235278863731405
Ni 8.381563665683835 2.6678658682243657 11.209211534860108 -0.5462288097326593 2.0924869084958866 -0.3506575906591316
Ni 2.331565211175939 3.8807632154478116 7.712249577580802 -0.6742777175844967 -1.0764761564353975 0.34781986410002036
Ni 8.217276569739832 0.001991443061155011 3.36597101017847 -1.450973015605972 1.939956727673233 0.7390654034838433
Ni 3.9254431466335764 4.504751799765842 6.007712521710972 -1.1730987274571538 -1.0025913933307893 -1.014519512226943
Ni 4.495040384372133 0.3099657472243406 12.460052968131869 0.5818858968146365 0.2918037537457168 0.412398005091722
Ni 7.257627335691584 0.7645499596932009 11.4790395477643 -0.4527720380333944 -1.678964302881418 -0.28461520641707755
Ni 2.43816816926562 8.93839785893171 0.48630909696848057 0.30685524876220055 -0.7264178899231618 -1.2369932121182696
Ni 5.9520495084166205 7.0650964385309205 11.446051344471343 -1.2009684572842285 0.6196404898555908 0.18815615755637918
Ni 6.77790011108545 1.4566381053092932 0.33589624662706513 -0.7234032714665541 -1.2408838054219276 -1.4159214233184776
Ni 8.271380376799529 4.2327486895265745 4.824790705650706 0.9045562582322227 1.4677116685168916 0.3996741297671504
Ni 6.25283439703858 3.80759832086751 0.5184652907477642 0.11291205221039909 -0.5040874004779189 -0.3868960041658756
Ni 4.160270179606382 4.304540814786657 1.4536736656150917 -1.4161569363680515 -0.270183861483096 -0.7912572549960502
Ni 2.971683835006538 7.3510127513399715 11.919921110795599 -0.6438844500046201 1.1932489771527837 -1.5109848773832302
Ni 7.845831163000131 5.4726840270773005 1.1399309476664736 0.9359576553616397 0.11275624335882517 -0.2833751633623894
Ni 5.952401976215055 5.070815084051674 4.909366281431906 0.3875560063473777 0.17273082414024446 0.21056872092362447
Ni 0.26091799797850185 2.3394957366407154 3.8611001500293556 -0.32291075956316645 -0.5751994859333965 -0.4742528336149897
Ni 5.906117388999576 5.098307572329566 2.613965193922186 1.3652606637388165 0.12131698844464267 0.2026355821194768
P 6.572049641331312 7.183497792399778 3.588027578285891 0.07295119554674533 0.09782224775681217 0.4612132268222121
Ni 6.284686355455005 8.552538374329714 5.946323761785735 0.29381949862416495 0.8395513141157476 -2.1746624508543775
P 7.50090432035844 1.0551958338291403 5.980683806852073 0.2903510804595903 -0.5592342208533917 -0.5081140051388088
Ni 2.05256839777826 5.325454517483851 1.2562657271802993 0.37326761474916365 0.1698812705065913 0.151145641770301
P 2.1324765578707168 1.6005098953492347 9.103828620126949 -1.393216268411478 1.3108499501984199 0.1438565643080555
P 5.135437272254128 4.466657451129775 10.034828714990336 -0.6185423716954057 0.7902282995109036 -0.24725270660821932
P 8.792420537569543 1.8593047386155874 1.6277538010745467 -0.1945677175096778 0.18930132690441592 1.2129114885787176
Ni 8.844418813307014 5.6308678648273585 10.73661807298492 0.43014607310376246 -0.33482885115699107 -0.48862170074215205
Ni 0.93182282890868 1.0109332987204689 10.735531915637639 -1.183762377818587 -1.0323318578180156 -0.2251795288582638
Ni 4.539451326974882 0.5891592005516721 1.4785578921845683 -0.20488581160623426 -0.27136914004044876 0.2830419483926867
Ni 8.807047951204574 7.164074961612361 2.9632515067024108 -1.4134464794154238 1.1800782440987807 0.3042278384416825
Ni 1.2239258791270944 8.788376433355925 2.3769083383508636 -0.34411284756207833 1.4154557965359686 1.3239674614169845
Ni 9.221114135149712 7.221990986176179 8.278093033266032 -0.014700796545284358 -0.4187272897438595 0.09222778438817018
Ni 9.006897192916945 0.07036092048907112 7.208689964519467 -0.7080489004976709 0.19831535747756812 1.0476810865805763
Ni 2.4962047749183767 1.5834986863405793 4.218966271060947 0.36510513354302926 -1.0348703079691532 -1.2100223399563808
Ni 3.792108288673151 2.684580262244866 10.17598743052917 -0.9811851597408715 0.3814252108592915 -0.027085800473198512
Ni 2.538992510554651 3.737828247714236 13.052762817979348 1.6705506248964261 -0.14351666447013348 -0.004984597698784963
Ni 4.151773850570435 6.810494106972262 9.820375248313884 1.1559358425246222 -0.6023035412390401 0.1271204825002972
Ni 6.562189818443526 8.24941606767603 1.5463272468083078 0.4903001168858394 0.6936095851438893 0.36262736142649804
Ni 5.742034353359929 2.7436000675458874 11.422891427473681 0.07350861071211211 -0.6511568152963173 1.213976182397806
Ni 5.188752664501538 9.10027333309695 3.9834157515545123 0.7721624431481282 1.750277191493792 -1.8030843079924948
Ni 0.5463102468240909 3.718674405509834 0.7421988635382627 -0.7751274393137231 -1.2841688413628076 1.0342043922503803
Ni 1.6948321333039869 8.74237011019184 8.804065888120451 0.7562378014980718 -0.11690034743418577 -0.9769639225706723
Ni 6.748218612269912 4.8555221874868435 11.879886334174465 0.821300852545992 -0.5338273507445128 -0.39314866994380676
Ni 8.909820140853375 2.112784738500283 8.698067690569136 0.6304908023065334 0.27095005022515917 0.8215091119020561
Ni 6.900410497446583 3.5345749091064587 9.206161152574547 0.01857750589187123 -0.3231359882000951 0.8836606457301361
Ni 2.3695853560649667 1.833704445887186 1.5881939284344622 -0.11875539836505354 0.7501455725574049 0.18448745045554032
Ni 6.94496057207503 3.6901708911785374 6.735377653844838 -0.08509065912275668 0.42246027442373046 1.0562312901434325
Ni 5.78374613466414 6.245386195929556 0.2329812147652146 1.725757866196189 -0.4033474648536795 -0.2517441667206697
Ni 4.480691234788496 7.307891098842023 5.117764722349989 1.2724173572538344 -2.827252141942479 0.8855457785679911
Ni 0.3631299493371593 8.282798478375131 12.2680396421068 1.2496013878005834 1.0146182425883365 -0.8065522334819076
Ni 3.4905442607072836 9.050417690555227 10.335785199777325 -1.2971269441853726 1.044029091650286 0.2595104409296498
P 8.854631103993233 4.477259311487949 12.624968940832026 -1.0309254643887922 -0.4479915859256156 -0.38138767275313673
Ni 7.7382728316673255 7.715835473656455 10.154959016165199 1.221167815050239 1.6081682060044629 1.1318330359391475
P 0.9356257709444208 7.344306587701336 10.309380723940388 0.6028043921348586 -0.0019915765087320536 0.9508710821383625
Ni 1.9552965608787136 1.5597071099462496 12.647775462484415 1.5111237169539393 -0.49887011794303765 0.452385344117937
P 3.1331511885630654 8.881066188875822 3.333498522927434 0.6023053410112531 0.11696719611637921 -0.46262604800933865
P 7.647465996228538 0.32719678483359854 9.130965857965894 0.05928835334767209 0.2177672955545927 0.5448255016272293
P 1.895061669219931 3.319105778642412 5.52527686033792 -0.0736461647312409 0.6954103857980539 0.4981288689016389
Ni 3.9100180427178763 1.2196962655458805 8.214803729869763 0.9076809199041336 -0.2944558466565832 -0.8368138605799266
Ni 2.44525462710783 5.121069571733731 10.191422737460089 0.5327922246117792 0.749278082350787 0.8895055345466873
Ni 2.2484106371505326 3.8265573782359357 3.4395375325396196 -0.022700269810993167 0.12851042086928835 -0.7929858076513827
Ni 4.43096544880409 5.2315311246694325 11.997274806896245 -1.108667910676594 -0.43789769202472323 -0.20756927197566832
Ni 4.334667536084429 8.331698747673732 7.784023151904125 -0.7312183966355987 -1.381388936759247 -0.4706854279787055
Ni 7.1650488857922445 5.947198438453957 8.871047755478742 -0.5176121744372312 -2.4644854267246394 0.11237726275285162
Ni 7.878657045596442 3.609372286121615 2.6638829821020558 -0.47364116817291974 -0.4825302431324334 -0.7761774778447923
Ni 6.610088337157101 7.881384033300118 7.885718459674025 1.2390428955584467 -0.004776595453036935 1.7443893652544473
Ni 1.734614617185188 5.823788331659977 4.745657974714804 -1.7330091484419639 -0.8069648955392941 3.6068738695821305
Ni 3.22667573623715 8.90372615812781 5.653226381357 -1.927174231196584 1.178091809796371 0.5637904727655064
Ni 4.898996307783228 5.80041415134274 7.577131974597768 1.029475876426459 0.7804028287800495 0.6905846822746364
Ni 2.613316838682435 6.189659181903383 8.242158941215632 -1.1358902367276567 1.3899018593262644 -2.1099421278578565
Ni 6.375140723095357 1.8245124567227489 2.4873457750687766 0.6986517755534871 -1.1219198905904937 0.5801642861378395
Ni 1.3518253126169244 5.728519995930479 12.444495225018336 -0.09179815304991933 0.06267963841740819 -0.13124427486068366
Ni 0.4268078948585445 7.022651895224701 0.6852753140910884 1.3492576034423407 -0.5539374912308267 1.1650609447543419
Ni 9.069367472455273 2.5234653764867727 6.383728879268265 -0.23157849040607212 0.7541320680089787 -0.5812783451376248
Ni 4.7320471524142045 3.0237377635542875 3.331693516780714 -1.2421351613305254 0.4861526703763692 1.1572404202686586
Ni 6.386837088722355 1.5891752729890511 7.848073043707543 0.08917742759762061 -1.275623265785642 -0.36890933778046786
Ni 8.66466023610541 6.774124995454848 5.729534732171236 -0.22112027118722566 2.2775533713833482 -2.229642149524367
Ni 0.250694576730225 5.223461467178958 2.8882194603372446 1.291011318205938 -2.18435653821369 0.15971872815129268
Ni 1.784544463473951 1.4037493846073563 6.554075638704829 0.9636039563239986 -0.4515553920174739 1.4668678324593576
Ni 4.74011680990468 7.024729600141789 2.1919007735931 -1.3367759260355623 1.0447068344436008 1.567621394930352
Ni 5.596140511213179 8.912203936226998 9.752348035669185 1.0729424322505263 0.740956449858969 0.15690774106505878
Ni 4.818782057234235 3.3654645696049306 7.875522864830888 -0.5065518028580115 0.5463331965210075 0.713489611897268
Ni 0.2231928129839529 5.284095203978074 7.026655187377447 0.9877389016989894 -2.6725581206992874 0.546880327273729
P 6.4992186636126865 8.52126149495284 12.987993149829656 -0.10772433736187255 0.35865243593915 -0.3842889055603317
Ni 6.611526034755979 2.4949896885606155 4.812328186335532 -0.6447349709303736 -0.18955458056580257 -1.3747881436132774
P 8.875714243620646 4.466119473963743 8.947560166597333 0.699731381770911 -1.2326945847429156 -0.418778197586453
Ni 4.177661682818612 1.8019916194964594 5.815265103765727 1.3407500801919618 0.9912466577419317 0.4852404429747449
P 4.514695101869047 2.404405464362945 0.13638834215107368 -0.5112813471231968 -0.096376259338905 -0.31023162143360117
P 7.028727327013507 5.831032472464644 6.634198989663698 -0.4870556418066128 0.5966723110951917 0.683015611678127
P 1.592718501910156 7.655405797161695 6.685392154745797 -0.4159163026576257 -0.04728335846699599 -0.16175838428914077
Ni 7.986660599411481 6.803138660547036 12.713183282858644 -0.556973192733357 0.2081832514105834 0.3343351993500242
