# total energy = -340860.33691889734 ev
CRYSTAL
PRIMVEC
9.41799527264479 0.00000000000000 0.00000000000000
0.00000000000000 9.41799527264479 0.00000000000000
0.00000000000000 0.00000000000000 13.78418806706993
PRIMCOORD
 96 1
Ni 5.581132317135332 2.3998276571772426 8.451982177333635 1.2192022066834358 -0.09154207117505524 2.5538518304046147
Ni 2.922290950972722 8.707417048073987 0.9494064530319344 -1.8619481722082383 0.072138726947779 -0.8699834053533598
Ni 4.832637134180925 0.0577662164727166 9.047817305949177 1.7721220552830255 -0.05559496365648489 1.0253819088627438
Ni 3.1014494771173173 0.5861647309576943 12.24585868549995 1.5102641971671216 1.8735433332450055 0.7179856999954086
Ni 8.00793311308554 3.5233191622416924 5.79364561572348 0.49515076010992143 0.8454766784612471 0.03396401565027054
Ni 4.952349273476721 8.033606568495841 1.850486346362152 0.7231921838970125 -0.19882340746223826 1.3903728854254118
Ni 5.136791295030407 8.327476278388593 6.868178613596106 -1.6378449071332892 -0.024685161451505875 -0.47482593250964034
Ni 6.803107799905403 7.3076863204711815 5.660807616264315 1.6333966415539485 -0.18097712330943672 -0.8179103388072042
Ni 5.1388820900051275 5.270545665440203 6.516130179032923 0.8975679998398477 1.6641187532281534 -2.7148162580375503
Ni 5.62937128948 2.9447717059486536 6.220624563342385 0.7658974360750228 0.6575043547809 -1.3491665863904312
Ni 1.204184889494187 1.2550326465595638 7.8288810102887565 -0.24220588821293126 0.026573893833786492 -1.9189682983470242
Ni 9.27676312287918 7.592759622677499 11.010437130723536 0.666744128211613 1.4912611737020576 1.2182071897600182
Ni 7.524234288280816 3.519806249964347 1.2483373936427689 0.0711820194614645 1.3327174396954724 -0.7027457431172026
Ni 1.3643473189540503 0.9827489820814906 2.300512070479424 -0.3921392548426859 -1.6647949533595714 1.1329483804905134
Ni 9.027647727039897 8.68861872929227 0.916649723295115 0.9267798455171137 -0.08879561877816965 -0.1097159138706046
Ni 3.5564422519988566 1.764725138617564 9.908418655129186 -0.15585924519588643 0.6015985447522155 0.4566194368039427
Ni 4.276014771136302 4.285611708430175 2.4402421589588585 -1.5573315829685697 -1.952677260563695 -0.810759843805352
Ni 6.4799104523942805 6.564239183041324 7.741655304262327 1.0536434748115984 -0.4178682841776739 1.4241443254489021
Ni 9.005072792110148 5.080302158731438 10.90318217391901 -0.9135255516103685 0.5620243820040192 -1.1050999908196775
Ni 9.308774889181313 6.689291325718501 4.116716913652472 0.3931784947404777 1.0852495317526536 0.6677648561666435
Ni 8.983157116857114 0.35646264899854857 12.000307059113073 -1.1277184995501417 0.45697090660609035 -1.0421249326490374
Ni 7.0137789385969045 1.3038837886040373 4.280334805617853 0.4150619250771303 0.6339795321860824 2.418716962240273
Ni 4.93561349568358 9.22920224620199 13.584744453939784 1.2923274659142003 0.8402910204952496 0.7219637108065502
Ni 6.158276492116509 2.666648884333975 11.331898741685825 -1.1892640243631065 1.9942046903835204 -0.27097319015361077
P 6.917979089575046 9.222327109573405 1.1961136674521369 0.10607420335295925 -0.06972986039597023 -0.04412527245398852
P 7.84953184876204 3.327321260354757 10.065724606589802 -0.4065520878339063 0.061934532721267525 -1.0967919851746144
P 6.062956960859113 0.673567495297299 11.727477150902864 1.3441624483076204 0.14270342454021875 0.708139146218632
P 1.3037519366686945 8.68676338420209 12.639356659537187 -0.20253865153029638 -2.864448291376802 0.14004953185713945
P 5.816732889601988 0.9764012531942775 6.8601836773166465 2.886505271176842 -1.8946713734728722 0.37557543694673384
P 6.811216693928979 7.279724292183146 9.828539927299959 -0.03242701018045383 -0.505567070347239 0.9671903881236763
P 3.747580468268875 6.448765141667257 7.6039095874098 -1.020154084804901 0.7625570588478803 -0.41366170229549404
P 4.28709033370509 6.897014631855555 -0.137874743389255 0.0698239627716733 0.987254505863403 -0.0583172476836544
Ni 4.460955946445213 6.944980482334156 9.610970106991417 0.8962654789783402 1.1881219403388636 -2.2736316677314394
Ni 2.720868283745973 1.8903611970084013 4.73078810672545 -0.39207651992555054 -1.142017689781633 1.1206875608452893
Ni 1.4536299151718268 4.999505176352503 12.155848078239174 1.7211697326048743 2.326682010589199 -0.4876071434347087
Ni 7.364279054719349 1.0270983223335486 9.952832037749838 0.21135624982192636 0.7275013527953277 1.0554818135719177
Ni 2.965020396019141 8.853744442318247 8.046230449505368 -1.6946935406912167 -1.416659844146399 -0.17767068464402305
Ni 8.74239548292133 9.366686142782907 3.462257589184946 -0.14117567504178266 -0.25620734469834583 -1.1624345628750883
Ni 7.088680255866945 3.79458568321855 3.6620726046000525 2.640971861252574 -1.50507082589164 -1.24460804835105
Ni 8.416853054560185 3.458674041942239 12.35793848133848 -0.32942567786354876 -1.3197850479045206 1.20796957119241
Ni 3.6337074861096834 2.96809066251355 12.177613065566101 0.12077268590539846 0.8111059142908611 -0.164470126793349
Ni 6.727810926829335 7.209400120668575 0.5248733588136366 0.08747792840801064 -1.5546679200934774 -0.9270716657259196
Ni 8.02059089887844 1.5989119119287274 7.678137518010055 0.04348069689145415 0.14714294836881112 -0.7901964178317037
Ni 4.80949711952828 4.819499030623562 13.652025671146554 0.5181438785709851 -0.5241916274269617 0.6111694762701023
Ni 0.3906414960379929 2.4385921261679986 10.552389158140198 0.48204379041431816 -0.24121087128951363 -0.6594781906778191
Ni 0.17687937126224246 4.357113129367449 3.715983093763533 0.39092235171644935 -1.0941105816877092 -0.44059529346154447
Ni 0.47618703168834176 2.1732495242861805 5.750776784345413 -0.210473847216973 -0.46055168197881324 -0.6891757177422517
Ni 7.72829399421442 1.414159096527449 -0.015998348754761263 -0.30083938158542384 -0.2784206475705915 -0.2567246506543966
Ni 2.2124943110413993 4.479377545411666 9.614885167671558 -0.7790496571862648 -0.452797234844375 -0.00901377346283609
Ni 9.364698945757384 6.601873492586286 12.91137379474596 -1.8979132774489378 0.24814410807423715 1.6335028281145092
Ni 3.1100010169238295 6.420002583771784 2.332753635868869 -0.3467502851849254 0.2251113946244897 -0.33273134519801406
Ni 0.22742010167817867 4.955334778012696 0.8923126814294656 -1.3268131583958955 0.9538728450791637 0.4603837889423813
Ni 2.453896368663134 4.261124920437958 0.599964919590385 0.5081834249241635 -0.9701641260400194 0.06084592764277908
Ni 4.062791355696381 3.9782742651417053 7.813401593079523 -2.009849596009629 -0.19308367676498359 1.2377501448889523
Ni 7.444802915232217 4.118348110452569 7.963373751536472 0.23039681139314513 0.2044646649084156 0.25081599847944547
Ni 3.589009680028505 6.223467856148097 11.456879307598102 -0.38754469349346804 -2.042686954254624 2.62764711911921
P 8.912371463568844 9.26416184505857 6.454666457573382 0.6834606696353455 0.38840241350807303 0.41268211199104415
P 8.46996113051715 5.722656533734965 6.445707118566845 -0.033346436670929666 0.17732872792357202 0.3503518864932547
P 3.0047925905157307 9.117523656966716 5.793287731898978 0.27841087737857856 -0.6473310137923238 -0.07226162567888846
P 5.460798590144347 4.447554139017165 4.573648853783088 -2.132778151915766 1.8805529317936192 0.2754461383232998
P 4.219958862624888 3.9043241654052094 9.962756721282991 0.9728486148507182 -0.4940145896229492 1.7670392414434795
P 5.502162425860432 0.09045984564047915 3.525609618718503 -1.4780711573743448 -1.4748048279182473 0.061213852505159094
P 1.6614474012626974 0.7447873181726625 9.71585361255885 0.4666112579093319 -1.007063313059214 1.8470571140290188
P 8.469301870840438 2.1052421796354883 2.8860505047442406 0.2734653604478452 0.6666389700923164 -0.1790577947995368
Ni 3.619382715134236 1.2937782795595567 2.007488096571943 1.3192844541190183 1.9336582962590312 -0.6887630556848653
Ni 6.109886831845736 1.6922913361375094 2.1282371571592567 0.3805268674147382 -0.12649133355673053 -2.207659988826321
Ni 3.1253240954097286 4.333125495130458 4.650523241085577 0.1238775500829673 -0.10638916349021678 0.2002953640220744
Ni 1.8052884447262099 5.3678241397369755 6.461778927685582 0.8131962211609866 -2.1069449929027453 1.6114913568404248
Ni 9.363323918431668 8.862474924037011 9.098860015518955 0.554533987164245 1.8010549362672919 -0.6990328130419896
Ni 7.10554788559543 8.811419971073239 8.341294361212508 0.22591897812744965 -0.2006792297240544 -1.0588129348276796
Ni 3.120473827788193 9.087941733473041 3.4349924925551503 1.2543561288767493 -1.7784258860138662 1.7043446906277355
Ni 2.7761330806453306 8.345389305604437 10.983323663819384 -1.7022965498494553 -0.7543374991515653 -2.9253980915872972
Ni 0.40123203184462686 2.608106625041813 1.2274087243057283 -0.698971620786751 1.5328469675636438 -0.5416512176643059
Ni 0.7389114308540685 7.249690304911153 6.929449266150324 -1.1764154505352127 1.509109257627072 -0.24356754444714826
Ni 6.010131424763595 5.114715513855884 9.575062115999907 0.17099172996195067 -1.5121341604963248 0.7047149510284315
Ni 2.0437238338027335 6.709897899613489 13.728362290912752 0.9008189026769776 0.2780280401178631 0.5759985847959241
Ni 7.105076985826348 7.620740486956297 3.4176238254723628 -0.5226960167180417 0.414849294845692 -1.2699506408808967
Ni 9.07568892148155 6.602269048392314 9.168428863803921 -0.5740612585638951 -1.8751549007064996 -3.542899166502382
Ni 6.069803843501552 5.918758033571098 11.804378850391961 0.4377046021773107 0.7075267094456137 0.365140614766655
Ni 5.097452328321372 8.348789201937203 11.505165369919677 0.01912206554143158 -2.090064415097323 -1.0933510778138653
Ni 0.4417454225777501 3.538218430935418 7.850467055703435 -0.2891485755110569 0.5994676144521417 0.3731259469649768
Ni 6.04836848601298 5.522957359663053 2.567953001732267 -0.2562993901915199 2.2150362266857333 -0.4484451285232664
Ni 4.735339823893389 7.0552652082529494 4.26637168566506 0.33377032798548967 -0.14863290265077628 0.07190989876642453
Ni 3.81914781517382 1.4238031237982298 6.871638785099313 -1.7496495852121223 0.287637281072853 0.675699794743004
Ni 4.913236338656846 2.4915589321942404 3.9562964311191524 -1.046419189149017 -0.8363780585940886 0.2306382379799899
Ni 1.2530171955478968 1.1486187167426172 13.431560759057703 -0.24517319837137128 1.4103375014727968 1.9971275204572705
Ni 1.1366672806033389 9.302455414280246 4.733710510692367 -0.005735616932196573 -0.8545035645502057 1.4299269935689503
Ni 2.415367349556919 6.56571780831624 4.7540288939286794 -0.3407161631757035 2.2108844093008893 -1.2733169862499685
P 8.139615524511377 5.704460966657671 2.545650246869048 1.1044942389148786 -0.6565718156643015 0.05819023518748689
P 1.2674549824679233 3.1132408073351074 12.481692824252068 0.1641615944139947 -3.295898428003969 1.340274426107124
P 4.431986192651344 2.5162246620987085 0.4339689837911449 0.3678844960603793 1.0997546673473642 -0.1452866118863627
P 1.8558065719532302 6.512346028488587 10.104526747562083 -1.4622030799938368 0.20082732526614447 0.11491262758019564
P 1.4204597354377542 7.952122072454048 2.52138949076599 -0.7682744209476318 0.12470158864615945 0.4561810637149434
P 2.346889105137145 3.108701333561166 6.859452840875033 -1.2974974401509138 0.03753836326509019 -1.3180626658967751
P 7.6273990096911035 5.270847041292414 13.295718419071802 -0.04173080407988297 -0.12504997312451366 0.21273358978542717
P 2.3766122985615445 2.9811251681217144 3.0090052598499297 -0.561302159126014 1.1522403959509058 -1.9327131587369422
