# total energy = -381171.1266715192 ev
CRYSTAL
PRIMVEC
9.15306892748345 0.00000000000000 0.00000000000000
0.00000000000000 9.15306892748345 0.00000000000000
0.00000000000000 0.00000000000000 13.39644158175427
PRIMCOORD
 96 1
Ni 2.2687711221135336 7.06341391117881 5.60741514694325 -2.5749991539061914 -2.223793404053073 -1.1503519206789414
Ni 2.927215420380695 8.090772640707463 12.140363880791291 1.80606190256358 0.23016849743242299 0.3271268545270431
Ni 4.917019316691282 1.8375059873226214 2.6022586012301896 -0.1563832360201565 -0.38245365212380583 1.5033864962106818
Ni 5.864883645140514 4.96216225119027 9.661285446613103 0.117956556612842 0.010088494584253593 0.631565523427951
Ni 6.637448403126526 3.1900366331146603 1.6357860842496432 0.44499136564671105 0.7110946293025302 -0.416524882775902
Ni 0.1863006436534742 6.186815375107744 11.998174620801842 0.8102484513865722 -0.20523651007743365 0.38125397538874983
Ni 4.526961296887078 0.42226949893819415 4.819302986576869 1.4711649171728147 -0.17213021444176807 0.5925328350055216
Ni 2.4679144363662635 6.4074867067857815 10.466693245468795 1.120970896413663 -0.9082169949132616 0.04855039810487768
Ni 5.9732102124145445 8.679681076568135 3.121450859232298 0.2860030879035397 0.5007580789943699 -0.5200639784118333
Ni 4.4896716952753835 2.5068149780574016 0.4920726309487732 1.2559527839399078 -0.22128687867207697 -0.6375592791175407
Ni 5.038837507130662 3.3532724591193106 7.902159016610377 1.4875261321396576 -0.32504888895209183 -2.160991124014872
Ni 1.666133083303048 0.9131055503146208 5.037021538313833 0.3291971067925104 -1.3590540207074724 -0.3188594723119283
Ni 0.12310419658234546 2.4441988355376187 9.03958339645337 -0.2788322811867133 -0.2799869636164468 -0.6448473281385217
Ni 7.643809993210597 6.549707087208584 8.12250358373821 0.46256665552631304 1.8695848628178897 -1.0199152293212175
Ni 4.40520717792813 6.517698806198252 8.633657616866634 -1.16889240268529 -0.2754836764294546 -0.07970085556575306
Ni 3.3996693640210474 4.874503312890026 7.284944716001506 -0.8773465305866502 0.5156229119213442 -0.6645309226103782
Ni 0.4530595065134462 1.606153024549629 6.702158767749587 0.07246551415957843 -0.20901294640073037 1.857956791660658
Ni 8.638556339199127 8.707149435536396 4.188625437315411 -0.9640626411279719 1.269549548787736 3.0612798652199924
Ni 4.113498880587757 5.001831650646597 4.9844408202435 0.49936916906664325 -1.1980368854597303 1.076862593240539
Ni 0.19937854811660333 6.633292909967049 0.9964396636856728 -1.4378652745794205 -0.6771108161579177 1.1458393775205686
Ni 5.250172708802826 0.988000534405854 7.280188781539691 0.9179828160507739 -1.2621445145729167 0.11982214906667106
Ni 6.508875248035839 0.8832070516242433 1.188730075452719 1.7259188172540858 -0.8494390055431048 -0.025320738152975746
Ni 1.3852528661557613 4.55086911215702 8.870038360239848 0.5975922518062997 -0.04727307405435084 -0.47735435535844883
Ni 3.1021946334417527 3.7181046217703915 1.8209645616886863 -0.3646695886675075 -0.9589849694947484 0.49689113983979594
P 6.6030786304088265 8.23637050345592 5.097037294034922 -0.38779769004453857 -0.13031919194325298 1.1129539396464574
Ni 7.268250434121396 4.096584009753587 3.879555599391566 0.47002131203214537 0.47276545043618573 -0.25184778217806947
P 2.24594336894231 6.895921908259717 7.973441284512083 -0.13175515305883115 -0.24209147412225404 -0.4993002635019207
Ni 7.103705719302197 2.1509619757354996 8.0578517987544 -0.4464116430330054 -0.2651601830162595 0.5184320992353652
P 1.4804630860784018 8.176344679359335 3.8943185837900693 1.2890205130281542 -0.47182931177516163 -1.0474669136872412
P 2.9014129199036782 2.492197527450167 8.427312668213295 0.06444110119320515 -0.5745713654310943 -1.2625903438610837
P 0.28207286199019405 5.104080580348176 4.642603911919631 -0.335744420992725 -0.3989668192874806 2.0032680861373695
Ni 4.6235170178988 9.119293809952534 0.5966345410939636 -0.7646753907424637 -0.6575742887868868 0.06744723500938062
Ni 3.110047966329046 4.1619369197947 11.947682632993606 -0.6391204529570734 0.005638429232699966 0.3379072329719987
Ni 3.8175344063329413 4.077380871761114 9.554596363317556 -2.1625533262956687 0.6040400643141726 2.331524426283165
Ni 7.36937353638109 3.181066625854115 10.421426744543261 -0.319724648525701 -0.2730822660768136 0.5444292946300753
Ni 0.8795311792611465 1.8413868884231022 2.804343711741633 0.33464398883969465 -0.5584916862604123 -0.45380613572486356
Ni 7.591253073118711 1.6893910307000324 3.203276546892597 -0.47430914077422187 -0.4693381699221917 0.38126837356645304
Ni 2.8480962951152358 2.5383930648419732 4.06667727330144 1.296670316263928 1.9665347352720777 -0.5070128016548301
Ni 4.608304617830407 5.920900425175754 11.650067860464224 0.4195544136308452 0.9264486874299399 -1.0900680361872195
Ni 3.765517517290414 8.102287201048041 6.619730808173223 1.4039722213764014 1.7188984200721948 2.15932762026952
Ni 3.1099472825740806 0.45184306369209265 3.0920594405442006 -0.9400981598925745 -1.6747667198603027 0.05100965827864763
Ni 7.868893103969842 6.3631675484637835 5.476157396822442 -0.559864655348539 0.44858911030029835 1.6272717596031328
Ni 7.094122456443227 5.271398674963238 12.333594312706968 -0.8859584406253773 -0.2666506515188569 -0.2235797884713117
Ni 3.484179646711467 0.17636224173153578 9.495732063630523 2.1229840486434792 -0.21233712567795687 1.2342418746253774
Ni 5.880352331130638 7.123155990147766 6.913273380467692 -0.30327267361726484 -0.10428368711143975 -2.6478264222805623
Ni 4.939041599822783 4.2972467333994295 2.793881754293875 0.9890727900190643 0.9963909209470324 1.0407275380808785
Ni 1.4995838464531757 4.649594110434813 0.6192307216287669 -0.5158113737830665 2.3760911571499466 -0.5130793195638841
Ni 2.0674859898006326 2.5655044541335386 0.07995937696598784 -0.25727126718648596 0.9019458171925692 -0.25030254917813666
Ni 3.7417561511186035 1.6244317026101474 11.97916461255753 0.5815565384996758 -0.7626115662348996 -1.0416845026775092
Ni 6.253715153747869 6.275865579840235 3.750949493253799 -0.6740985116941551 -0.13387039962962105 0.7230070644694
Ni 0.18087653518143448 7.997383881442832 6.845219399872919 0.20783306716001623 1.0858290584052073 0.29206420649595505
Ni 1.9515806816983061 2.3548191203343323 10.422645933285203 1.562561721019257 0.8566262673201634 -0.38852582645981476
Ni 3.6481568712754076 1.9120943436146423 6.220570061613293 -2.6720007055339208 1.9315646469547962 0.9121366416826421
Ni 2.891728973289743 5.656788629764507 3.237785446253522 -0.6938972915876372 0.9229113637006426 -0.8462696066761877
Ni 6.941925231210226 2.2726428701453814 12.84016723498447 -0.44352737950667487 0.4206183361189853 -1.4330372570631578
Ni 6.771852062936568 5.653191473791654 1.4594888293054034 1.4019168815092695 -1.5471569564284129 0.6688532041348159
P 0.9549854158458688 4.4328494452004215 10.922131634520014 0.25409286945850434 -0.5161299334647499 0.6834107902340165
Ni 4.968541940027616 4.765673326841171 0.1992897633508612 -0.3036277429638384 -0.0388964199548814 0.9263846669612239
P 1.7703316166235001 0.9293842828787832 12.201130188140302 -0.4112749472308724 -1.158257291568947 0.3943434615828564
Ni 0.7670079300187908 8.331782090888492 13.09933454272006 0.5897681277761908 0.7612046585850439 -0.4239998509967085
P 8.710169948185355 3.726818343109206 1.653737082453093 0.2886042729718126 -0.4312372492854121 -0.7898125521297237
P 8.65670687429878 8.032009940082261 11.082983086145713 -0.19844982617290338 -0.0738953046275695 -0.7760862036825666
P 8.466387118208464 0.4289439165855302 8.1275670613061 0.10407594197600786 -0.2914332577801755 -0.43277708296870626
Ni 1.540662818479018 8.824995194188963 10.379669530131698 -1.1456005220368852 1.7481807139760797 0.9934179543616376
Ni 9.166706705472556 1.6273332253668749 11.341587480160358 -1.5546018427422323 0.23730228026372677 0.9011402905721384
Ni 5.905166300195267 7.1760424207104485 13.333531363917391 -0.08627233813568369 0.7471579506839907 -2.316550321471836
Ni 6.212306671251231 4.644724677921945 6.13381544649401 -0.2500613797016081 0.24320656156330378 0.38944062496460025
Ni 7.80522435855724 9.078315521681656 12.627940524427432 -1.952748994341895 0.32776397389040973 0.9478325524223546
Ni 2.121516553942466 0.3882402203736494 7.90471729929336 -1.7124824892435218 0.10038718027051098 -1.796509482988454
Ni 5.450396085154274 2.6930250063314074 4.86806595972029 0.23308078598321147 0.3088830778255068 0.00668409688839494
Ni 0.5861872285560188 7.078571392835404 9.478397066946089 -1.2828303250570423 -1.0303636783480514 -2.7293507042082994
Ni 6.591106416636589 7.103339596556869 10.644209689154978 0.6455726363403204 0.7417540060596 0.9539389224304088
Ni 7.506495657575195 0.6463915374909515 10.06190610762003 -0.5615829235912264 -0.750525581604643 -0.025481689210872245
Ni 9.110397027241055 1.532562352738628 0.5435861012164739 -0.6013882285136224 0.8049694623758201 -0.15468527949244326
Ni 8.848253141585946 3.712667699002265 12.66665617413218 0.5591527168831789 0.051783046109562435 -0.28270693365077115
Ni 5.8049859640047945 8.410516787271355 8.782479190387706 0.6714890990957662 1.321657325226569 0.26337969407706896
Ni 1.656458289757746 3.8354744208540312 5.98353395852594 0.4806546233762754 -1.1222083683651898 -0.9979181562248362
Ni -0.23413183441003488 2.639076819807273 4.859492280331563 1.2764827855724596 0.20377972302624905 -2.9023373531130923
Ni 0.5339772097653309 5.630391179826332 6.857289551479532 0.10266877721583607 0.8745566265463389 0.6708373244443802
Ni 2.422615899700512 7.559080036872982 1.4857727811925265 -0.10738906550964085 -1.2620887216343166 0.9966423748362062
Ni 7.458085077574153 1.102432198458234 5.80627197014776 -1.2831709962259128 -0.7288732934421899 -0.04817193171953639
Ni 5.5527548516794525 0.09499603811662372 11.735751566553422 -0.058632722041544176 -0.30238178637187924 -0.49922493017929515
Ni 4.877752652254815 6.9776496580856415 1.973014422516692 -1.9754528636973139 -0.6361695978588656 -0.29371716871834574
Ni 1.147520214545422 4.125333798330496 3.0693790517779713 -0.1837199761618965 0.058268653833906094 -0.21865741146902987
Ni 8.335836900293003 3.5660172333609896 6.709674352404316 0.42352651090471577 1.4206663942026307 0.18948336100823493
Ni 8.535328031153794 6.570228267084239 3.3165036671128467 0.9710807243170179 -0.4967049919709188 -1.9909453029059585
Ni 8.102287201048041 5.523986756965276 10.010249849481653 1.8786006931632548 -1.9662565419100266 1.9310128882163842
Ni 2.5022933621525967 0.5623800970410421 0.9582448235861546 -1.1713231236139698 0.9099635452907231 -0.8527942951685828
P 3.2341727300639946 6.314253549687914 -0.05505021598757266 0.14357220029841725 -1.4446730415298732 0.6132623542433889
Ni 4.218374740987067 7.219418812963226 4.410496736291262 0.6061082596971109 0.972684321358712 -0.41391289907435164
P 4.540187481062064 7.719331962503206 10.406690304043794 -0.48212889392895675 0.25779602934170437 1.221508229108793
Ni 8.893688974281197 8.994061524912967 2.0797035058122404 0.5398617298640509 -1.1476049540614235 -1.9091058037306474
P 7.261175112067926 7.735651883876217 1.4120786797059701 0.7410469526902463 0.8206845591182317 0.41224605289489
P 7.369071485116194 4.516261359654856 8.248309766181078 -0.7592030547739829 -1.590263814920216 -0.11407367661866805
P 5.337621126524505 3.050067907575627 11.477668897450867 0.19504465714609634 0.9262028899677212 -0.06916113237669379
Ni 5.0468464421847195 1.7555951761240336 9.640909800528716 1.2581839872632716 0.7051456108079469 0.8664931328119141
