# total energy = -340889.39928762533 ev
CRYSTAL
PRIMVEC
9.14541633333335 0.00000000000000 0.00000000000000

0.00000000000000 9.14541633333335 0.00000000000000

0.00000000000000 0.00000000000000 13.38524123668673

PRIMCOORD
 96 1
Ni 6.796352032304941 1.9171261620926092 11.462223573408547 0.07571153190070186 1.0489352707026516 0.12348339996834218
Ni 5.069066419725126 0.4842534460411516 5.908740919233883 -0.8575323240742005 -0.021201316667963488 -1.6732389703618666
Ni 3.042515352780383 1.6534363767519031 4.793013860763097 0.25653798856488724 -0.032541424271131054 0.30149501289155173
Ni 3.6962297028706854 4.827792049494539 5.230055010205114 0.7973011471972848 -0.10072502322590396 -1.374353112958388
Ni 3.952923244817168 2.788428254451356 2.7249005353485685 -0.6026809791831169 0.2823508358629331 -0.7516805211446925
Ni 5.478890810551183 4.610176870977488 2.6631003853662625 -0.2499109701666728 0.11937066335154925 -0.7802228515587595
Ni 5.805107806462222 3.51490353584158 13.05371530260216 -0.5676178169313967 -1.010628404702653 -0.15276697942380787
Ni 5.806534491389672 8.221985236891213 12.54968032131695 0.3324608651454468 0.6523855454970958 -0.13914090399994103
Ni 2.11164001928442 6.576880334298966 0.3036177579352675 0.40784432428276857 1.56150294073744 -1.3880987446792545
Ni 0.6343407004088343 0.28920732562640783 0.2525259757834141 0.8712383608063834 -0.2858969013429786 0.2287327934271609
Ni 8.124696299338602 0.12313754190481058 6.982772196158336 0.3414486704663539 -0.21327866365561982 0.4159795517953933
Ni 0.3098841971166032 2.4223463893175468 1.50609366178632 0.16189131032257925 1.117895599922449 -1.331556843728468
Ni 7.390703485830663 0.969432408201905 4.7840056258045225 -1.3876786264227003 0.040710076124852466 -0.4291058047647061
Ni 0.8795722922298531 7.769726114889735 2.1159786047304583 -0.1692726903883149 -0.12424213251123763 0.42670028064700705
Ni 8.119949828329972 4.058260148627186 3.1897025956705387 1.1956748129854569 0.4043429959977295 1.1362303936758948
Ni 8.125052970570465 4.097887237028715 12.650217710704368 -0.35633535777019926 -0.5409459640671652 -1.5068451441832436
Ni 8.260871546580411 7.7728995743116895 9.236297860560846 0.26717001435743665 -1.4495277985190134 -1.4832231338889297
Ni 7.368745341530624 0.9049352749817478 0.4560325207262572 -0.6814492956322715 -0.0872717259344755 -0.5860019758655391
Ni 1.7909102730943403 6.903051603128997 9.124959734639337 0.6201017457627256 0.34433884752995536 0.2559214380268109
Ni 0.11915471314901417 5.346026203974352 1.0311182404816908 -0.04794207509691743 -0.49246087198258415 0.9040451229237592
Ni 6.597622138244192 2.082191779115271 6.851810750693058 0.20770142667815844 0.49612417976678425 0.2120501905651574
Ni 3.68785250163002 4.665177404013905 13.39554809667743 0.6896554855921477 -0.03827626987237925 -0.4436168538966876
Ni 6.348482710080231 5.591489174825271 4.645923559284679 -0.39333636047458065 0.08042436399533891 -0.23490164124203416
Ni 5.491063359515511 3.062827322164135 9.034260984001598 0.2782830935514627 0.140320526130339 0.6571310306018812
P 0.2513681660922917 5.938777209664794 12.272071212517409 0.5174854190513797 -0.5775774992472698 0.7779111727064474
P 4.248320188128818 6.717289909242116 12.634743666491262 -1.117043793445115 -0.7496244099466123 -0.9443633629268318
P 2.7344154263647122 8.612695707855927 1.3012500569948033 -0.393746965649438 -0.1626328164742941 -0.5367170135874821
P 6.6820068935363475 7.9578198899080235 5.671540831921108 -0.15116363949242997 0.3196531718578172 -0.09947598131015126
P 5.177082930482212 1.393212704151603 12.86400644708267 -0.41577592042501943 -0.03947080440111266 -0.6292466454867872
P 4.2252371576359815 6.024753267376028 7.9438859337832675 0.43541812013597914 1.5555323249763016 -0.7049574060565408
P 5.098898767374742 1.2307260944977922 3.644934892479156 0.5016245407597232 -0.7270588659412703 0.32744335732619734
P 0.31064692482781653 6.016915645691256 3.337877543510467 1.018512178326104 -1.360510807758657 -0.19166339937868926
Ni 0.5764977720169606 0.2825887879213106 5.048404180900852 1.458380620923953 -0.8190287686823636 -1.150838630507373
Ni 2.0874961205121982 6.821639108102363 4.820774771643052 -0.7832714085770962 -0.3810251472073954 -0.15578442609389298
Ni 6.415436302092138 5.865997987532469 8.861471148455067 -0.16564332116584377 0.5481926183272495 1.1932474344908868
Ni -0.11710888354471646 2.9078856808766433 10.336083544050624 -0.08881747315504059 0.08167520568330451 -0.04003953242038911
Ni 2.2940910725063217 5.499513724085789 6.912486929024187 0.5802208504073878 1.1105584428310875 0.806278925215863
Ni 0.7378064520640053 0.35313104125072486 9.115429296415652 1.1040481525163954 -1.0069105895314336 0.8478384938252043
Ni 1.6904661669521777 1.2792882545282833 11.49163065920479 -0.6312508204010097 0.9880320074593758 -1.1136967313497528
Ni 4.550740811083296 6.883324940382148 1.4887731580421115 -0.6247266461292467 1.3253396591741624 0.4808705960418235
Ni 5.821725027700528 8.41024362940113 7.732132052509821 1.0073960138082845 -1.2658846983416392 1.3919011491444802
Ni 5.279118339043453 3.1548484999846247 4.70248978757481 1.3957207800008864 -0.5501304587799106 0.7309985673153088
Ni 0.9586408170840182 7.752029734539641 6.941519052756163 0.2929934031784438 0.7586034735167709 -0.3088321699829133
Ni 5.534769303542953 4.5642211545644535 7.034947710130079 -0.1665277806533261 -0.790890872795567 -0.8391869887977934
Ni 0.9802788718170016 7.851348954489007 11.771449300558636 0.939487265781453 0.45229432706602757 -0.9451336654339529
Ni 4.855118553104917 0.5528806492179511 10.503479413121452 0.3774099190523113 -0.3018176863382931 -0.7500514701817018
Ni 8.59274955512024 7.306419330116726 4.7856655188451125 -0.3995535450288861 0.4264827653195623 0.1102293631719134
Ni 7.3791985522490515 6.0972306907737 6.647994176140981 1.3904890992883019 0.3557406616089938 1.240462658724109
Ni 2.429150578971537 5.586459195914391 2.285663571476548 0.2490519646004872 -0.28539630755747625 1.4240283686963282
Ni 2.5976914541508056 5.921675281367804 11.351781698274795 -0.28169031946079875 -0.7924862423071448 -0.49421127901478756
Ni 1.7834110318090293 3.763594838611664 3.715515556556617 -0.6975084059776633 -0.8264371453312928 -0.859628801591913
Ni 2.0805090225341765 1.0381236292921157 2.672844826329066 -0.9954599244923307 0.4235506792744318 -0.5794364068328794
Ni 1.236341380045574 3.856530558052314 8.153298588509102 -0.6593097834207549 -1.074143394537163 0.5012039082825368
Ni 3.7235744973134666 2.749148691865488 7.085289568153401 0.8092470067052515 0.9646357400226225 -0.03404243429668976
Ni 4.500120932407445 7.016162110710375 5.915151855991203 0.07968285784362407 0.7489330403065424 0.09745406578411603
Ni 8.136210378336415 7.438643757559446 0.008834472050744705 0.843240847152193 0.6610702177552873 0.30435048006247584
P 0.2123108371201225 5.9294397397229615 7.763961759057867 -0.44614861917960585 -0.7183091447730984 0.7844327758750491
P 9.060619902577848 1.9821957983669865 8.160352448025396 -1.031132952413908 0.3345280320871207 -0.5168914942211227
P 2.1306533395675444 3.471270755143751 10.4664688282952 -1.1313352703671227 0.4269543056393421 1.2155568966213646
P 4.269482681219318 6.284656850409271 3.5841791490270727 -0.3853679975571234 -0.35025341324217746 1.075175178235787
P 6.818877192409479 4.238260230307059 10.412070978186467 1.7526726883091621 -0.6090341750946544 -0.09227226447286044
P 6.446667898420598 8.187104619498314 10.259881192634039 -0.3825140730480961 -0.7638194705000717 -0.2952181787439045
P 2.8045882048795816 8.901389061091805 5.8712218492668224 -0.7953327106170044 -1.124190431792225 0.27282284176783983
P 7.137018785814506 4.227724710842817 1.1931402629924603 0.8365117559584755 -0.3466289291157127 1.521056402686619
Ni 2.98090268383021 1.8209712561489966 0.12449380712750772 0.08052026614325489 0.8496356949349433 1.022033304105485
Ni 1.718679775934111 1.3797872331676555 7.037585248162621 0.3275713982636294 -0.30571367895858964 0.12666411168916894
Ni 7.2554976527062225 1.0673432340562248 9.295086424987964 -0.5857350953573978 0.11128660079183414 -1.5021677933122324
Ni 3.0063269408706557 1.8544526248630508 9.363966956193549 -0.08873159830945364 -0.8277949449107679 -0.8477004255854433
Ni 6.792154286268407 2.3281668932734796 2.4253524876230124 -0.7407137377205437 -0.7601019124391684 -0.0017938586756291689
Ni 4.3225626768534 7.210465623329549 9.786498902831728 0.7009773383628701 -0.15611609840169888 0.681352107932775
Ni 7.247778921432072 6.310831031578247 11.44233320771169 0.029435017431665437 0.09555016389318383 -1.1063125230705397
Ni 7.8995727341200395 3.8136202652344107 8.04015332834616 -0.26364014682730724 0.9462076152244221 0.325933091329258
Ni 3.377914346557828 9.115620435614264 12.316067980780062 0.7977726875170648 -2.36367709975631 1.087757642886488
Ni 0.18075915122460573 5.484743876920207 10.161097894074087 -0.3921006882952666 -0.76195670625972 -0.34367293181118236
Ni 9.2233351476367 2.44604216269589 5.62500072341279 -0.6446390687824575 1.6109411407639094 0.07132420146628361
Ni 4.187320262064152 2.843081261672112 11.287305599511903 -0.5362156484710314 -0.15798297640710857 0.48112770635795205
Ni 1.3343710963105146 3.7444443370855156 12.751757437707482 0.6811639031813688 -0.15823751562007585 -1.0459975282305665
Ni 3.366436849224821 8.727845643250262 8.174433645350998 -0.5969445909199719 0.1410815726660796 -0.9857612091473282
Ni 5.6988106339510365 8.132058359380888 3.5342259711923187 1.2439904693717092 -0.030784332370708274 0.45353976943735436
Ni 3.3526455615928095 8.409073016127325 3.7458326112649183 0.3267509592448631 0.7623539416981387 -0.8757475615306466
Ni 3.3825967996530464 4.502315832295829 9.106755783690055 0.6471116986926662 -0.10411707962658844 0.40907408292481157
Ni 5.047099130008885 5.094152296366111 11.119454288714236 -0.8522139971850806 0.6107035923772773 0.4915324466310438
Ni 8.01396359996964 9.01963014716228 2.752286484164257 0.3827367305818634 -0.055647157050659 -0.3868052442242822
Ni 4.757619270979669 0.48302796027013734 1.4650947609545517 0.23946020714699406 -0.2984425992184731 0.26754616674993276
Ni 6.11742376974683 5.810622492431786 0.1581654004985552 0.336244243447279 0.7408260949286919 -0.32346303252221065
Ni 8.236563030316562 9.101874875063261 11.14630523068213 0.396224223545337 0.11060525845409339 1.5348909945768665
Ni 0.4261974294517805 4.974740597021833 5.484240879029118 -1.1750656213755375 0.02115683658327324 -0.09662951300029166
Ni 7.407951740786879 6.290473335113488 2.4069473375172943 -0.0976803228623092 0.6622639809530724 0.022498695323148347
P 9.085120472581933 1.7939922783542792 3.4357508731583604 -0.41072190294087974 -0.5006241245196669 0.9968004976806252
P 2.455736303869585 3.5377396400969734 1.2873526825348534 -1.532959324771792 0.24545987637385472 1.6466185395608608
P 4.907851022923336 1.2097007826503159 8.089249580682823 0.29650115922138615 0.14419389304281618 0.4685385568390318
P 8.900410501558236 1.7987478947791107 12.286713938397789 -0.6950110934771062 0.5113096292579711 1.2189651509719652
P 6.5722070266199495 8.053462652544345 1.3537026770774547 -0.2519943350582628 0.3655987853499961 0.31508123621641865
P 2.126848846427679 3.434451309516113 5.817640684824894 -0.9690238417879893 0.05600171217660033 0.6610226523468035
P 7.426763861913568 3.870596208170373 5.742576023183789 -0.6967275619475807 0.6390101526314543 -0.3396075034925571
P 2.680173962873028 8.704232178617733 10.311400980264127 -0.9918783777886596 0.10679051269369351 -0.635232687866893
