# total energy = -340862.4829891765 ev
CRYSTAL
PRIMVEC
9.38567735522596 0.00000000000000 0.00000000000000

0.00000000000000 9.38567735522596 0.00000000000000

0.00000000000000 0.00000000000000 13.73688752818192

PRIMCOORD
 96 1
Ni 8.839187014718037 6.145413109399767 11.889304120880348 0.9203901399406859 0.7842527986537591 0.26074302778517033
Ni 3.1546763688942017 7.805335869915546 9.252123973577639 -0.5943467482858087 0.693521139195141 0.20211261973647127
Ni 3.923325811071782 8.219187932328586 7.023162605069781 -0.23625892660087697 -1.9351765326757704 -0.47509178457651724
Ni 4.454573927294007 4.491919537951727 11.626173837273322 -0.9568401552376037 0.8175215880092179 -1.2587354888913675
Ni 4.876779242656372 3.1108640264588576 6.676828290680979 0.37641593057015815 0.41457547235901504 -0.6229772675383076
Ni 7.376626280065672 3.1612088004141246 0.36211914675978824 0.27348232972870967 0.2673628470945331 -0.769070691596682
Ni 7.023471393858582 7.467226224694715 1.7577449839588761 0.1688715982951543 -0.32131744693411757 1.1836582481405549
Ni 0.7134391330212673 1.8857327747942598 2.990671979331014 -0.2196467719654927 -0.4242934709777273 -0.5220439849563396
Ni -0.004844886710609393 1.197330874995041 13.741695215026082 0.08698736192483728 0.4508434535521138 0.012400687657197998
Ni 5.943517801317785 2.1955446024395626 4.208611924917214 0.5096682369998061 0.27112565657107496 0.11890966455473069
Ni 1.7588290297067946 7.495261243301051 1.701327676679773 -1.3943706937308953 0.026363577595193307 -1.211064922288282
Ni 2.389227442734285 8.02044621187691 13.332047936120121 0.8788760798572992 2.1550912135906692 -0.7101512915526544
Ni 7.94101522343854 4.722929217549226 10.102381881366897 1.2856953053096634 0.0442366012208722 1.3536135664181914
Ni 7.995245667866864 0.1298818205490623 3.068587180857794 0.0640297246873994 -1.382091105032594 0.035717508006267516
Ni 1.590947416780273 5.70009087042595 7.014508071873631 0.6212050061292335 -0.191153035401174 -0.6150382151968892
Ni 0.9785788901748685 7.778699317252412 7.737879128794873 0.5926395357867148 0.29224675482040635 -0.8687207365908522
Ni 3.704564440574138 8.835892641925662 1.7023713640145652 1.7755796748143229 -0.19084476013213583 -1.552182177557146
Ni 1.5705804966678703 0.3614903063692209 5.413006460777045 -0.48284186083558134 -0.040293557412724154 1.5237342066290986
Ni 2.9677042879913547 6.573202902857468 11.584702282799283 -0.13704494070286075 -0.758601673744558 0.21796578471864397
Ni 2.79222966199067 5.490546235204979 9.500884784976328 1.0597215626848782 -1.941102154131586 -0.7076915171582522
Ni 8.54096649874961 3.1714298031802106 4.566265366336228 -0.5556986968963075 -0.34266763047511956 -0.37974550916402344
Ni 8.923094971310148 4.102404537221389 1.7227570554819105 0.3737165293611241 -0.1546091748388692 1.571746472842319
Ni 8.25737825395871 6.00092060473136 5.958155703901796 -1.739226075885953 -0.602239520770324 -1.6681834102158304
Ni 5.746887858297121 1.783888788554774 1.6517647296578533 -0.005417571471145508 -0.07944631635278576 0.17804478015399014
P 9.031856201845875 3.180045855098729 12.413874327581848 -1.7723663100833476 -1.1615531887113997 1.5669469945711465
P 7.8558026576779385 7.281145783151628 4.0815176505770845 -1.1455838098663367 1.2993733170173878 1.548142974490766
P 1.342236349472179 6.192266411335765 13.433275283349753 -0.5962023134373088 -0.3875909733503712 -1.7905411812201613
P 7.912257507666927 2.1079199175688745 2.5108282800505486 -0.30224346102180205 2.6775203498005693 -0.44608999802752847
P 3.0709748972064554 4.117421621175235 5.4380493254055775 0.0891871977896335 0.6980244263821334 1.3018210072269323
P 5.40560585409104 5.431228753587289 0.39856654808351827 1.2381000720292032 -1.3797377743090689 -1.0676624147985097
P 8.718825086827966 1.0965662416647382 5.702072186940112 0.8511665297571728 1.2790556885059585 0.2447937035447655
P 4.419236851615115 0.8679705583128198 5.167845056688541 1.3652521790983843 -0.1160721951059356 1.280508361792085
Ni 8.894506197733016 5.752434793682573 7.959372670004369 -0.8419095299352791 -0.00396644084691575 1.8928240358514885
Ni 0.898527508455654 1.683987637551817 7.37731331165656 0.7417750891055226 -1.5107802175715916 0.03722186046593589
Ni 9.152753113351801 6.584268616595958 2.7255087579837345 0.890914241968756 -1.373687711460247 -1.4686254385804127
Ni -0.037306190812340594 9.27943160217996 9.257357427335554 1.6995354421645503 2.1748730242032863 -0.8931726989856296
Ni 5.536170013392256 6.177774925320304 7.609823761081697 -0.03632068880790519 0.8044310733738468 -0.7314045445044758
Ni 1.4836409662525762 2.808269784788871 5.342701166543876 -0.8904434729799247 -0.5580047193216648 -0.05890962985201467
Ni 6.015787517845667 6.624270373978014 5.066947146738148 -0.6969543332464061 0.6617127364352927 -0.12996566525857617
Ni 6.467942530018482 5.9909342439020525 11.707578633683877 -0.9599285643549403 -0.8097666266541473 0.2349255525014341
Ni 9.094759012257544 7.686794763454879 0.2933061752445327 0.7385516970722183 -0.3810655135270276 0.4045006046215163
Ni 7.213024536065997 5.230469112479319 3.3173489308242323 -0.20990229098421914 -0.39782499237355357 -0.12587709701149935
Ni 2.939800668869615 1.3297533984355447 3.7918484253526237 -0.0912538505106751 0.31669820299455137 -0.9504789889062663
Ni 0.7213437505874727 1.628199170663281 11.129846072650269 -0.9699023877382005 1.0650928542991205 -0.27440972663898544
Ni 2.5520501755038545 3.6318442115276417 7.672037662766984 -0.12597968402763465 -0.5969008821662302 -0.39293346860920714
Ni 4.533939215990081 1.919455513948114 11.474064855337074 1.185975583419822 -0.9298865094668952 -0.6913848095784286
Ni 8.856897788106103 2.160977152313305 9.016796882343408 -1.4179924469148935 1.9414011734292436 1.3308310213060373
Ni 0.44800935843380735 8.832110213904787 11.99077831142747 -0.03724551461501973 -0.4301167625277238 -1.1565320813477242
Ni 7.242091979194159 7.96584034034974 12.58428068774811 1.1061189190024951 0.7273751116301086 -0.24939314998998982
Ni 9.215402510471751 3.7286480889651177 6.982748816446741 -0.4645849715079224 -0.26780044885258397 -0.3678022207592182
Ni 5.374473561919225 -0.10270934570232607 3.190007813166612 1.4880424096544438 0.920634394741008 1.168318275349375
Ni 2.5617643516864983 1.156756591287245 12.482380387443799 -0.03263964041189217 -2.53344755571665 2.3605732640200054
Ni 6.88845842343604 1.1046097672575168 7.736862659924746 0.7301914980329812 0.500690201870912 -0.4598847378187757
Ni 1.7583222031233523 3.789974105561634 0.3019625855761775 -0.4327840249472417 -0.025452121524517455 -1.5341116932086805
Ni 5.512480563455065 9.136985175200264 9.384094107364032 0.13778593263394334 0.32140563577254966 0.21405102304527004
Ni 0.9571983168955812 8.475191671031766 3.5743522441780913 -0.8976800999376798 0.45004178358642494 0.9824604269088694
P 7.0630038673670805 3.498323563823013 6.146556284915753 -0.6164921740345962 0.19995854950794595 -0.26652775278774743
P 1.7645730643191404 7.533414022221289 5.468119158887658 -0.19405452531868517 -1.4640100512955883 0.7853336904227636
P 2.2166436053947156 0.08108380624104147 8.222969421781713 0.33952265708823465 0.9863499917712626 -0.5444843162377268
P 6.381293955604794 1.9114307597102778 9.761363614697755 0.0018241976929323422 -0.4231436736440003 0.6305843904616043
P 4.807822670275809 3.572620586684663 2.58359262178116 -0.5465882499546071 -1.184589501705573 -0.8262455981457769
P 5.235415364506616 4.729837076167994 9.489455845519705 -0.5311217788878917 -1.1645680642783234 0.277669885447496
P 8.55660303741655 7.737683906703472 10.186259803791103 -0.9471944046177235 -0.7447485699115496 6.039085780985045
P 2.6582866587998395 2.939612955320192 11.55942571480172 0.9875879779434218 1.6782222825090711 -0.42181029954455745
Ni 4.908821945542891 4.528983578285312 4.4494193132268505 0.4726921739960892 0.5077957025674417 0.24306900754417493
Ni 1.0311386840133279 4.286776785464727 11.318055185843813 0.41527481241888475 1.4835833454418255 -0.07231536173495934
Ni 6.887088114525252 4.371538838706713 8.22063426522689 0.007940080782683101 -1.7971520016684597 -2.06018228282591
Ni 4.532287336755157 3.2433334782867167 13.590535125082168 0.5183817056134039 0.35399154012837103 0.9451802024011723
Ni 7.691093403736667 5.615863800799819 0.16167204871160604 -1.1247894988288047 -0.03525136700312639 0.7360250739956228
Ni 3.0937914791388295 2.3755055822714586 1.597407578583668 0.5246693383943286 -1.3154815354331604 -0.07183867920885692
Ni 7.510494197836733 0.4333733329852907 11.145698481899046 0.32539084567254284 0.06216824599862841 -1.601558671107745
Ni 4.980716234971926 8.384159985239048 11.725559714583111 -0.17757452538579094 0.8423504741274396 -0.34754501317207886
Ni 6.453666914584858 3.2785109974486 11.641490324338495 1.857700709785794 0.36946855271804757 -0.7873926298343213
Ni 0.6789739867794449 6.484038966881511 9.673241488921098 1.7306776720953099 -0.6740316630119616 1.5483566331634688
Ni 3.7524501670319625 6.152067554726814 5.978966566558585 -0.26016684356672615 -0.6170231068374019 -0.8651643866981615
Ni 7.587663238004556 7.69478197498283 8.481442532227554 0.23029422437700983 -1.2414612751919523 -1.1684727986493681
Ni 4.236629110736354 2.642312235743937 9.058529358651146 0.8952972015278 1.0073376497665232 0.9045058646102615
Ni 3.3410008380515395 6.029359207468954 0.7393811455515353 0.5685917508088918 -0.7395420860099456 -0.2842974180663427
Ni 2.5869742813740157 6.405058490961754 3.3966785539459154 0.8992672419191416 -1.4601107162411822 1.844228129220656
Ni 3.5821752063502976 8.308380025336955 4.522513092236699 -0.027199443232927348 0.3964149993999044 0.8060876351406635
Ni 5.390203957360877 7.531227159370511 0.14634148313022408 -1.705787079501217 0.17348184337365607 0.2800520125264274
Ni 2.269222170588117 3.81540929150846 3.3444097161090625 0.6275877697271255 0.2997042395397161 -0.40921266538520495
Ni 4.356671925592407 0.8659085249724073 7.5258360262310795 -0.28273650133712597 2.1526738623984283 -0.5244186558361033
Ni 0.7289714906682792 5.2058692518274245 4.836235931684231 0.44214978243285785 -0.08469085258117673 -0.818359767639797
Ni 6.934091587300788 -0.17582001893162272 5.323826569149387 -2.1889107332432753 0.664434763352146 -0.7322249835232422
Ni 8.778330281995078 8.387360501256712 6.134770689715226 1.6810826347760015 -1.2098693593182843 0.1588743778731264
Ni 6.501477555622914 1.3954155980237342 13.010316298086453 -0.6538603302704095 -2.164709967627356 0.7678324483142067
Ni 5.121238598070034 6.726471015961404 9.854389756953093 -0.16756959165427915 0.9185775122119793 1.1818394497642613
P 2.864827877230042 8.681329305330708 11.182513801779647 -0.6653631887036864 0.6083132377682298 0.8361746843340309
P 1.9035092479246243 0.23838588352207848 1.9880019322231888 -2.6726373106766554 2.2537056182314736 0.03182640048197744
P 7.631569437214613 9.245446064056914 0.6815240753483572 -0.20357377766303003 0.8123104761219235 -0.34377140506225956
P 6.169196416111669 8.394493616134788 7.293023357991373 -2.846297074389072 0.7556737014644856 -1.899391404656361
P 4.6681825608599885 7.300592906871858 2.9449965799176456 0.5746796088741846 -1.8250821524198246 -0.108848937884619
P 1.3729087434479081 5.224312108058241 1.8653320662429609 0.4957521411393462 0.04036709096313693 1.3858006926736972
P 0.9580805705778696 4.024203072531739 9.182463475386738 -0.8169963116333673 0.2282355420757682 -1.6386738307924873
P 4.509179798821179 0.6362991884536044 13.737162871375263 0.026281816514664415 0.5223646015205521 -0.6864770878641661
