# total energy = -340890.93260910537 ev
CRYSTAL
PRIMVEC
9.05896226234553 0.00000000000000 0.00000000000000
0.00000000000000 9.05896226234553 0.00000000000000
0.00000000000000 0.00000000000000 13.25870696488008
PRIMCOORD
 96 1
Ni 6.683403516178587 1.868410995899564 11.399200398129853 -0.6008521535044942 0.6655963877604151 -1.0816006221461565
Ni 4.804792128611712 0.4071795244625204 5.550598385437988 -2.1792834945661563 -1.131201830113052 2.0731640397975584
Ni 2.818052965786378 1.5451509814623274 4.561233771304289 0.007064877266581382 0.5802277923859233 0.8447423713983839
Ni 3.345003749885684 4.636313545815398 4.823464461919583 -0.029726837640471387 -2.1828290458255695 0.1060045264572884
Ni 3.3660748964382288 2.854089518230928 2.6601606864557996 2.3362951081989314 0.9285215107985686 0.8731502331171156
Ni 5.36286044857 4.423183337327983 2.7870867145995493 -1.3419813814959016 -1.0747825707830587 -0.5494678854952473
Ni 5.213912988717488 4.763465142123016 11.234486720108789 0.15722990029116793 -0.34433704775774243 -0.06799436576210226
Ni 5.839352812077012 7.925495969365405 12.289005203647138 -0.13787309303111095 0.2393247100103943 -0.2538239320678338
Ni 1.805161320392312 6.535778664837112 0.35860536805033394 1.7065812932677384 0.47177814682225205 -0.8280551405506901
Ni 3.023718589252598 1.7626294919038346 0.2678798595706533 0.3625877664378142 -1.6581599645415575 0.5174067432946444
Ni 8.140854682604292 9.19520919892312 6.694559628379559 -0.6758028959797716 -0.6175792364511881 -0.6222673859554767
Ni 8.824262806389324 2.507801621361805 1.3198681749094632 -0.49970521224982317 0.1529166176277947 -1.1667974678294744
Ni 6.737195634935686 0.9868833643311443 4.63114721955619 3.551663285848257 0.771629967683426 -0.7755832959042191
Ni 0.9132249410212807 7.473752691147109 2.3010887818416412 -0.2122167980500087 0.4109090792510214 0.6434491622394144
Ni 7.723906878981148 3.6585434976630404 3.4761277012076146 -1.9197702254230293 2.2752522340539976 1.0196352361869536
Ni 7.711314921239086 3.8519432860337544 12.557626086342468 0.3572560698122557 0.22240093767186211 -0.9258305942299668
Ni 8.44876881472854 7.495548554692003 9.011320415180746 -0.9309249780337386 -0.6954373823812474 0.1609040067086455
Ni 7.076807076512797 0.6447426604507374 0.23597057039753025 0.3546410007869118 0.6010470431241197 -0.3767617439453511
Ni 1.8583555476307227 6.715318240729154 9.308262332040831 2.429614068768751 1.7025125225150035 -1.71446635244277
Ni 0.07332324170090217 5.1246369142225054 1.2468049254295661 0.017391456003570047 -1.0118273101067605 0.4960843276677843
Ni 6.638018114532737 2.103273655195041 6.871775580414882 1.1809048537651339 -0.7703426163305701 -0.7785848017347043
Ni 3.4363543267712653 4.452253547683579 0.5088346710830632 0.33166279472418364 0.7854187939374022 0.07294425356820987
Ni 6.135463116188377 5.699328430192795 4.6333476415242085 0.36801227988749524 -0.05046047064339697 1.6859587319213802
Ni 5.711648619062727 2.9654060482557227 8.689915676243922 -1.3148688415498258 -0.02606173008405834 2.43821389462262
P 0.4188601505867042 5.7218308928052295 12.248062317164385 -0.3639195978753603 -1.5270938671299508 -1.2373487956854754
P 4.2363603556628355 6.187543091051051 12.44150649445088 -1.0399394949619443 0.44090639694406 0.7697036971949904
P 2.470560226917475 8.570041144435727 1.0475992480538967 0.7542521385266107 0.2909907709261182 2.2105949030849286
P 6.459429729693153 7.989470361865006 5.517823059459008 -0.0009435948601919232 -0.98278978522383 2.710946747779815
P 4.750483648997565 1.2534523920418863 12.310338154213168 0.9448850397582564 -0.020432299712422875 0.25249158640965547
P 3.9513744573840266 6.297754427662514 8.072006568331144 -0.400489169469278 -0.515020502450655 0.24253653207947262
P 4.921435328530272 1.3311329946592865 3.5918631930932565 -1.365735546492706 -0.30314180446635536 -2.1352728933131613
P 9.339337290776513 5.716250571964143 3.5803945466893348 -0.5906502732708279 0.10477913869061954 -1.0145799331512333
Ni 0.7528976125964096 0.23148276042240956 4.447859045021223 -0.6930796807823483 -0.4573753411333607 -0.2937189684905587
Ni 2.052516288843403 6.789040076775847 4.394253540889655 -1.2939729719374229 -0.5412982052002613 1.4562409488731307
Ni 5.986352595012586 5.598728652692361 9.06485888299052 0.2482628930402886 1.0560266303317942 0.49065698600462593
Ni 8.953253372065028 2.702949789476561 10.322500139248186 -0.7880500609126622 -0.018462063359929493 -0.8613018184189617
Ni 2.24396840029718 5.176073702754469 6.913182285772737 1.3809904157692474 0.5594856747425655 1.2253741398221025
Ni 0.8160739105081866 0.21931204443214986 9.10043161655997 0.10923023248343769 0.38043276503903517 0.19070952010585218
Ni 1.7336045763602603 1.3981693164515618 11.469656478229775 0.13327313236525432 -1.2309817158168672 -0.4609381187839546
Ni 4.153769795422272 6.846066245111303 1.3670526864888204 0.08565733025950409 0.5369293867086044 0.225227865597696
Ni 5.354607733819627 7.9110469243304475 7.530787012548728 1.3937317745953157 0.6007104857203074 0.872827045449742
Ni 5.237538762668063 2.9078091652887923 5.018977706219234 -0.16906983034888948 1.3559139324165939 -0.1962908708483716
Ni 0.9360444673178675 7.812168349686843 6.891173536611341 -1.2518148505121345 -1.0224084280567165 0.04374886295117627
Ni 5.121457218418574 4.598963443822214 7.073427177639728 -0.0718312230096892 0.15018147808481877 -1.520792607502271
Ni 0.9191132665841157 7.69402136200916 11.349214855375067 0.6311094097271389 -0.01581639820696631 0.3186913221651802
Ni 4.750039759839751 0.4775341441835133 10.23240694634433 0.6145779877310189 -0.40832357791203233 -0.1430366395099214
Ni 8.332161850659597 7.374711055180224 4.842067041216938 0.6461776169141711 -0.6541277249991831 -0.821942599895049
Ni 7.258756336404397 6.289338651588861 7.1203498852056 0.49089815548115456 -0.2885687917481869 -1.3157119062764113
Ni 2.3266223732745743 5.338609606213524 2.4663315032671185 -0.2037020757107782 -0.6069973471702836 0.16185505776800513
Ni 2.4443254717944436 5.5900139308593655 11.248037116073233 0.2598194875296364 -1.2661677767996968 0.8027328597358175
Ni 0.8767309109753104 3.5242443800183807 3.4680009060346615 2.6473091163245117 -0.17853946040222154 0.34698502690355076
Ni 1.6895870780374678 1.2405977243900976 2.3397768925819475 -0.859390717439178 -1.7106014701707248 0.2326133594284897
Ni 1.3432810632435352 3.216294012044515 8.24509978657624 -0.6376546670448244 0.3672844005825352 -0.41621403640370247
Ni 3.5400975642260137 2.601706825645416 6.883085694976727 0.3171735999690731 0.7113545678321362 -0.041367250092877145
Ni 4.12229896002952 6.659596562979925 5.788605410584019 0.1437938293909201 1.30697144107962 0.36180435130457045
Ni 0.6094788374992793 9.238692218464056 0.2815697635561244 -0.5378691249140544 -0.1824539649652793 -0.060852612510998424
P 0.4098256473808344 5.974340410864404 7.822703922963115 -1.2616611471785948 -1.247735024015806 -0.3250373189878661
P 8.688858495331333 1.7418301142234207 8.025336605816355 -0.24776924123332167 0.8990422703925292 0.06283596148961437
P 2.105357216548044 3.2273278282530278 10.329221889352223 -0.76216059474041 1.2620542688519554 -0.7773301033919967
P 4.097178457282225 6.087785797054222 3.5439729883425994 0.8499748234419168 1.4719341912386714 -0.6609655738566229
P 6.8979288048762735 3.9029995981447363 10.29081188875773 1.534518698839112 -0.037513937785057974 -0.18651425107758202
P 6.49167963585268 7.774646127407976 10.09613388079176 -1.3755026531817987 -0.593685460552726 -1.1127724197632707
P 2.4481030591170625 8.522599358324086 5.666307606332658 1.6544370071640153 0.9865806197248298 -1.578296872366327
P 7.045508361405727 4.222237433274436 1.3465277953692585 0.3808153451894345 -1.9285330592173238 0.8521481769441518
Ni 5.47694902109053 3.083154441587614 0.11046498755878441 -0.24133197024841016 -0.23148593069226583 0.17740020459145578
Ni 1.4413533902331532 1.219861759446514 6.688367827576179 0.08157493266001435 0.23046520273723536 0.6309530866549328
Ni 6.980138888695853 0.5188946488331068 8.980891360464495 -0.38999726879901864 0.9274115655638416 -0.8302446920028411
Ni 2.913588783302775 1.5664486020749815 9.110177248314582 0.45832690641335266 0.14863547375393754 -0.21566259050676406
Ni 6.501064720903599 2.145742070946688 2.159431974932159 -0.6308409865571006 -0.8026629257298306 0.4411231409405564
Ni 4.35399098248347 7.035289851813607 10.353856831714642 -0.37903717024308914 0.1843910340869921 -0.7754416281200323
Ni 8.356131865181538 7.1175089945955925 0.048329564427268726 -0.9667648705504834 1.7766693083340757 1.2656658974626136
Ni 7.848485729965928 4.034698793579344 8.213715917222572 0.7222961544453044 -0.1730768946257535 -0.32625293656252197
Ni 3.4349773644858024 8.400040655955479 12.431284361273798 -0.179754049535613 0.10868515861324507 -0.7881842724976813
Ni 0.32914562231135025 5.1985399295172865 9.843025565317658 -1.0174832228409574 -1.674247357021723 1.2052799401753886
Ni 8.752189701500225 2.4707323472031577 5.496502791440343 -0.3405963497683876 0.0889336870179307 0.2339945560467325
Ni 3.5835443479173312 3.2319297811544434 11.783225214686826 0.38004015758630677 -0.6263410418042181 -0.8604518117138408
Ni 1.0800729105848113 3.5778190836777752 12.464470964145937 0.4555727407069831 0.2170515004344907 0.2406066620466114
Ni 3.0006182351214763 8.524927511662007 7.757126094117941 1.1996245416618243 0.03909105246419074 0.8132705260423476
Ni 5.912150633958461 8.03311644272922 3.543946717351627 -1.171953300998801 -0.4051953166956957 -1.7000110962493886
Ni 3.4176928642182807 8.400756313985424 3.493497355721737 0.31666400732250627 0.5134238473874964 -1.0596259176472784
Ni 3.6154771903927054 4.262386754650566 9.05195801463047 -0.27542325550516433 0.44369887208753267 0.37030878923115584
Ni 7.522290611709678 6.226179565705653 11.215593348118254 -0.15480277890691405 -0.982627548614353 -0.2977522580196678
Ni 7.994987269969262 8.768396185241627 2.3398701998947127 0.5111247669406745 0.738723189653076 0.8684368868018463
Ni 4.965099527319294 0.26303240878807943 1.4753100049096621 -1.447335933074017 0.7717076149988967 -0.07286197826704871
Ni 6.1486710833739355 5.683719837970081 0.17125334298077152 -0.4306947465183808 0.994138891688062 -0.6095190851508728
Ni 8.004127763035262 8.873108731673643 11.067931355030922 0.8288619527227016 0.48130228426260335 1.0681905193878378
Ni 0.29522433758821853 5.1044897818352055 5.70835115674754 -1.7425242870212507 -0.5549101395567411 -0.3317548402173576
Ni 7.019645023741274 6.071207895854241 2.474804350803918 1.819147017882312 1.2117627196862553 -0.1978625862108657
P 8.525063396098073 1.6993254626221563 3.333292323289325 0.16929120233107617 -1.4788697420162402 0.15748906748982555
P 1.8376286416495438 3.153216456822946 1.3274749856404053 -1.3356940058252933 2.089313910084544 -0.3087650641904037
P 4.902728571165265 1.1316455835528414 7.788920334468529 -0.6560812491811282 -1.1684825688413811 0.9101718046467874
P 8.738664670630513 1.6073860531802913 12.201696735786383 -0.5700043148857022 0.6797171434325133 1.1325514021624108
P 6.4311929438787585 7.813563429897115 1.186936960587862 0.35725941224636537 -1.2229809569995775 0.26878441003240805
P 1.7444753312454941 3.3158520088684487 5.753231068291227 0.4059514781354299 -0.5011530004399433 -0.296454879364483
P 7.131351089149456 4.030124017565141 6.013539447084315 -0.617503131797614 1.432093919313282 -1.0455020766513867
P 2.6121518092976452 8.701722221945527 10.299177840538157 0.21850803037535915 -0.24321016110772953 -0.5287422229121217
