# total energy = -340897.41375651344 ev
CRYSTAL
PRIMVEC
9.02148682647926 0.00000000000000 0.00000000000000

0.00000000000000 9.02148682647926 0.00000000000000

0.00000000000000 0.00000000000000 13.20385787642358

PRIMCOORD
 96 1
Ni 6.431111069192665 1.9362275408203038 11.37814699539632 -0.2155823720881319 0.44955635930957416 -0.10160228362453469
Ni 4.6715061930984865 0.2755369502944497 6.006408348650279 -0.4200717195868959 0.36702214806008404 -0.3735787182316792
Ni 2.5658280694019546 1.477674398243727 4.690221267057745 1.0002637736388773 0.6731888553956922 1.0994461349680098
Ni 3.396246889780701 4.416712346951794 4.955843603574791 0.5098204463069543 -0.26203963510940675 -0.3875457219347326
Ni 5.20302511932533 4.437669260332057 2.628386666106257 -0.28369320882344046 0.022815198122302642 0.058760248758343965
Ni 7.2867720090884065 6.06779776069075 2.6483638460413648 0.34447717288003254 -0.20129218071770497 -1.2003768464468165
Ni 5.011228314131877 4.424398653538098 11.41645132536673 0.31790405037719444 0.7858237426853047 0.4659026618780815
Ni 5.549197603280324 7.783549190404618 12.382194249097441 -0.19753965565380818 -0.23464530225685398 0.6834606696353455
Ni 1.9244905867489641 6.448784161449203 0.42286053297792314 0.09077793931552107 0.016112332180830316 -0.18557168465865462
Ni 2.6923814834778605 1.5119199613911563 0.40322346308777307 0.42645911117047847 0.8421856664148013 0.017678134006053423
Ni 0.5600376496782792 -0.014065399763740008 4.722900700130781 -0.3913309000087777 -0.013071231361661358 0.0740084331666661
Ni 8.48013425701832 2.161945135643455 1.4062765489651747 1.4397072128841657 0.24086094414926262 -0.018359990564426446
Ni 6.817853178404244 0.801741318763086 4.677268216592235 0.13507367590910288 0.030618753327121467 0.5411444532312164
Ni 0.686437698481923 7.585780161079554 2.56111253835423 0.7841252719369592 -1.224057220782892 0.1199967269713224
Ni 7.577137576913263 3.7472729335284556 3.852172975458297 0.08792787146123567 -0.5176792802297406 -0.3187735974663413
Ni 7.81193078725968 3.725278549188774 12.342701789341334 -0.48567933028437643 0.004882267792965786 0.7275687156981535
Ni 7.945863777377366 8.90491997523746 6.875248778325281 -0.20062137990292545 -0.03342845486177469 -0.12464553859724341
Ni 6.899073622296843 0.6336196008635737 0.2273324409252033 -0.6388008648341257 -0.2739847232864249 0.5604920045198928
Ni 1.7871564961817046 6.462920830957112 9.373959693842112 -0.12709374302741983 0.16813189191565237 -1.079446037696999
Ni 0.16165782274800203 4.809399615835173 1.4062503866540241 -0.42822623037323027 -0.6030242214551487 -0.30253528123060797
Ni 6.283059452540279 2.067174418872184 6.928565764152813 0.45506957581831947 0.2377463097796809 -0.27103155419537195
Ni 3.230576309791399 4.121024102030787 0.3701515953474777 1.4683919824133678 0.5704743125435853 -0.36322360024960026
Ni 6.143316625049847 5.570127452200776 4.6385813755898315 -1.311960152543463 -0.1307429097442329 1.5162787787923178
Ni 5.251479523873496 2.883185925144913 9.147038632706034 -0.03520842958033291 0.40579361240132694 0.094424792039489
P 0.10953798819277456 5.590921978822173 12.431946845567875 0.7801326058377984 -0.8356838607405414 0.46522466197445045
P 4.037142319590113 6.055880376887337 12.680575407769638 -0.06272437561241456 -0.06401378384779943 0.005657712506409612
P 2.3783796207514576 8.417182323498098 1.3430963718338804 1.0486668475326135 -0.8385056464600527 0.2179624422845343
P 6.318784539490705 7.746046870593275 5.8643217389402205 -0.6193342714690817 0.6960500762645819 -0.6477416189671812
P 4.678127964265561 1.101992631608216 12.562123288663802 0.723460864177367 -0.11768916188406828 0.8541904041851611
P 3.88942449794206 6.317503488392988 8.286648629532664 0.22179878531148897 -0.05504037670459553 -0.7462498370474245
P 4.649096820375038 0.9898014242053099 3.6915084183853564 0.8029174649427978 -0.36145056750957755 0.665984110117137
P 0.20050705050927045 5.534709095794874 3.5389641014043547 0.5317213601451036 0.5542683922076842 0.3558188231450969
Ni 1.6961206748643418 0.9939242435831749 2.554906657719584 -1.629879115318993 1.2288284169192902 0.4507143841734173
Ni 1.8473478548012117 6.487838176956373 4.792287660045383 0.08532437240011757 0.5367203560215918 -0.6246415426146081
Ni 5.774897155130268 5.693216615420883 9.320008497506343 0.33920975383350616 0.014579440476071666 -0.4461884712786058
Ni 8.610530824387379 2.174719560674214 10.234679883425175 0.30748002683039305 1.1113202606977763 -0.6429089734652282
Ni 2.353525425158421 5.284786852414148 7.005570467355529 -0.37172186752859854 0.09508813665510076 0.463236427899828
Ni 0.5677546293190355 -0.004816571697685069 9.228453038560612 -0.16463544872661967 -0.5959801701241736 -0.30855320528991376
Ni 1.5297193544601442 1.1187725966909923 11.57159653693556 0.21809511120765665 -0.4465036885261794 -1.568159783932325
Ni 4.165391773147504 6.730290629429283 1.7329671325996014 0.34908124731094714 0.4838615603493473 -0.9868199894291456
Ni 5.675967533034717 7.960036532831689 8.086993207358779 -1.2093728792978398 -0.30329478510445185 -0.2871965939910086
Ni 5.154823316402064 2.827857147804769 4.751011652387733 0.5527041330443577 0.03417304633728308 0.2049500891852664
Ni 0.8094267232007295 7.425333021833761 6.920035948569067 -0.6845284487782275 -0.43128044381852176 0.31109654053705776
Ni 5.036533584055095 4.8151733672615045 7.0479155211757085 -0.35434095304798974 -0.5885751359093541 -0.15824162938513392
Ni 7.973767235442434 7.126496278088082 9.14433128457628 0.47469943423410504 0.2623062585072321 0.11809796728671275
Ni 4.737931398961111 0.5132531223004462 10.470381557472578 -1.0913178494339206 -1.4757296537253617 -0.6655357097258087
Ni 8.054680948790509 7.123492123049069 4.70570935525888 0.6573009805208422 0.4814040999477902 0.3809966079623051
Ni 7.067730314351951 6.212962501629971 7.0900621022906085 1.2001019955188752 -0.7521271217638079 -0.5350383403334785
Ni 2.3977938599224973 5.1844588998950325 2.570209805445344 -0.3289420533589109 0.019396916469373044 0.4093558758312885
Ni 2.455468223779588 5.186912744251223 11.359238861623743 -0.7067036993236862 -0.6759659039201972 0.7856651056202534
Ni 1.0572280150809388 3.4275063408623248 3.829792471491979 0.11738680015230106 -0.08708737783781131 -0.29197704609878744
Ni 3.6725660029636864 2.5721701744843153 2.6194472750307076 0.3010543258097073 0.6900316379846438 -0.223124446101448
Ni 1.14229161226669 3.3823086929780724 8.196809959487606 -0.6878179181627767 0.11857747802629255 -0.011673322572870218
Ni 3.721300073596567 2.731038553574471 7.05173161000905 -0.2664318506398315 -0.11332497137810162 -0.33306687416056185
Ni 4.043195737101158 6.89027767285829 5.965766551500867 0.42231680686733075 0.24069947887073387 -0.12705414803873602
Ni 0.8027598446006372 7.399360161901872 11.50203907092415 -0.0659811919868154 0.4259271499264084 -0.15342132517835513
P 0.24495320855943908 5.574611131042786 8.054353468826797 -0.21555846082873198 0.08116047083041507 0.04458652836112321
P 8.614581471872413 1.5256867499483155 8.10998085737352 -0.4572488428578254 1.305209206972875 -0.9461677631254222
P 1.8608620417334691 3.206678391778348 10.35813531900139 -0.8919347128134703 0.5907412903227375 0.3688527735109196
P 4.034868904965995 6.098506901089551 3.8020108034960605 0.06829209950817916 0.43052119705499403 0.17401611861057126
P 6.802841424695782 3.8532302936882443 10.280523469750248 0.9890049128956064 0.561168461761627 0.5373513047373714
P 6.139175762698774 7.807311786118615 10.305201746354514 0.7079879653527484 -0.9564244078564238 -0.6624997511129623
P 2.373047922168704 8.549229822915622 5.853851401588032 0.5441888964844951 -0.3703118745549493 -1.179303570716285
P 7.0089012002095945 3.7310523006151053 1.5062824344125398 0.18317104563696196 1.3463926231897199 0.35283634347800524
Ni 5.425215312886456 2.9373419092265824 0.32884581678403735 -0.8089976096986068 -0.22736882320009874 -0.39510939321460337
Ni 1.5539420459909261 1.209023548673838 7.007458664501671 -0.30560312152265434 0.16753102510685985 0.2559849442748946
Ni 6.66963917499299 0.8681322429766166 9.066890843570608 1.7193648181856518 -0.1540651294099411 0.49135915427797305
Ni 2.8072971798350665 1.6529799259257203 9.25736960957127 -0.2891992262433342 -1.6032172897570904 -1.3897959298760194
Ni 6.294417504174264 1.8598426137472575 2.424346801443 -0.23931108316363947 -0.024663307074634946 0.6532373519744299
Ni 3.921820656335743 6.839937777609962 10.489778655819071 0.9227882078592172 1.0607736580984763 0.24837422180717228
Ni 7.879853559898509 7.261232180513492 -0.01329586695644925 0.8039988709324347 0.011637327128612216 0.44445889018200874
Ni 7.552346531726452 4.101438454614278 8.209445453624667 0.4740378893907062 -0.8052823656305486 0.10444978037565882
Ni 3.1927672594355307 8.49870949793522 12.385944481078576 -0.35420005659475134 -1.1857511261138418 -0.00197769255166111
Ni 0.23031404224770738 4.728783611545017 10.301200717045798 -0.3954400370811448 -0.3539434604992549 -0.4023650463357522
Ni 8.633337142521388 2.4334106890336806 5.893449412737403 -0.023302422171366317 0.10789865815620772 0.10213707308208217
Ni 3.690203009273809 2.5541993731698582 11.230752142968678 0.07449797120857492 0.45687320468596154 1.4725674539472962
Ni 1.1348037783856662 3.2715879878915604 12.641888566767236 -0.1139104115679264 0.6448529845654765 -0.048259606337336246
Ni 2.9338235294511614 8.291134112671996 7.937564911850675 0.9580781414097629 0.45653870416467823 1.004501980089941
Ni 5.711521211739675 7.773372953515709 3.6478029243853465 -1.0757135672377602 0.35650505057884413 -0.020699951551512736
Ni 3.204080203636499 8.361113784256455 3.6047054785824226 -0.0193146411682119 -0.9900600936329981 0.25825240015283263
Ni 3.480597789524764 4.4086200734683265 9.17352571737433 -0.6574948416992031 -0.42382578731268944 0.2706232630133597
Ni 7.301991256988752 5.901721213804283 11.242292428632059 -0.8978009417862604 0.5096078160755159 0.13064212250031051
Ni 0.5192767689056987 9.02078292768805 0.4771662737372133 -0.643264299922118 -0.19175390220996652 -0.3463173114125649
Ni 4.537212343516655 0.24037931485139202 1.5051998560201025 0.24227839332207954 -0.3945015844272754 -0.25107208035430956
Ni 6.098597115955588 5.441625397018483 0.4879442437825858 -0.3733133803854345 0.62614898039807 -0.8423651294154589
Ni 7.88550101051239 8.861319130482052 11.085853535884263 0.13843076530679385 -0.4427552772273407 0.21908627147633236
Ni 0.15331294763963213 5.016803592852928 5.7857716550823 -0.7075598766763944 -0.686590730623895 0.4182814604556926
Ni 7.722464704611351 8.757968979950718 2.6449311703886784 0.40631374657085506 0.8013825163555102 -0.2590417288233474
P 8.679788777043546 1.6469265084146758 3.610264518627588 -0.68121429680333 -0.3079502815985922 0.3391981838692803
P 1.840284030790559 3.209484074112081 1.673958490873832 -1.0259146414377622 -0.703134493915189 -0.30489092594697814
P 4.7079169130307905 1.0085931808006987 8.164301934660037 -0.8405977531023912 -0.011032603665077774 -0.6635392481210701
P 8.605343469590283 1.5229803039672227 12.338067451673043 -0.8087510409054395 0.3512345462085241 0.9705819303037285
P 6.320354278159739 7.677573787271623 1.3868541904561913 -0.6377040322255211 0.012726703538049047 0.1408360323141768
P 1.834925267747995 3.3276835915930136 5.963271208306299 -0.4924202485526358 -0.951342365347826 0.4988282089615087
P 6.835905173098133 4.032451146556219 6.049651040387521 0.3480618049074973 -0.3837800842447132 -0.5621971601364576
P 2.3129287354420263 8.44006983501154 10.244477217876732 1.1613631841877805 0.7166235295405594 0.6107298176295224
