# total energy = -340852.5342098149 ev
CRYSTAL
PRIMVEC
9.47315549777368 0.00000000000000 0.00000000000000
0.00000000000000 9.47315549777368 0.00000000000000
0.00000000000000 0.00000000000000 13.86492063222030
PRIMCOORD
 96 1
Ni 4.470618780166498 2.6774262810717757 2.7879855810867507 -1.2238700444727502 0.9787693512105274 -0.302477174299163
Ni 0.5348941313282347 0.5415594433454517 1.8540868882048311 -0.3939655094181473 0.30492357895712646 0.6820843581131092
Ni 2.8609686635811276 9.18340930053785 3.5773855007244695 1.327333806786056 3.2098569749321686 -1.7952761248019855
Ni 0.45229484896365185 1.5760109423768176 13.250412934502029 0.10027662283457568 -1.6631635884037357 2.007138367726053
Ni 5.479490865455838 9.183418773693077 3.1668028488532136 0.21987071505084066 0.27689469784436826 -0.7902013029277101
Ni 8.263490142823366 5.627783637368167 6.699973344874501 -3.572985444364801 -1.3409292860823034 -1.22204173301476
Ni 5.270181500730979 7.467157768191048 1.4573691463227725 -0.051454202015233964 0.9585203711535041 0.4461105668528188
Ni 1.5501113359881429 5.015164162039276 4.68167025813747 -0.3275140626631327 0.017623112398401905 0.28456944078080665
Ni 0.19890310370877973 2.4380491216586755 11.220241878897504 0.8115648562051506 1.7165628299604823 -2.1750833404418795
Ni 4.534496265857365 8.810309081950454 5.282742904561038 3.3128085734957464 1.4150701310617757 -0.8522659334689386
Ni 0.14742503089360195 8.474182588211262 -0.2406342471116286 -1.911172456451689 0.8231872709354274 0.3714583294545667
Ni 6.898474786801686 0.11168281622481308 5.04943803764799 0.21937783457482218 2.3885401815465768 -2.3868298837236894
Ni -0.22143879267659894 9.142049504819873 5.831488683461154 1.06355610593962 -2.226546541318178 -0.12232049000849256
Ni 5.713790413667646 5.556621295308283 14.064574734585744 0.43564977653081105 -0.14807343060288047 -1.7073299985083046
Ni 7.57511384514984 8.547514282817966 10.446759701986517 0.9460610623442288 1.5140226357682893 0.44793553587669954
Ni 2.004112300208049 3.849445045668267 2.7400826770539743 1.5307258074555832 -0.4644846984846323 0.18444914101843718
Ni 4.869391249417139 3.616130705599992 10.499584857474876 -0.07191195564895357 0.3393871599516349 -0.750051727292018
Ni 4.888356506180169 1.1088328192371426 11.58226892634089 0.18348754843611625 -0.08220999514085196 -0.6741031396798455
Ni 1.5074347716937102 5.616321119544358 11.119388773727383 1.8051211359168655 -0.2816047017255279 0.6543244143910215
Ni 7.758930949160754 7.716216492245416 3.5138424174130893 -0.6122668230993391 0.7004021825856906 0.14850846125777004
Ni 3.493339667556832 4.505622088727636 12.181566303475053 1.1303027153375502 0.3546461429932344 1.3128700659522423
Ni 0.563860198063659 5.544334612979786 2.607256725679607 -1.240956824751708 1.497284497078002 -1.1975422052114988
Ni 1.456374465024012 8.182722021364025 7.51383010935993 1.3562785148448642 -0.234335484325919 0.5304831168626283
Ni 2.2773275700894544 2.501235067018024 0.9897997818722518 0.07522585051353496 -0.8191879199680473 -1.3307346049374889
P 3.2748223959520204 7.840314825709804 6.308552991394983 -2.894846958273318 -2.79968091719243 2.582663612429984
P 5.658353509283402 0.5210870075859183 9.807586972558337 2.355794097463807 0.053410297300340276 -2.521773461812831
P 2.3004420688416 6.775229037307665 1.7924157003661663 0.5816920356362756 0.5302967118834351 -0.02146716873484045
P 3.591405770459377 2.552740611983358 7.38693814241931 -0.9455830942665456 2.34682557541661 -2.337939842891206
P 9.245117433681898 6.638408256374371 4.545739006479925 1.3870895866884498 -0.6815405697944972 1.2827938153921519
P 5.703701503351649 5.631307651112347 11.287098671907039 0.9452179976176431 -0.6014597051815062 0.5971546500482489
P 0.7670167484690424 0.36151360243012315 4.2566552542789635 1.8770189504984318 1.3977727774339086 -2.34364177837199
P 9.65106108143884 9.833703514201694 10.11741219812726 -0.6630777351036193 -0.10935647364865682 0.050065292087507325
Ni 7.018234415172434 5.929333114531404 9.451702318963676 0.0960805824753571 -0.013014152871480814 -0.1395042008766307
Ni 2.604189318017334 4.907236504546163 9.110445164353926 0.5155519494740928 -0.3266812823491922 -0.7081417173217933
Ni 3.9620808613088445 1.7603111773042723 9.142556318624479 -0.2844552838004456 -1.0518547583422917 3.674689543674523
Ni 7.100745597193412 3.7937902587138184 11.172186457065584 1.5161134568590469 0.44596581374483835 0.535299307304349
Ni 9.405526371128651 7.430411399068273 9.816918030456232 1.4624923290994813 -0.6473690661191109 -0.30882754199722295
Ni 6.015766182816065 1.1239898675992053 1.1894995779355624 0.9070774819921796 -1.4462822949985221 0.07803786604103334
Ni -0.0639134836807275 5.101568810858259 8.619543418581056 0.44410407794575135 -0.48308945807001324 0.7067263250315055
Ni 7.7149849820659995 6.109758828971305 12.642755497880668 0.23891153373237564 -0.6414876676376694 -1.0566969169259413
Ni 3.7491527512875438 0.7011896874326046 1.6917141656796677 -0.030411522412321822 -0.3367936881928458 -0.9807760972279108
Ni 5.913531891613953 2.187541004854686 7.7533190520046995 -0.5996619898511351 -0.5842389704278454 0.8103898620604431
Ni 7.6723936761686025 7.536501264447486 0.6529656434376572 -0.5262811629661388 -1.7829800810434517 0.8346891009274399
Ni 8.648611795392924 7.711290451527747 7.676742801732993 -1.2238101377690922 -0.3456940760062691 -0.06841139869486283
Ni 6.341623776289959 3.6604461257485728 6.094755245723909 0.043556287324395954 0.9141194764406257 0.605120698972861
Ni 3.504877970622452 6.735195483321366 13.72882243047799 -0.7580339741665462 -0.48416957850806935 -0.40785332314383305
Ni 6.876553905608053 9.052802909433002 12.870402996492574 -1.1619349975308506 -0.4128253224371277 0.6215952995891166
Ni 7.599715629272512 1.6355118303531393 2.89478782773898 3.2859482587697926 -1.3123576450921979 -1.925596088076187
Ni 2.321974550670955 1.9971779505824059 4.1746025729709375 -0.12256834435324054 0.2645624015312605 -2.1753700184443634
Ni 1.9763275359293435 4.909292179230269 0.13372969038295576 -1.1165396001151868 0.30402420707130867 1.1896352916595963
Ni 1.7456467330139767 7.73050201032666 4.486493893694713 -2.116455503496342 -2.9286695632497173 2.269307843545105
Ni 1.510106201467524 1.5875208259767588 6.158229175002137 -0.027396646845397978 0.5748079069219326 0.32779457001802903
Ni 4.1755773606437225 5.6191725392674705 6.021410288699888 0.9429037476621696 1.3836291389436752 -0.6323803060197626
Ni 4.198312933186816 1.625242930087842 5.4763249369792115 1.7890553407032543 1.896699202536179 -1.5672187601752943
Ni 3.7781121868143095 6.450858729204298 10.849480582335477 0.7089868389309081 -0.9102592221542711 0.5757219340957698
Ni 6.423329740116702 3.518093022163126 1.2408772353053414 0.9885811950946265 -0.15242322293114394 -0.2514099233097025
P 9.237254714844077 3.7848191807145226 4.220024457649949 2.024507712242436 0.6051551517552223 -1.2034994512361983
P 9.050425147471204 5.401612056340515 10.797500432293305 -3.6762746287734553 -0.49951855016031393 -0.30237921526871797
P 8.403181289790226 2.9795346743933626 6.9427475777517484 -0.5271849057273308 0.2859115566309979 2.1156245229546147
P 4.600997815545915 8.502715731752845 13.452009256241643 0.6589238608362459 1.588078120122807 0.134298231195659
P 6.003053208502385 1.8747184729721662 3.9209578944715235 -3.2259261125798897 0.2609793121656925 2.943754739717614
P 6.657041952704481 7.8794389567943774 6.002526501071803 0.39704877632916136 -1.2191039905426746 2.6425618314475137
P 1.7236500665785335 3.2481744103004697 12.68821811712715 -1.2693333190118719 -0.45104322826774573 0.803621690098674
P 2.417634472146023 7.101058211315879 9.469491009847602 -1.6283027719708085 0.31662338389255795 -1.0490188315553932
Ni 2.1197700523658134 8.791315405721743 0.6188736524092878 0.8683378993301368 -2.1667064292320943 2.035304545747624
Ni -0.1899869700097964 3.0120749625956655 2.003258768922161 0.30785617922288916 1.0037928698380583 -0.2039321894437133
Ni 0.5615904300714402 0.8921334461202562 7.988149096909182 -1.9608633959189132 -2.2666984309467155 0.7724164681404633
Ni 2.7663128965600463 0.6724595022623149 12.966307325372481 -0.1377990452600659 2.660231480813134 -0.41631482364762495
Ni 4.649159336716369 2.0971386845302087 13.467523442555736 -0.9987679058196413 2.2416890533865717 2.0692739607145327
Ni 1.1612762065698792 7.85597395129886 11.829342077059827 0.7461518780169795 0.2718489078903447 -0.5828657442294026
Ni 5.516606687632438 7.932602303924313 10.220414762218224 -0.9587029194779554 -1.2224528524102494 -0.2108723682069723
Ni 2.5908226959930403 4.321302907489728 6.6698998662931235 -1.449818847396871 -1.6456739162594047 1.1142965697172809
Ni 5.6743252489949265 8.98257840974052 7.703793396481661 -1.3604295608987604 -0.6808808247233112 0.6690331813561058
Ni 4.048779177939843 7.18200632272452 3.6901349942277624 -0.4908647311400578 -1.8046082008361888 -1.068072762863051
Ni 3.410222203601371 9.970590607221572 7.197196527129874 -1.1291215505452552 -2.7851968646436416 0.9141914673291417
Ni 6.211945754397287 6.26924887036111 4.813234385235696 -0.09635363363108566 -1.4971754823039636 -0.1006193508859751
Ni 7.197741233555386 3.8336722422164953 4.063142375893942 -1.0847677070202286 0.6860914223899732 -2.1070990019821063
Ni 0.8293235850233913 6.083338199045185 6.500207236724607 2.002825599283312 1.391314937623707 0.7496604053908702
Ni 2.5526269341206427 2.921075833491932 10.79583694623557 0.27698134402090363 -0.2704054905755988 -0.9573710880404092
Ni 7.967690870882487 1.982987164053425 9.011837196972438 0.7170253929646683 -0.05485602860793134 0.20110808973135688
Ni 3.470016759389708 8.609061372323167 11.570248439674252 0.5431715109635743 -1.6403044244173752 -0.7914274620253273
Ni 4.525439929461033 6.603547045141627 8.284886211217463 -0.8692097604121288 1.0648406290789985 0.5573863690113755
Ni 7.658809171574105 0.31922733213101373 7.091740415835301 0.11449559464743507 2.476887399933418 2.6802400627245775
Ni 1.2177077922528836 2.7871348917474297 8.78190193137338 0.40609443147119734 1.9490795159101078 -0.033129178453801006
Ni 4.712610530422054 5.146462093475643 2.2721552273359005 -0.38763288233190013 0.4467515428709274 0.923791452312751
Ni 7.88944260871334 1.2566329870777055 11.634664947897496 -1.0737829258739506 -0.33960056151402157 -0.5930964208184754
Ni 8.729844101458353 3.5975727945116915 13.370303292414897 -0.6594571076318966 0.28094109999960004 -0.5020767978057934
Ni 8.625412038243741 1.9635671958395318 5.062651194557618 0.349432717113095 -0.678548834156025 0.3838034812834809
P 3.6053407817972487 4.736170267469834 4.093520890073607 0.3993781957932864 -0.3148344103129352 0.030044111770574065
P 4.001006056133667 4.045700402491299 0.5680388068339751 0.43104930164432215 -0.28722924700115693 -0.4214680857137903
P 6.678934414432436 6.0693558219311825 2.7103284438037227 -0.5328351620345726 -1.1142878279665325 -1.383652793092759
P 8.495535080091317 5.118686802352164 0.9930793882115931 -0.8579123331214386 0.27434570617026943 -0.16514966935887684
P 7.916895812559125 9.149419619585926 1.9037508517941744 0.16626449968961043 1.9715293602731916 -0.3926383059662915
P 6.7966478412743045 2.107634940520937 13.242274546847124 0.45022458902119233 0.5075632748416613 -0.08562004926366544
P 2.4490285085659447 0.7718414264257916 10.659225522032775 -0.2703101026483151 0.06545103051495825 -0.26549314087564596
P 5.426138055221378 4.807446287392434 7.736861339430068 1.0592199404581113 -0.7050214265252568 0.03703468415579428
