# total energy = -381166.24350732245 ev
CRYSTAL
PRIMVEC
9.23810554853192 0.00000000000000 0.00000000000000
0.00000000000000 9.23810554853192 0.00000000000000
0.00000000000000 0.00000000000000 13.52090127229238
PRIMCOORD
 96 1
Ni 9.02554572917571 1.1222542692061588 7.889621835566191 -0.9951997288524087 -0.28202661975429494 0.023257684976359945
Ni 1.569877423115949 6.835597440629062 11.395036594108964 -0.7264266316739103 0.6038598299825664 1.1394828391749212
Ni 0.014701520764684856 3.635406909564584 4.198023226741037 2.6037158051145934 -1.026606268188148 -2.1156224660720855
Ni 1.8460043903501013 0.6992663706835655 9.571648933139345 0.2762388094279242 -0.17392664422055854 -0.5229353864223575
Ni 8.081023367718558 3.7015609815740773 8.493045635257312 0.569268208050626 0.22402278954600127 0.06543303279282925
Ni 1.8105947327586491 3.521759738239239 13.0872856551898 0.33839008614568816 -0.3677924505672053 0.06637174255701472
Ni 4.590996521163805 5.7016292539102595 10.163161119864535 2.4617047786557085 -0.29298157610390185 0.5219483399187398
Ni 1.7906219491132749 0.4642886958599544 1.4117986605691464 -0.5861315594648681 -0.6829554478641529 -0.40297388356434466
Ni 7.215653092419394 6.011004162097096 9.468741059218141 -2.229165466998264 -1.5138208041701284 -0.02460597147413827
Ni 5.7520600707095655 5.782619723021729 13.418196434437737 1.7667278808506477 -0.08464148740048003 0.3956596092911186
Ni 5.061761128834772 0.3502091812068563 7.795015323062069 -0.2202836342185432 1.1067501248285905 -1.2246768566447617
Ni 5.28236708325269 9.142102903668626 12.270028356071705 -0.5811719014667476 -1.1552910098517715 2.1044715916615884
Ni 2.4817061299380483 7.430817802819215 2.1886549538055027 -0.15643954317938866 -0.3258438740495614 -1.0951125405896622
Ni 3.7983855631592616 5.282154606830931 1.2263224491522762 -0.9593135564787607 -0.22220424828002378 0.22768532599925304
Ni 4.331793762828046 6.800917593355826 7.904832375932569 -0.416094994327335 -0.36325419637721956 -1.0986876595354305
Ni 9.105603149652495 2.2979602156427226 12.500843340649894 -0.09498323564612028 0.19348168353435063 -0.5180163518541853
Ni 4.00095873604352 6.812419034446711 12.137861555063717 -0.7968818002716792 1.3352903426289713 0.710394517911712
Ni 9.068863204898724 1.0516381923397196 3.3219367493009693 0.3838788146061066 0.5884164988443028 0.2657389383378649
Ni 7.889665254661073 4.604909107736392 1.5091350331876117 1.0494608041888185 -0.04115153453764525 0.41929473221155533
Ni 4.960844066604397 7.580779966054812 1.3934776501503183 -1.3253265465480402 0.020573967496609728 0.3759500466773332
Ni 5.366018126688797 2.354423515198933 6.381851270530487 1.2096729270367619 -0.19910622880997966 1.6118091451911598
Ni 7.514330274675914 8.176443757299072 8.394248718191884 0.015543604161553875 0.6665484672610391 -0.37732764375115013
Ni 2.5751033744592022 0.9633034295196138 12.522044792299354 -0.9389169951002797 0.37355377853101474 1.4708700116402154
Ni 7.12875023591984 6.634696364802996 2.3161574354506125 -1.557244165461086 1.0082519340506766 0.0023790417551378383
P 2.9949752600661688 8.667680006301282 8.21128342379389 0.438922790855128 0.41242705855744455 -1.6715934643386436
Ni 7.776914179549235 2.1444136675530987 10.38280815895295 1.1351649285258578 0.5342361561471574 -0.2630955871777469
P 2.349499605077294 3.8974365281202714 3.5386359089901043 0.36525348619543546 0.2597459539792237 0.8532928320715562
Ni 3.169095068645269 2.637867061825841 1.2850804940634875 -2.151818713486984 2.3567366638827347 0.43276294190131925
P 8.563400273743936 0.5743413204154492 0.1959965657255438 -0.2670219188153466 -0.5998818191714248 0.951200183343007
P 4.2690023611455254 1.068396115342823 3.1396070365471953 -0.18088842025037233 0.2607674532652025 -0.36699078060151635
P 0.8311135332483881 7.408664826324484 4.57747378263462 0.2403526370542764 -0.6355792725730344 -0.8997485524309344
Ni 6.931609068948384 1.8421613385478461 3.8095682896175065 -2.1895211131337646 -0.9198777190806415 0.49172990735383054
Ni 5.650228436055097 1.4640272126586416 10.57814420014998 2.070729205103821 1.8536280823783176 -1.254393409872588
Ni 9.113363158099355 4.231588034705301 10.95394478064195 0.26877412561976294 -0.42591969372724064 -0.7534113877928701
Ni 6.762828885229148 1.853579636691085 12.822032861697078 -0.13663176442484212 -0.46288932897305446 -1.0489344993717034
Ni 9.0237442986434 6.611693482621227 0.8274903483521273 0.9489815784251333 -0.7159259892529024 -1.0161416212113985
Ni 6.876697771081546 5.290210234647196 7.252557475447397 -0.19739618809740844 1.332186506892667 -0.2554311286539536
Ni 4.717697135269406 4.431011013684346 7.958875291901783 0.7727442837935272 0.4262187130248983 -2.2073779388095276
Ni 3.367640427621395 1.6541566577120403 5.391215982688391 1.0942936442327929 0.2546430855350195 -0.8572297052321172
Ni 0.741246168760027 8.1271677036615 7.957982890930394 1.033916428696316 1.2670324387928371 0.8186626435921965
Ni 2.456948007750443 9.00449208721095 4.0100832126422885 -1.0291138651013503 -1.674297493533368 0.2615614099214076
Ni 4.305391257898129 0.8803664916227235 0.9112023632831744 1.75994633915244 -2.363837279483258 -0.11169206376036893
Ni 3.8322986476931047 0.5737907293399337 10.779510876482856 -3.3509984543019065 -1.2960131422959036 -2.3143659122260076
Ni 1.1670036512497262 4.514837581121037 1.8649646776552662 0.7158100325003285 1.7439311946711062 -0.18898430988462936
Ni 6.3130163003647075 4.241749950528572 11.341156268792922 0.9386521714746673 -0.30071185486862406 -0.1338871118001694
Ni 8.542152631568005 7.156279789695611 6.287340834321419 -1.1271266316024138 -0.09578876226655116 -0.21458401273060462
Ni 4.761559659204761 3.623729944473116 4.60124342755578 -0.37807094967507787 0.9393450837766337 1.7141642478213188
Ni 7.188077348117154 0.4729032290465 6.426146137793595 0.03498602915688168 0.31923433915284377 -0.5851532547119986
Ni 4.150505184540893 4.469450769812192 12.414322941709507 -0.24961529330312496 -1.7157477902583547 -0.19003023465064045
Ni 4.406991939920251 7.658989765472823 3.8539296712387308 0.2012556710528147 -0.5741574178221274 -0.9935017723246955
Ni 0.5723551277772644 2.9012546818597293 6.846713652729191 0.9205642036247049 0.5673061992282488 -0.40106843901151573
Ni 8.882207287435826 5.821013288623106 3.4724245607277884 1.4494074708910651 0.6853054361535681 0.5619274514148387
Ni 5.058204458296627 3.1725224057092993 2.531058859849558 -0.03575298922989327 -1.2829290554184356 1.1614254048842836
Ni 2.7576483350663232 3.9657338405579456 5.944531375454964 -0.20818376563121566 0.7319190222470491 -0.06590380178166069
Ni 6.877695486453286 5.909255670390273 4.777434419341769 -0.42818946359802385 -0.5130980886169615 1.2527358196645069
Ni 7.282379926957109 3.7795213521491533 5.576803975179318 -1.3320224705109769 -1.281737863323812 1.9805014818648146
P 4.732958485214899 5.81229251722568 5.864691050452582 -0.4096656937622235 -0.8472836497629989 -0.37383171478274974
Ni 5.88012792439866 7.588595403133437 6.4432098420819255 1.4865624826748076 0.3867265684675469 -0.5274217043284852
P 8.407442580172608 2.037732027619342 5.230019359604904 1.3979622677368957 -2.443709113409237 2.0171289032798616
Ni 7.335674556397517 9.033342690043746 11.281447622846972 0.4502289598965666 -0.12488799362535265 -1.0257873718312787
P 1.6426367404105686 5.566845297672512 13.234880092038575 -0.02073594699577074 1.2274112248567894 0.5911320980032528
P 4.464434478637613 2.1466585271395124 12.46913723947076 -0.10028022237900149 0.4152205621421816 -0.39735885137041244
P 9.035596787735454 0.4167955965441037 9.839348900724419 -1.4184323626657893 -1.5473287061195868 0.8904889815058793
Ni 2.024447632206739 0.8792828618717511 6.904894316059535 -0.44639878751719897 -0.4943925417876582 0.9236842373109254
Ni 5.440578874515724 0.16813905921184064 4.672755600635726 -0.3458370293420367 1.720363177543179 1.1898934304169895
Ni 7.460472120812578 2.0290112562219167 1.5244139355331643 -0.6346397914779005 0.648275122873148 0.17350138375768184
Ni 5.297221956565252 8.212389224997569 9.444903976128336 2.380867238382351 -0.42367589199838646 2.4435805582511723
Ni 2.1126900139739058 1.8003589120930272 3.3834976353583444 -0.34901954083507636 2.0455254521446835 -0.7762895779426243
Ni 0.28588240642449264 8.954467747044575 11.924853018439487 1.35623429187049 0.02399841979712641 0.3187160047555285
Ni 0.4668328700578897 2.481909368254514 1.2776318097650299 0.21402556912397333 -1.2921048083804327 0.5707257664327591
Ni 3.278446521008958 7.489692247857129 9.862699135665238 -2.4164597907749803 0.6385170150451196 1.7151417812432397
Ni 2.430998169979927 4.761190134993006 11.061273087946276 -0.6231346190517785 0.6164314959999899 -0.06739478450489039
Ni -0.04500435374967874 8.171750799809779 2.583816755372392 0.7413871096384844 -0.6910752487578098 0.3689792717864549
Ni 6.984127697544108 9.097649140994463 2.4214450452955223 -0.6980699349080881 -0.03430854347388285 -1.1974768991912021
Ni 8.88153290574937 7.173111617541064 10.05032874942611 2.6395520980869125 3.313724657552112 -0.6581131920094925
Ni 2.747467943032465 5.427700955736051 8.89116824957089 -2.1854443719612298 -0.7190992447745616 -1.6981043661449788
Ni 5.406056075032485 3.380268917558132 0.5060079793671285 1.1847975039513208 0.5169606568961613 -1.9029572676307482
Ni 0.2907582783986039 9.125141742349056 5.740528143871212 -0.22427090100106536 1.6734911955819889 -1.0738217495316862
Ni 0.17023333768196383 6.003419677650819 8.092908190179138 0.07630442828969439 -2.5038032504876555 0.9057603058426529
Ni 5.130991489907128 5.579972645295119 3.3520344963484394 -0.6677388880247145 -0.2927553190257087 -1.1194310627303687
Ni 7.194848879297571 8.032042933450391 4.448782356838188 1.4562728305523307 0.9564033248105014 -0.5148248415000811
Ni 2.5879720551335805 5.964416397100045 4.107676404587924 0.17045616917345482 -0.36167785302903516 -0.020100884514933123
Ni 3.498784570373353 2.357749233104731 8.053103042088855 -0.9888377911901228 -0.34942808912740464 -0.565723171011845
Ni 4.38674201311606 3.4172767673654265 9.886496494902278 -0.6678697571756239 -0.5393837617863678 2.717241836759907
Ni 7.091234290321383 4.000469116462944 3.4137025444272235 -1.077624668217544 1.3205856894289452 -1.014555764781517
Ni 2.0070522799383577 6.668147544072145 6.351092075143975 -0.5961812303913862 -0.4490434242288976 0.7333706670919111
Ni 9.18620561834162 4.956354347431571 5.98387738971214 0.7052782797310693 1.3237376047943654 0.7040377224557488
Ni 8.135620570005404 6.127191812378258 11.717077868464242 -1.4408107303609896 -0.28831888052090987 3.1598474757832613
P 7.56409594789406 4.06193946908844 13.175536351251733 -0.3746462402642451 -0.9598074653960439 -3.11922764537937
Ni 6.857177654595572 7.82796394940323 0.1576159334715789 1.9426666704052287 1.1584694075797533 -0.3992388420019447
P 6.174065958639418 7.205204795332013 11.506895268249412 -0.4118886695554713 -1.0267913876157606 -0.12099122967410778
Ni 1.7595819153258292 2.616305324069919 10.8962103177973 0.22514584740685098 -2.0672075651038075 0.7964562826984863
P 1.4121552514334903 3.755668564280348 9.252893652837102 -1.0578099474844622 0.8161835859240847 -1.9210292946411107
P 3.0334796829310715 8.26259832726982 0.11893321517450407 0.6172179964570274 0.0934400595287165 0.6399609465804978
P 6.113149892331556 2.769657871948371 8.698820735436431 -0.2451508297738681 -0.3894491096050325 -0.4557480899425828
Ni 3.6052814482012323 8.317528101347248 5.929064015761416 0.13756198954859533 0.47464929772246 1.382548761395303
