# total energy = -381173.40553158283 ev
CRYSTAL
PRIMVEC
9.21722165120186 0.00000000000000 0.00000000000000
0.00000000000000 9.21722165120186 0.00000000000000
0.00000000000000 0.00000000000000 13.49033557757285
PRIMCOORD
 96 1
Ni 3.374793606157017 6.556034770800703 0.8691812547728324 0.41707766995557843 -0.32282411338663114 0.16761355751833715
Ni 4.439410380866018 2.561806987803744 11.689483522116305 -2.8155129991286802 0.1517141126792613 0.030717997909147095
Ni 5.441847777011806 4.799499586666358 12.09776865921952 -0.3064233034311046 0.2322415779113678 0.28084108408662606
Ni 7.121787847618088 9.031033963272641 6.706639567129436 -0.9413747126121529 -0.1076466900464017 -0.2127274191378401
Ni 0.26699618689274845 7.870198609728568 0.4987798211728306 0.12148693836360368 -0.3801841393633388 0.7471234979016295
Ni 6.614960470052797 7.114819627903621 8.135643538184882 -0.24398946247591527 -1.129562751847732 2.884341944976936
Ni 4.56007303203279 5.056660076128806 5.111285941390426 1.0797424858914952 0.6226666782764244 -1.2257366653678436
Ni 6.254493358156831 3.9766228892739015 2.9437797217073713 1.3671041447054586 1.6059259469375053 0.0718402218707537
Ni 4.86436117678633 2.6444301644181305 3.986192208992895 -3.141281539855616 0.14525035933178854 1.1202350466889028
Ni 0.151052753310378 0.829055001194846 3.943359779081354 -2.0321215200339515 -0.15812927217698575 -0.04828583158958136
Ni 6.994451927835876 3.9116322580481055 7.611382707222843 0.07211404435743064 -0.5719529539716408 1.1025425145051466
Ni 6.91980164811701 3.2719478448157266 10.438700065757997 0.3413753940262572 0.06418321954612817 -1.1621013479053854
Ni 9.118136709703471 7.209406758472211 11.679082808986935 0.31995913313401025 0.02863746123103455 0.16834323659551007
Ni 1.272124090094955 6.198710731553722 7.795201762468348 -1.6000499477727024 -0.9128730056280343 1.9127878805679253
Ni 2.633480104866826 9.063155981400836 0.3987388604388315 -0.20769628447183586 -0.5807957490742514 -0.37891889949767
Ni 0.18481451520471498 3.460108211550007 2.1020104847001777 -2.591565028684672 0.5594224256047979 0.2102607027649024
Ni 6.0745271016423406 1.5949111990904723 2.580418402152223 1.6285220870704664 -0.8894181170392038 -1.8193493637011056
Ni 2.3926064464036663 6.185327325435463 4.184769879855866 -0.8065082676178498 -0.24806311832465663 -1.073705792779112
Ni 0.06651239455232874 5.257070130694469 0.28585923139758357 0.15904432779208738 -0.8186523591795515 -1.6163769670675001
Ni 6.3882721160083715 7.59432715992172 10.912737176611365 1.3965623020655755 -2.3391719155260935 0.035734734397448134
Ni 1.1358105962361684 5.365695090132282 10.679502751612953 0.36998894399789184 -0.4750061668412464 -0.09141942955426191
Ni 9.23224591613878 3.5297443225854472 9.210971646399415 -0.33081947288728186 0.6375626215516504 0.17816536489225446
Ni 4.753625473546121 8.114713070820319 2.003543825457225 0.7849693651048094 0.7579103041044883 -0.719652031954238
Ni 3.4665141807319566 6.949269106353978 6.326211639606952 0.24689480904816838 2.057033709894599 -0.35292941741244377
P 8.14719456060045 8.037887526746143 4.920829564694674 0.1855886539395191 0.35839506851270536 0.08685495011203107
Ni 5.11725409253476 7.932977107711677 12.936381919467145 -0.450294008806547 -0.9485203225179987 0.3318900802436413
P 3.9399844324418862 0.325119066122184 3.4592187496420097 0.27756189911472195 1.5107673620557853 0.19101111050667102
Ni 7.047312695114267 9.11469868595546 9.303731923598418 -1.8096984708749024 1.6457093974830301 0.16324036815130596
P 3.8314239935569865 4.34087827934797 10.498448862920807 -0.798112844465303 0.4496170373441805 0.09565840733627397
P 8.84527007421794 3.4965438895014422 11.844542080040318 -0.10906696743269603 0.18975744060522803 -0.5847447064196704
P 0.06039400269192828 0.49546807336409016 1.69001541580454 0.4365951711632158 -0.4492812512713165 0.5649407843198657
Ni 4.960625841730625 5.202817562917553 7.360084370853516 0.4369109026314217 -0.35582062291730976 -0.5436916451331023
Ni 4.174138736180383 7.565053263343486 4.222771563798688 0.969169623337234 -0.26437702499333177 0.06299511277529796
Ni 8.98014568146898 5.785733106809458 4.294418872640605 -0.9160825137042674 -1.1398332805358045 -0.9939643137834108
Ni 4.539168372889391 3.5623364190277136 0.7882540469778397 0.46487833437862514 0.29158546708732364 -0.8803804323169676
Ni 6.809794105402518 3.982743124578671 0.7249676800710972 1.2894308610926954 0.7267354211635807 -0.5078730927725962
Ni 8.900601056950666 8.424955540885428 8.219432693362602 1.0354686036747847 -2.4804126394778567 -2.8800044939438463
Ni 7.889748337260822 1.5266115852224889 0.4371055463666968 -0.12066932755831476 0.029562029927832956 0.5761484801102271
Ni 0.8438956500867272 7.134240314330051 5.707248462803267 1.0332960215034979 0.9828286088815654 0.291056334056731
Ni 5.444723550227301 0.708626467462926 0.4828782700466437 0.2256659815763791 0.8228699968053247 -0.6396259318385822
Ni 3.41108180855894 6.666208223508396 11.624420074837937 0.08182355833571069 -1.4524948515671372 -0.5180389775620046
Ni 2.2401628143169487 8.360278295202345 2.568802859183744 0.7673848192538268 -0.1042716029265817 -0.3630166264451168
Ni 0.4789978196500956 3.466412791291667 4.426597520779934 0.075049987057303 0.3057329622322993 -0.3980882733372692
Ni 4.342528162058141 2.9722314420970735 6.240885973547749 -0.15450813048463066 -0.09434688761370202 1.227640567258776
Ni 2.306554463263114 3.6109203953702425 1.5989557160358532 0.5481540517798302 1.6224581402645737 -0.4116444147551492
Ni 1.706264456194266 2.0278625435718385 5.753155757922143 0.934628652137571 0.8108822283158292 0.23252002838373506
Ni 6.482997504904629 6.633192134861281 4.076253683635819 0.7431210616104558 -1.1929293890298358 -1.8594495741561008
Ni 8.170790648522452 1.5634804726006175 7.951473306787101 0.004419726334250453 1.1120769363581429 0.2147945860795139
Ni 6.411831335042996 2.508227277221478 12.44903053165935 1.82514154490285 0.6776828866113038 2.0545531095645906
Ni 6.441013059402785 9.026895430664446 4.036807661029959 -0.2293010072258051 -0.12207726364943494 0.20132663350006616
Ni 2.689871068111674 3.8683942703754046 8.234110197427835 -0.3754581946425792 0.15299889292895585 0.028060762791958127
Ni 3.1727428861030265 -0.011763940240176437 11.623030117783781 0.37300304823386726 0.9387257050250801 -0.20358971850263
Ni 0.8505689187021684 2.504383695712308 13.576404604741217 -0.13654588957925518 -0.21402479779302497 -1.5445544858085594
Ni 2.167402065076211 2.819916851116179 10.369373653376531 0.5619516197845548 1.464339409610549 1.4141108524723
Ni 4.963925607150968 3.2014453149268998 8.854274378237863 0.19250852098780394 -0.4282964214895333 -0.5616615993479617
Ni 3.490073399766581 1.7280170997473618 1.6921869932711118 2.5920342550116064 -2.0332443207844855 3.3469834196052424
P 1.8120965974131844 6.577510897698462 13.016231634028511 -2.1026823609716496 -0.436561489711803 -0.5289759361894826
Ni 3.537496006156699 6.437556601211085 8.584885400554274 -0.4942272198543876 0.7455373843614322 2.15171406958832
P 9.013742455092299 8.766204745235543 10.104773944163362 0.902757257350271 0.553260262658144 4.083189756373735
Ni 2.546340489548619 4.341505050433398 12.576972944638932 0.3909601469329202 0.042038565128288886 0.046713087785822775
P 5.683256034341949 1.399266448218432 7.5392229208463695 -0.44173197816914894 0.22377236409809204 0.5861888950653646
P 4.506576276447125 8.01528689878335 10.33245038438952 -1.3271463733655982 1.139269694722851 -1.8715928943868543
P 8.281342007325772 5.484698641367037 8.373329881334202 0.5775109076753925 -0.32203838426054215 1.181778514619339
Ni 7.799696079839742 5.986438112474146 2.024669697924893 -0.20805855290726105 -0.34502713184623157 0.26243327100339964
Ni 7.4615530792512335 8.719473430483765 12.662649786850412 0.477910484972235 0.0287395340265376 1.384698460748454
Ni 5.77947461317702 7.189119653192396 6.059602576031673 -1.5828014451049 -0.08478444073624754 -0.41996861835012833
Ni 6.98569556708357 4.452047192014872 5.376587081185965 -0.7635749585894334 -0.5258301914716492 -1.5253159492939214
Ni 7.37584213331893 8.325584672179525 1.8153945193891579 -0.611027037154967 0.8356131554036059 -0.4691098559614695
Ni 2.2969501181011114 9.154609256542285 4.860757243045119 -0.12944193154462222 -0.8790378022461441 0.8617005965192773
Ni 1.84863366480491 7.830536904131546 9.980852083352364 -0.3141327562602203 -0.6069243278405032 -0.10395304324489839
Ni 6.5133221647731405 1.8446886938554503 5.514552301199291 1.682673119191573 1.4747968574984471 -0.4229824654757877
Ni 5.826970957341895 0.6060821092759522 11.45411807542744 -0.8402246860336885 -0.7059542227521712 -0.24449365580584345
Ni 4.650189810006781 8.463225445983925 7.7077847087726195 0.19295897826166122 0.6971253116066317 1.4865606829025948
Ni 0.16860050025799841 7.796341011088332 3.1550522722168157 -0.8909836617541106 -0.44724725156042333 -0.26785495623960326
Ni 1.6405180127772176 0.9396404637189899 9.438338387971598 -1.1798298755334002 -1.4664988791557132 -0.2599624408654039
Ni 5.582465713471989 5.389493956934864 9.714093700783206 0.38489928545082097 0.4865956714510588 0.2167951614493105
Ni 2.4663903072691467 5.114424405428489 6.170277445607709 -1.398826415509404 -3.631475213070578 0.06938970344773211
Ni 7.6932648192009285 5.4425298514283025 11.137526782955815 0.5875009290085688 -1.0854626762047241 -0.8514326389343659
Ni 9.127095849336357 4.424137444269629 6.311385738270022 0.8843710415335995 0.09068795070487608 2.353419169473727
Ni 8.134659138891886 1.195916099884363 11.24686607708658 -0.12160623755028734 1.9532945824327201 -0.9992327612712018
Ni 1.9183342963932626 1.9832788415098364 3.3435389286043926 1.6313227897440548 0.2975080032193457 -0.36869465066650053
Ni 3.167885410190958 1.1808182905030191 7.67961687881573 0.09224423944840242 1.01569656325418 -0.7397408322843131
Ni 7.916911490036657 6.449299341841019 6.4913741161169405 0.7813273974768479 0.044085420354988594 -1.4094903229811533
Ni 1.9670012277323925 8.344940838053043 7.4087983100240535 1.0526895955387612 1.006965354028769 0.6355427629081442
Ni 7.091573794411712 6.421647676307423 13.163775390982677 -0.37955216220629473 -0.286561531510171 1.1048187121338329
Ni 1.3648124729635709 5.828150761737994 2.146015345230343 -0.270363838704386 0.13261030197027485 -0.11913309341944645
Ni 4.647378557344199 0.4947362259496343 5.630218296404141 -0.9576708786690152 -0.44685798654180464 0.07717217560662838
Ni 0.19830023248545003 0.28679201424825024 6.297626269500505 0.456542303709104 0.3861964069956897 -1.0265468757051224
P 2.9673186628539376 1.9346026929488618 13.312182801623674 -0.3978741004439342 0.7028149057922412 -3.5429994395256723
Ni 4.2739981176440445 1.1249527089033096 9.798826699477805 -0.07376829213140199 -1.0116846138813091 -1.0230512038470378
P 2.840876813590645 3.8591125279779606 4.2363835570186925 -0.045021559016012784 -0.3157841758207142 0.5342610958478219
Ni 4.0276494294052325 4.984028367993893 2.692900768931972 -0.24122218414342328 0.3664755315279946 0.015611995505644077
P 1.1217451157014124 2.2801379054566846 7.755269992271281 -0.2809038190037614 0.23631420531884462 0.5525385540007709
P 5.507161011002161 6.104252642090957 1.4593977600877912 1.6706583541188842 -0.7138889042182157 -0.4203452849632568
P 7.896771860306354 2.6065197309715695 3.632974442077655 -1.1434137987982114 0.12125271086561053 0.5479583908292563
Ni 0.7406673740388888 0.21723885820941033 12.156061135330894 1.1882106433979276 -0.010093636790576165 0.05959020085880704
