# total energy = -340856.8877611604 ev
CRYSTAL
PRIMVEC
9.40956281066586 0.00000000000000 0.00000000000000

0.00000000000000 9.40956281066586 0.00000000000000

0.00000000000000 0.00000000000000 13.77184630659058

PRIMCOORD
 96 1
Ni 7.761600317692503 8.829726855145225 13.309525676586148 -1.251968088260547 -0.10504473364718038 -0.35167111952531044
Ni 2.993323115551007 3.207437720314578 7.954177373836283 -1.0634997987803878 2.1808138151677543 -0.3137910566500854
Ni 5.312601599256988 2.8613728144040267 12.709224730480193 2.678389896889716 -0.4490534515312266 0.5526964197348739
Ni 7.079491690405491 5.4757351919964306 2.188001907265704 -0.9611243844352543 0.553714319476427 0.012368291757365797
Ni 8.6473412966248 2.4463358121227015 6.277014992997798 1.767738067282717 2.1956575650488057 -2.203829559336637
Ni 2.311788471603506 8.309942598184573 3.2969527745020883 -0.275888368067041 0.3327740255104914 -0.027693095039894238
Ni 3.9154132361313665 7.2839332644638555 4.954807673138228 0.2540931265688205 0.9423640731086157 -0.619980389693513
Ni 6.321400842355312 7.811348676971123 11.576173149678397 1.103511820396951 -0.12130027627409433 -0.18317361674012325
Ni 3.735342430094872 2.698041620842785 4.545962163273269 -0.5371312183067652 -0.6823810634179215 0.04491665800703232
Ni 9.30395941789975 1.6838789268670606 0.4350596112673242 -0.40249025905970676 -0.7369316449702922 -0.09048663332734738
Ni 0.2553755382677785 8.363492420892088 0.5416671365404432 2.566137589750503 -0.9300903979475853 -0.6216870879719746
Ni 5.726029566275093 4.137657703277522 7.432183751496661 -0.4064960377849902 -0.17718937413223032 0.17323630302175325
Ni 2.2361544046692243 8.893382548453314 10.631644985304622 -0.8037631007725449 -0.7308718119294574 -0.8842797673713738
Ni 2.519034095418827 5.691120087757279 3.4220011612305203 -0.453194984503426 0.834587285242253 0.3065423455074721
Ni 3.321349889300198 2.3443455593856175 11.925496587236042 -1.1402798811549202 -1.9217985687069676 -0.14574838201412965
Ni 1.5045044284883333 2.1305979275768165 3.2366591180334643 0.08024335833278438 0.28555494462252756 -1.0181856482246205
Ni 8.586273233125983 6.135872489811989 7.870417208344593 0.14904736448037556 -0.787685735594708 -1.2252805516670318
Ni 3.0961696385158866 1.0677407453720669 9.068306323560092 -1.03812738145387 -0.006107655559634643 -0.4373438764037823
Ni 3.687890004174297 6.633403130412903 1.1890337755300244 0.059039213451343484 -0.8279646377194128 2.0369647070588663
Ni 2.664581215018164 8.613137535327697 0.352440825760597 0.6438777651364008 0.6761566797747645 -0.02711125439449524
Ni 1.4712510330484538 7.105019834669325 8.248757856105266 0.7355905575613655 -0.6769341813707374 0.6692028741647508
Ni 3.842799638901726 -0.03478621324326272 6.972658335621745 -0.7454453388682581 1.8791092573685575 -1.5823029082019264
Ni 5.217198040579868 8.077498164808414 13.665417930034167 0.09183877647986764 -0.01428710604663346 0.05676918647024417
Ni 1.56986325268907 3.1343254162489687 10.618699308607908 0.6469592322752019 1.199413968312915 -1.3014032029632232
P 1.887567735890001 4.927891618340329 9.070055561311161 -0.9399276957529812 -0.07704362044856408 0.4273646537038833
P 3.7251330543019265 3.7874055418574217 0.10563928124630417 -0.7749315212528332 1.1850882957188622 -1.7484673919785632
P 1.585737185373585 5.968984481458366 0.7670562796220847 1.9690446461781248 1.5438988545024315 -0.2744161543968887
P 8.18274412632371 0.3843288936174752 5.855376241355799 -0.6748029939603476 -1.1677428624618793 0.8940926396967376
P 8.302207937445587 4.73030961566727 6.16280454086689 -0.3805523213360349 0.13645410119639723 2.53909395536915
P 4.47419072192701 0.7119397646845934 13.616582298361 -0.6208311677295824 0.3990879182463772 -0.8481943345027263
P 1.672022877559124 0.35043658885377915 12.56517090851988 4.529391854499096 2.584209102540233 3.003604107775079
P 2.8663316540748855 6.712302315688338 6.634422186079608 -0.5032947293732946 -1.043715674174925 1.4579522751372826
Ni 0.4727674938043284 3.2361839351048527 8.415534831616164 1.1557023863575773 1.1455719827917947 -0.3709988733196449
Ni 7.761637955944274 1.9940839884025747 10.30438509093527 0.2826156594885455 1.9332518048492318 -0.42801051481799834
Ni 6.527357356047469 5.22581720023548 11.849916154810535 0.28680218676606734 -0.43662499595988674 0.6424554308675774
Ni 1.9985253021115796 4.576246841604693 12.619639104570611 0.9717067879367911 0.25773920796184 -0.1623155423441914
Ni 9.074271986465833 8.62153086547268 7.872249250249558 -0.025113250127859973 0.05518333004036302 -4.383424671605941
Ni 8.287152636737096 8.170850438764003 2.1709113180926844 -1.9219775174869929 1.5521050444623077 1.362190252343609
Ni 7.168440288903843 4.401285428246142 4.485339172101647 -0.48024633219426316 -1.6827479382935664 -1.848768697403487
Ni 0.3859322831429295 1.2516977009039412 11.306864871561206 -0.6803748316211701 3.4082409808641434 0.1536038735028064
Ni 4.261242902968347 3.102878656894108 9.799219530962562 1.6299554770828832 -1.597242046010262 -0.1846985380250819
Ni 6.621133060335482 7.797262561245741 3.86747904058812 2.5135726711695936 1.5252007638722958 1.618150771138471
Ni 5.814545324878078 5.939551368573267 5.402047963635016 -0.10766031689315651 0.08334513718655968 -1.659549388689916
Ni 8.960999667760323 5.812719869667173 12.645639608894175 -0.17659107842659907 2.092959991477563 0.7976767853691488
Ni 6.311426705635936 6.2052868356410755 9.712759761862582 0.6478881718473745 -0.012435397549875358 -2.2412133993017336
Ni 5.984190335173943 -0.1541305229157651 6.4460229758824354 2.254828161871691 0.04994856400398494 -0.3437156121236597
Ni 1.7322346708301453 8.616242691098822 6.282799051338741 -0.9168358469305242 -1.0190063443537032 -1.0040926604666642
Ni 6.412880613285281 1.1088228971803615 0.550583638385047 0.7324424988506869 0.09128830329303633 0.6901226550365533
Ni 1.70908714599084 6.427371340217203 10.866027788646997 -0.36294772088039423 -0.4390760286035406 -0.7367151580841119
Ni 6.1394857619820264 2.3716521110456434 5.6591134594073225 -0.1273102299136001 -0.4806934470340109 0.8435776616663213
Ni 5.90892324119443 0.8584560692670392 9.310373916957861 -0.28225801903881065 0.4424549723781025 -1.7718469472447678
Ni 4.791471774795515 4.418486109305593 3.090375229655706 0.08963996905633594 3.5661748492008716 1.299871082589413
Ni 9.301607027164048 3.626502015535425 12.24106415869266 -0.8209306136907668 -2.546516987306098 -1.415968474506329
Ni 0.4965162897156787 4.207674261134948 0.5346052595518667 0.8181448234155134 -0.5448219020828036 2.5676116031928684
Ni 1.8148224047791612 1.6788354011297162 6.84716958134759 -0.6704907397382389 -0.8616298911823418 -1.4485446086701377
Ni -0.0783195561981587 6.212466332166437 2.0364016158252602 1.1194606304167236 -1.1845871877127276 0.9249746739875748
P 6.806746098945291 9.823489616660945 2.7992659351563245 -2.1803121929409874 -2.018776980406246 -2.1562919187669896
P 0.8522579901566124 1.2797852462882195 8.760505405356465 -0.25786596334769135 -1.9368603481360966 1.1857799224692482
P 7.8386081808164345 1.8754199901308373 12.511612617205717 0.14996884785338044 0.3735908024165373 0.9328674464720902
P 0.9791403007025973 0.3984460609005684 1.9355781488930845 0.4079160580609684 -0.3804983281696479 0.775599236743819
P 6.313195703469185 4.0247241288379545 9.98348700207155 0.03044391831215402 -1.0703276203354986 0.39190605578595733
P 4.746484654365955 2.0401626181335 7.830850937126385 1.3578903394166744 -0.9217803354199933 -1.2967852445752377
P 7.1680544968231885 6.728317391816995 13.867836448059828 0.3206993537341445 0.013415502074957541 -0.22613057991762345
P 8.718985708871331 3.9668082689249777 2.5130176208731965 -0.42794777990086297 0.18427430600346975 -0.35754866135201
Ni 4.900519199739703 0.10888746237416111 4.3604008772596465 0.17412539049492592 0.747694539913751 -0.8727383423906776
Ni 0.3591131468433414 8.561563720838173 11.962239989571408 -3.53674754507869 -5.923537833813695 0.11894668844025322
Ni 4.105401721509581 8.247670110629077 8.750879422465974 0.46519843672220523 -2.5094990153208525 1.5709607437162298
Ni 3.9447616629499813 5.437428861256263 8.801504753010864 0.8030550189619267 1.0186728722736842 -0.25758828420627256
Ni 4.333734175879732 0.07947599148382967 10.697818677656205 0.4711680240420789 -0.5210296847592124 2.2821556460420505
Ni 2.172526940049964 2.2437479219640695 0.24449808350589372 -0.21712246288174217 -1.22452156201382 0.27899888867156464
Ni 3.7260457819073785 4.596195115043444 6.13896541315129 -0.3612487359114166 1.1056458360208183 -0.734552088994522
Ni 1.2536266613072164 4.743605328105456 6.506123736310731 0.3406143474905166 0.7807213884617329 2.1157811031371367
Ni 0.1712455769524365 4.777818498965503 4.509288391703679 0.47101812872777593 0.5095247694434063 -2.9158490144462816
Ni 2.726947798203088 3.8358836101387634 2.027229173868612 -0.3696325890997376 0.38856979232387273 -0.11731892302884311
Ni 5.071801473987617 2.992419797508498 1.4619779087683176 1.3723430245068946 -1.8910144934465758 -0.38143935192667855
Ni 3.524897554878996 6.531431696801705 12.56554258625612 -1.2797941093338798 0.4151873949114011 1.970696579959251
Ni 5.616455205806107 5.058477532860603 0.2350574690053756 -0.6174900191714914 0.6558650194052641 0.5331879173883011
Ni 0.4645388310108438 0.22489984580861558 4.285702120881879 0.7200353834355857 -1.5663607830503734 0.29893496547385934
Ni 8.033809564064963 1.4461557286799878 3.92632550627614 0.4115670245499944 3.219921815367339 1.1722662042535295
Ni 7.833734027212061 3.8931219815198577 8.444758111247639 -1.6043233783370758 0.12394825541990265 -0.9426826327902991
Ni 6.329831810752068 0.7145838518715222 11.513387840942519 -0.011416469367057758 0.12227883813727973 2.219319941662752
Ni 6.834626633944827 8.31918278899441 8.430325723605963 -0.21894948878815196 -1.3263765850791094 0.20933407718557495
Ni 4.2042585897867095 4.519714187444309 11.395693027653891 -0.11666611993619264 2.0785520435823495 1.1142091522097972
Ni 8.55022519749209 4.954755920542042 10.436181075249987 0.5217084559937918 -0.4343040611361939 -0.037576158481561095
Ni 9.208951060866228 9.090945732000487 9.888626375176232 -1.178000278523829 -0.701794692057843 0.4146227806571827
Ni 7.803388186721509 3.6005316218132775 0.3383932892432806 -2.854093687615355 -0.24352717812751606 0.24708661334400026
Ni 8.085195187295632 6.96403635309725 5.741124387147944 0.5183166567034234 0.6647355824220165 -0.7145296231260082
Ni 7.882014494671602 1.528141250600664 8.04439720428821 -0.3343673381395403 -2.3591365315734785 0.9487692053040111
P 1.5380024725647259 3.136621349607013 5.125330595656656 0.7182116999632856 0.1351623789681672 0.3547471873474729
P 0.6736927141909663 7.07841900023001 4.47808157620386 0.4273607970491414 0.24803277930735348 -0.8141141049895656
P 5.670945984807902 6.377143093228501 7.332819707776915 -0.13406246103576913 1.364565694554321 2.7495014681245618
P 8.544852337051747 6.909959594864939 9.704800212569262 0.2323001990634451 2.795672053143353 2.3535472104111594
P 2.927399717573703 0.6712151762681253 4.959118193922327 -1.165379247325709 -0.8563971820284928 -0.26682728630603725
P 5.0753300600911695 7.006661673228165 3.0576939356427495 -3.576381357420228 -2.6293399334406007 -1.8681902964632082
P 5.714164107404214 2.6178250967553565 3.561799037871802 0.8713931412166928 -0.8824830804822673 0.41225608019721904
P 4.661902093073064 6.716113188680175 10.960888415542316 -0.5747094336708554 0.5807106455596128 -1.8614426933267296
