# total energy = -340897.4091285373 ev
CRYSTAL
PRIMVEC
8.99823016353178 0.00000000000000 0.00000000000000

0.00000000000000 8.99823016353178 0.00000000000000

0.00000000000000 0.00000000000000 13.16981939937654

PRIMCOORD
 96 1
Ni 6.311574706564223 1.953497806812541 11.374549574474969 0.7401632645337124 -0.056606949860767024 0.9891362962671479
Ni 4.653911718103651 0.25611213058803833 5.964729820330285 -0.3417052665618502 0.5639653077804739 0.282622601467081
Ni 2.790162260539599 1.567365747162338 4.85281489993973 0.08189837743770412 1.258690237475729 -0.9467424046819695
Ni 3.1791827521237064 4.494508067919476 4.83375844776022 0.2631884040018693 -0.228594982297716 -0.5050865311663947
Ni 5.112812466381539 4.702124236177985 2.5676144288819582 -1.510844495150624 -1.0754826821738768 -0.011333422734948223
Ni 7.145791641643237 5.930949563872119 2.4499553688154467 0.7352352311044758 0.770150554924422 0.6590968960790005
Ni 5.115682901854797 4.5311668582581905 11.366252306293495 -0.4644633583283937 -0.24193797926352528 0.300841695578269
Ni 5.521233142543523 7.93992146063021 12.392523870109228 0.7386373148074893 0.09241316092609891 0.06279019585334349
Ni 1.8141692084805183 6.478122951625409 0.24106978895592507 0.7740601743914735 0.47985681006532843 0.550245129980904
Ni 2.6039888751424445 1.5808900873388447 0.3067109793442142 -0.38528032293932357 -0.16403946701383362 1.051479891501376
Ni 0.5092935375596507 -0.029194758285213538 4.7541996945302785 0.007193175314329546 0.44618872838892193 0.24118027516189433
Ni 8.4446681924073 2.2776050648415453 1.4500495196711594 1.5158884853324346 1.1504413950689543 -0.06583155378282857
Ni 6.840922600046283 0.590764414733376 4.905652508400442 0.2702882482714442 0.7277561491186112 -0.27768119830140564
Ni 0.9128884627990396 7.3230927719412335 2.519768138781799 -0.71216986464458 0.7063784547737836 -0.30732061843439334
Ni 7.542964529900608 3.7329698391649093 3.854950749255889 0.0021183318945834488 1.2520969005289275 0.18405781911728947
Ni 7.507655474110447 3.906572696799868 12.546413404751046 0.5056735140181162 -0.3890156216120397 0.10186890702236004
Ni 7.9935869062807 8.340027771973105 7.036357863915612 -0.0474939318159053 0.9718178595933584 0.032895722286756246
Ni 6.959546270403493 0.6925442977476707 0.566145256567759 -0.536522895298805 -0.37609659955752645 -1.4106974559153769
Ni 1.8476696199756177 6.501059440720495 9.168907856647138 -0.041118624417180796 -0.22550914428354063 -0.5548594888244637
Ni 0.1523472379643376 4.872415745053826 1.383871134932546 -0.40398201311388493 -0.8643820000061823 -0.1306799177167814
Ni 6.46698314248468 1.9472710314285469 7.00318318835823 -0.5038413459053839 -0.20353264001244947 -0.4183585935505312
Ni 3.474990575784705 4.434579853963697 0.5410266966191773 -0.18933757945899005 -0.0593837412749558 -0.48193400430933137
Ni 5.878453888163709 5.672952304031267 4.679922002677311 0.8018311738571545 -0.65406550430268 0.46205500599721716
Ni 5.199267463331557 2.8128198044946515 9.381665613712604 0.23742055100914597 0.4985232761265801 -0.2829257345297966
P 0.20789331375247852 5.4874357894477415 12.372110484796902 0.2706386896323274 -0.5639686502145835 -1.3491087365693024
P 4.012490865940028 6.221493422793759 12.548441605866007 -0.8349564956562137 -0.34739897451251783 -0.5472873329041607
P 2.3251337174112785 8.580991381811211 1.368015353279171 0.3104429661134589 -0.19212645505803685 -0.36371956604941225
P 6.219297854594778 7.684794636262616 5.795155470411241 0.603085156600071 -0.8268714046552339 0.1391326764698249
P 4.585921089777846 1.019544486825742 12.659357392127944 1.4273322362585805 0.31447317031877453 -0.7762134732890503
P 3.963639473512713 6.204126838269035 8.257108179717266 -0.25147445799905077 0.4785835997798596 -1.1525946939665312
P 4.709583769116325 1.0449554892598436 3.8104634985355634 0.20903222967444 0.8021222227350122 -0.25477395468592895
P 0.11694010146364821 5.599661718044809 3.5596972165828293 0.3247609253980278 -0.6477835279487101 0.35292710341959865
Ni 1.4153766387648832 1.083287950438765 2.7122456843437313 -0.5341973324894219 0.5480990301721785 -0.682347896187141
Ni 1.907255901179096 6.673375551419166 4.7541466049713685 -0.26235150992287076 -0.7167556842430495 -0.7171938002217325
Ni 5.886300345005966 5.555246453167073 9.264704816319211 0.3011360868902362 0.5238491564858784 -0.29040430229502884
Ni 8.569842574440157 2.2243985289375643 10.201105654954054 0.23399866981179057 0.4935206807056661 -0.47658533840290823
Ni 2.3865466393704655 5.121036848897392 7.032868350196084 -0.08140446852042109 0.5132335857535614 0.23675412106974061
Ni 0.6190359545873789 8.794717348459505 9.258370062171334 -0.7471024148557068 0.40251442742942295 -1.1636650928480798
Ni 1.3457573307504904 0.9559180002069271 11.384321652606497 0.8759581348795559 0.8183674809492809 -0.5477244204415793
Ni 4.069494655040607 6.961696847450854 1.51379208346115 0.1022651140195142 0.4475375291073324 -0.08043413418735179
Ni 5.62624249042099 7.844090307682907 7.918986177959112 -0.8491227598542667 0.1294452739787319 0.7981141300168835
Ni 5.0288319827705354 3.0788794787055296 4.710067873907739 0.634860649239455 -0.7866328688501614 0.20550596168873642
Ni 1.1466984795298112 7.385288539938581 6.829947458520477 -1.0423146800623404 -0.3140995890294397 0.6564093219445082
Ni 4.988618891453964 4.554166334965543 7.204667962474176 0.11907910025305944 -0.46421987485901983 -0.7772092615434163
Ni 8.137081685252591 6.880226870100162 9.31190503348213 0.4934232358958535 0.43734181952125323 -1.0168826131424809
Ni 4.758543140307524 0.35510346202502124 10.440440585103572 -0.967601764629482 -0.271921412999493 -0.5397033499093156
Ni 7.9518621122697475 7.210092995536328 4.5824783668560025 0.3504207920579771 -0.5427953585710781 0.21702733206477462
Ni 7.121118494095677 5.97855020228444 7.059102690704803 0.009263684690113077 -0.19628135776667488 -0.8902928063346731
Ni 2.2800795781805605 5.424637140018706 2.4670097147479377 0.37105672314077387 -1.2964913674839027 0.7724599197838891
Ni 2.4423986549896117 5.081039715108588 11.344548574752753 -0.30619884612512427 0.35486005877625343 0.5874569631445108
Ni 0.9655011155016574 3.3058418421599725 3.774588454058042 0.6637732185087472 0.25338555897883464 -0.47390907712232583
Ni 3.5667545286257 2.586442326011248 2.4809173795362334 0.1682236802985103 0.4206533031219788 0.753324998726651
Ni 0.9000659845877808 3.291705622321455 8.103601069864204 0.4014258223509345 0.17657925135205718 0.13686264948872556
Ni 3.515860537914907 2.6324862705775716 7.225424180361832 0.6768930437201568 0.7749721446827815 -0.8346538768141302
Ni 4.183790176612122 6.7706824141395545 5.904912284607487 -0.9905835702366359 0.3432597555331637 0.8719862947160014
Ni 0.9133563707758714 7.36175816764213 11.267689290619918 -0.06791646133631529 -0.6933280493477285 0.4386502539200317
P 0.1560266143436946 5.604997668626757 7.808438419317414 0.6182340964263676 -0.40782581234000737 0.7150548995018587
P 8.637941181529847 1.3217950433985028 7.971454858976551 -1.0582766027082355 0.9947996652005126 -0.16372553531784062
P 1.8414608410522715 3.2007875031308872 10.333843949397005 -0.04816550396163318 -1.0559276428600848 -0.5058072113825031
P 3.957322715825482 6.223527022846912 3.6912765389600897 -0.2557239773040241 0.40981558907652643 -0.11392532396626186
P 6.959015374814395 3.8892601016570882 10.330301346118569 -0.058542219210266914 0.23578738628109716 -0.06470361082597245
P 6.333053482346871 7.842569606758204 10.12041402452636 0.059982294090903145 -0.7433043812658553 0.7309993386462572
P 2.493274649239758 8.641315517901232 5.6120819753605975 -0.17358623016200428 -0.9573034680272674 1.0812897757739572
P 6.858136214655502 3.931857724009438 1.5629017250987551 0.3759806428049525 0.09066815321053417 -0.40539920517638567
Ni 5.17945336015879 2.830888250984622 0.5643186158120499 0.6221270037228704 -0.10537486329308948 -0.46047634865618764
Ni 1.5326775692645114 1.1904928665152124 7.035054020341709 -0.2222772676098043 -0.9163704772583315 -0.8220063632534489
Ni 6.845007796613237 0.7468612152735954 9.05286847803889 0.017206593686273593 -0.39301522968973607 0.8781044917985975
Ni 2.7442172965068354 1.5063667437980406 9.179021867530965 -0.1408442598442929 -0.15241242429786653 0.9397376912293623
Ni 6.388266623613036 2.047754269453198 2.6675073829973748 -1.0312633073441853 -0.7057300225565071 0.14955155781030371
Ni 4.011851991587046 6.76584136622541 10.385561278182417 0.5094401801494 1.0721345916372502 0.3787648904183089
Ni 8.165408114311568 7.009882370834217 0.23933672979558226 -0.7029321480963959 0.7209535243744809 0.9957484022670269
Ni 7.5327965296348385 3.839265933978664 8.174362253306674 -0.014371181120007508 -0.20391907681759075 0.12925501234479675
Ni 3.1048753661106714 8.439692171038299 12.40611479719013 -0.28400354097500763 -1.187041048569859 -0.27545719406689334
Ni 0.25933529668998423 4.694340766947993 10.08654108629586 -0.9345872573766744 0.5738383439198118 0.49120823052240564
Ni 8.582152153522967 2.45687680758043 5.778969453704987 0.1501393119929737 -0.47613642379094767 0.5007953599902085
Ni 3.6603271257617567 2.553769751705928 11.495316623295283 -0.32062273485993814 0.8857602085716424 -0.7226427391514457
Ni 1.0190045930063205 3.267050471234543 12.404798356093774 -0.06602721473340241 0.7523968304854268 0.4958102480707913
Ni 3.0374516262952587 8.357556324643653 7.817868564696641 1.2587110634113354 -0.12272775274924025 0.6277991144069834
Ni 5.584220754809356 8.01889892818124 3.51929156313733 -0.14899080021082728 -0.8487851740091897 0.08802223094725486
Ni 3.058138557809423 8.38015088098644 3.445803915906783 0.86243361803056 -0.03430957191514736 0.02047369447331958
Ni 3.3515708486649674 4.324603482947554 9.16207190107023 0.07289797371130671 -0.4637169670806724 0.4383406930994128
Ni 7.2126214982572865 6.157516005192319 11.332774390374205 -0.0861386407712968 -0.6631019034733354 0.25111373222552236
Ni 0.4825399991612544 8.952258364966676 0.25235626925092997 0.3405238446592394 0.10262532557241036 0.8099106084311795
Ni 4.792511459779456 0.4527351608600946 1.575136618869877 -0.9059590521170204 -0.5483810801889718 0.39532896542457724
Ni 5.8970532302427765 5.625783580674482 0.23701068725690833 0.398215800054069 0.13757818749851145 1.0077495404929613
Ni 8.064303998394582 8.798199663594774 11.34262565293258 -1.3684094937804434 0.010175397871105055 -0.35794152591505457
Ni 0.32937302241442856 4.868492516632697 5.663140633686314 -0.63706588442089 0.5196492594719179 0.051679687762478735
Ni 7.984120767980177 8.648235157020148 2.5231136808161474 -0.30868973086777807 0.5472343681790381 0.29601213540010957
P 8.332649223107678 1.6015860170833327 3.639374746453043 1.0619077717029195 -0.27933955984043507 0.18383361892162534
P 1.7854378590569748 3.304753056290806 1.4390923746060016 -0.45034928752451475 0.006900326664259083 0.8034399131051712
P 4.743273143448221 1.109616772365883 8.178642711471651 0.22361809790841486 -1.346118543592727 -0.4802293629133987
P 8.495661163651654 1.6890578140599268 12.43147990864958 -1.081789341118195 -0.46797857057050374 -0.1542898438262375
P 6.288404263480721 7.675013559900765 1.4034809782769644 0.29455149169418304 0.026503702717483386 -0.4801370603099086
P 1.8251920406270392 3.2215734151786117 6.000591367462321 -0.774279489491131 -0.3615899213009192 -0.5413925646862805
P 6.685352195979999 3.847139385511893 5.962437971066841 0.5775731283718957 0.8064954121020433 -0.22119149074479325
P 2.5192795348752224 8.492295825510594 10.127473136215295 0.48066902155397867 -0.20466135430025398 0.5525742923347129
