# total energy = -340863.1026651776 ev
CRYSTAL
PRIMVEC
9.37624914678865 0.00000000000000 0.00000000000000

0.00000000000000 9.37624914678865 0.00000000000000

0.00000000000000 0.00000000000000 13.72308839211157

PRIMCOORD
 96 1
Ni 3.275555125366239 2.9086249922715925 12.377429881050245 2.2691985716607497 -1.2973205482534174 2.765700189371611
Ni 0.7110000332077923 6.202070000960379 1.6925779882947354 -0.13262547147892645 0.17629051646704477 1.7543899281105848
Ni 4.8902014814682655 0.5927402159214722 0.7859340785565709 0.7901488524232199 1.465998285370211 -1.3049916916454298
Ni 8.487071287956303 3.96500009947015 3.9159932581902965 0.892465645616276 -1.3078831542606122 2.2589938632136066
Ni 1.8279841523483211 6.247891730413886 7.050305504425231 -0.09922478453129363 -1.2932093542985212 0.32262022490594117
Ni 1.1877551098796584 7.61902752059878 8.845285259868223 0.1559268652090282 -0.18432135719132126 1.0944671936961796
Ni 3.3022680591114897 3.7111850357692235 10.114218059386223 2.102329348507605 0.8533298559570787 -1.6517484045882584
Ni 6.892236946246594 7.700403986718483 6.715379322454722 -1.2087645562898794 1.8653014049511878 0.662763289186994
Ni 3.939899880573683 6.4682242085043224 12.221411908554334 -1.2197310826037122 0.5819871982791913 0.1575929400575415
Ni 2.468578868532697 1.5598515562398834 0.758014421549469 -0.1706898824508157 0.2105023864620633 0.17592799092130346
Ni 7.760168198614667 6.919437444946129 8.960435912946076 1.2304721231703002 -0.9139541545073551 -0.5712559279046161
Ni 3.8206714967531807 4.329511160291623 2.0239083787274064 2.469755159764011 -2.7844556156022433 -1.8866037659733894
Ni 8.584978081276033 8.024015848874885 13.21077777616104 0.8403216166228689 1.1481587696823645 1.285280843480064
Ni 5.517669448883477 5.36358017083172 4.915294199365437 -0.02051843166832595 0.20192930008107157 -0.8165990761949485
Ni -0.13965454253023493 3.3808691554914265 13.44993026148681 2.9583881733600728 -0.6819303490337482 0.7333778661807628
Ni 8.217972938188419 2.7454876338182332 1.8694281110873117 -0.34556783484105 -0.24861153462895894 -0.7609866290369669
Ni 6.462673469024789 0.6059522885576367 8.289939400690455 -0.7122850500662056 -1.267478010970688 1.9120378897757784
Ni 7.585273023763785 8.71227941558957 11.292180614684083 -0.9573618320690287 0.4578813342355018 -0.7085062997500636
Ni 4.951344001985213 9.027405772291619 3.7207544356219446 2.392675029650557 1.8233795679064209 -0.031284411935578384
Ni 0.6077609670130453 8.789924134559183 1.7503113046313474 0.38550940823099417 0.9109001981723797 -0.5368715368874754
Ni 3.1090516934785013 6.262640570280956 0.9848783947774761 -0.3075414761959478 1.2286057593855229 -0.9183623108773796
Ni 2.0582835832542012 3.540884222987548 7.624314787478018 0.7046717564953219 0.8223578330555966 -0.732380792374816
Ni 1.9484220723054104 4.498508674445501 11.734420780717254 -1.6013475835382034 2.669291534132874 -0.3587519376314918
Ni 7.36359974204907 0.6542840399007904 4.076429319271944 0.12672453261345917 0.4044941768636131 0.7574891574066696
P 5.203780757065378 3.0512002364029667 -0.11799915756076092 0.24100801125008817 -1.0238495313786173 1.495976834010172
P 7.492063731253592 6.082110269708453 12.920973855459623 -0.20298448081846332 -0.6439546411209233 -0.14689406558279866
P 6.815426713448738 7.701904186577816 4.655351756864046 -0.9606014220522489 0.7004461484497485 -0.4223857124320532
P 8.27589940525692 4.971193521374015 2.163252567411742 2.365204849254746 0.5743191402109722 -1.5691123776535816
P 9.363075490817412 1.8149699185686061 3.1970402904782147 0.8053867524188968 -0.9919346849478917 2.2769327070802143
P 4.00432408828292 8.307028552338084 13.706319105571405 -1.214206039020425 -2.232994353826051 -1.9393077812353245
P 5.43985595742969 4.824539608875078 9.672060404345316 0.5103629490739855 0.44421232138884137 -0.4163104527722507
P 1.3478264348705051 7.766487790522109 3.5292211067061454 0.6368416842252258 0.6719814653511523 -0.544362703058198
Ni 6.060122965520101 2.7782294957481795 9.942884921576345 0.18523461303421002 -0.554729905225135 -0.9287541956346651
Ni 1.9285350479201255 8.273264679253968 5.696590785106844 0.21884407355853927 0.6020790839330599 0.511429442665287
Ni 0.26078724254717794 5.935850159672591 13.217584933022763 0.8138760208368306 -0.7057300225565071 -0.1880664260560503
Ni 2.7516759582379824 5.475223169113469 3.52959240617133 -2.3177222302927505 -0.027968460188467964 0.8109174524291389
Ni 4.312671416870607 8.851038526328766 8.259556603039309 -0.025003464022873068 -0.16316092106362223 -0.7054623707174172
Ni 9.170243551398377 6.826518816158682 10.829232064842644 0.22851939186477419 -0.7152803852491036 0.5742641186033206
Ni 9.16588359555719 7.525818228088588 6.8422080938125704 -0.05774774833342958 0.410698505902112 -0.6900398655147599
Ni 7.86452585132953 5.861609019133843 5.179847881184453 -0.46609138085011986 0.22269867141793906 1.0025849655728862
Ni 0.7248103105378659 2.6954184635129894 5.679629150447259 0.31490948652524475 1.2764498754519953 0.05616626277892263
Ni 6.287271976721382 8.008601295320236 13.356064631538157 -1.3730346512572806 0.41629091238822497 -0.21055920784192766
Ni 0.12831303159367632 0.566982721961634 5.255696110822513 -0.9951933010945055 -1.4093936495022887 -0.44002527989068735
Ni 1.91889626382391 0.5247802246687684 9.081925848054523 0.39182480892606064 -0.06054639412448928 -0.44997904866928956
Ni 7.866222952420401 4.315249885378837 8.965115598882283 -0.08748795571033965 -0.9627102408651356 0.8975754560390153
Ni 3.597376123940562 7.473648777980277 4.201076237459375 -0.8914878550840388 -0.47898314921112345 0.427658016574586
Ni 1.092107992598049 4.731827257568289 9.376986094013079 -0.6120017423634104 0.7630987902839631 0.46668324879784795
Ni 6.393654899246344 4.370354101461967 2.6935675919365374 -2.4920124285003147 -0.16106032978085164 0.5750740160991257
Ni 3.9322019800454795 3.4209619967321045 4.385830538260813 0.28064208070194246 -0.2992193294834976 -0.9919567964350788
Ni 8.48365833327632 1.587295837416559 12.180338311655616 0.7681800614616124 -0.4971477359352922 -1.2644731627060932
Ni 4.106506451201749 6.559680142428919 6.426906829128463 0.19923632662994073 0.5980550503753312 0.9287593378409875
Ni 8.654981157212166 -0.11047002951673267 9.07142819953884 0.017399169313053908 0.5892562211367787 0.04485572286210984
Ni 3.896403460902142 2.003751318367441 8.446972820966153 1.0189590360555354 -0.2444257786823855 1.492194227039288
Ni 8.941603716586885 4.5586666888047604 11.542366132350338 -1.5910243472353245 -0.7745162880922855 -1.8852901893682885
Ni 3.4161613571822387 2.167198093041788 6.313965220343479 -1.680939424329918 -3.7223878781917508 -2.3275016782770175
Ni 3.9438566577026735 7.169014444044439 9.972472613302042 -0.19633946469811991 -1.025660616445427 -1.841588377604964
P 4.603241377125197 6.232767840581984 2.657915342279485 1.785975159116034 -0.028290619414577084 -0.3182444644357487
P 3.9308424239229587 1.2250538288823285 10.528682962648753 -0.49315738382897645 0.10394764392825968 -0.9692840374279112
P 9.0476959753891 5.56786051042729 7.734963903352958 0.3681639749740111 -0.4265897232110718 -0.638665624807842
P 3.4879740491986926 1.6926286200399878 2.821411811074172 0.8056901425919286 0.6405975517232323 -0.7985152221100441
P 2.10142370545915 4.434356377960768 0.11061254850336932 -0.21208592889909927 -0.13295585823515166 1.838941169790104
P 2.0027949409571164 6.909236085902663 10.847840168847847 -0.5819748569840171 -0.0795771855036952 0.5772908212447864
P 6.055303573471993 2.5582064338787314 7.636308885353386 -0.4335185891204212 1.9695285277930794 0.40147364486973436
P 6.322648564654282 8.18564363121979 9.59271295853536 -2.246753612393672 1.0372884304923427 0.14053469902367408
Ni 2.8374030039497513 0.4188267343535406 12.274904347413592 0.49757813860449146 -0.14137596397804683 0.36483568193172655
Ni 6.384241145129028 5.614188557333323 7.401698255101747 -1.0641374323643868 -0.9571630857946611 0.42821903128437866
Ni 5.185403308788546 4.247197069259836 11.900236933544436 0.4382085383969227 0.8109560189765582 -1.4347290429432837
Ni 7.556478562713709 3.7085690622645107 6.500969820933916 0.3896946499569353 -0.0725308201798751 -0.8738734844363854
Ni 7.0498141889713 6.61253405872305 1.6165384831746106 -0.41050207362058977 -0.9658040492991109 -0.4505832579121917
Ni 1.7668791368278578 0.802913528089486 3.7903721477192116 1.4361637185072815 -0.5571151176278598 -0.7500049332144825
Ni 3.259756145597637 8.81749968322355 1.9092659183519034 -1.7386133820026184 -0.5943768301927957 1.8044981576208856
Ni 4.965155216940198 8.734032313549902 11.295254149145892 0.27969720029016987 -0.038777892099146116 0.5126257769662333
Ni 0.6194325219186572 8.944772888789727 11.234529809339735 0.9940561021662687 0.9527873253244686 0.2695369719277165
Ni 5.750462962055497 1.0783530351377884 6.073687585123209 -1.3250157001758407 -0.12714799330412294 -1.8445628868522557
Ni 5.592810709337825 1.569359072848407 11.881175019081784 0.4265609268556654 0.18124606070010724 1.5398146571307287
Ni 1.8756998841242363 2.1796778806216155 10.833705473298192 -2.9008553692509267 -1.0755665001369348 -0.8216752051662752
Ni 6.491524187569589 6.1985539075400675 10.969825169909875 -0.08475847259431854 1.0674883511144906 -0.03880463157202349
Ni 8.296649044561322 7.9982592925399585 3.158259186489541 1.0385133040383792 -0.7956440712098362 0.8552931503310367
Ni 5.988600937226393 1.629985899663708 2.4295080384461887 -0.3934479463517805 0.9776141545601614 0.2926753577173927
Ni 1.7623879134989793 3.4555228509914917 2.2814083083328205 -1.684464663874357 -0.6327538873090973 -0.14769470710722307
Ni 0.263773577892163 2.3046351526549462 8.374473787514054 -0.4761117412005994 -0.47800175913446064 0.24679967823120078
Ni 0.7182713144009976 6.129657229000192 4.707540897095511 -0.12815869395682444 -0.33503119697578426 0.14105689007573124
Ni 1.611711590127206 7.9989906399713835 13.426806555905012 1.5669115133475209 -1.2042543271243518 -0.2625410002258575
Ni 4.363368795866947 4.0137284661511154 6.719839604161502 1.370012576601505 2.308503025687328 1.0039106263628452
Ni 5.442275029702864 5.7214997285212466 13.806113337839157 0.09185548865041598 -0.7670860570664855 0.999227619064879
Ni 7.2136641423578425 1.1251030132542577 0.2596630302775902 -0.2712958636003521 -0.355401018881388 0.7218328416556408
Ni 7.207935254145014 3.945694402530357 0.2552018109458982 -2.1234262783872206 1.296453829377748 -0.8237418578873167
Ni 7.8630912852140415 1.2638902527408156 6.720759414200255 2.3750074371674645 0.5071958641999136 -0.0811437586598667
P 3.4293537396952494 5.248749247848888 8.470946952343207 -0.08720924812765626 0.6418859315173526 -0.4440292588437578
P 0.7821095065401835 0.6133107688676659 13.374535842306198 -0.7236557537969924 0.20481870581372466 -0.3909133528553848
P 6.165755788115397 2.741249569215617 4.31850531907359 0.22651495984023567 0.34589436494253334 0.39770337919402476
P 8.268689069683 1.9996163925051544 10.045424519586676 -0.5275322617644205 0.2199643032059115 -0.09060876072750847
P 4.0554996559844225 9.117155228876225 5.966593005289976 -0.9812684634832972 -0.7108305770078661 -0.055183587150679156
P 0.6032247376883867 0.1727208226797617 7.308052029382524 0.41687918079152714 0.3985834678061329 0.5718020302160732
P 2.225030797619081 4.736449748384859 5.5069111406422335 0.35854753493016955 -1.749850902589651 0.3642301871372437
P 6.857160398285561 8.667817242258586 1.6998239536153144 -0.35356705099644264 3.1461954322174654 -0.4388034916684443
