# total energy = -340885.46990379406 ev
CRYSTAL
PRIMVEC
9.07361349721519 0.00000000000000 0.00000000000000

0.00000000000000 9.07361349721519 0.00000000000000

0.00000000000000 0.00000000000000 13.28015052808606

PRIMCOORD
 96 1
Ni 6.595237420247461 1.773909528716325 11.519162471005108 0.8526675397827315 0.8087073321516977 -0.20336603252759816
Ni 5.244675462815919 0.3748763295460658 5.821871590151804 -0.7823015884646591 0.7168544146044428 0.39291367111486525
Ni 2.7325912054564707 1.339791578557739 4.669552656097275 1.411471357966924 -0.41252244648472824 0.25244659210433296
Ni 3.5700766306234155 4.314748066320998 4.247363785218713 -1.341760009513715 1.9793051475638688 1.5129227178358913
Ni 3.4885592895937205 2.7377994594358834 2.6388589663308077 1.1823037909951897 -1.5741203723911341 -1.0809866427112416
Ni 5.2139431348921015 4.762222375116684 2.4456191332747843 -2.626752889439715 0.4540994985955663 1.6116427948166243
Ni 5.047043093607572 4.934112903663718 10.987132975478842 1.740057570648313 -0.32701192621573355 -1.007399356242394
Ni 5.521574916979232 7.706246915465626 12.379955286410587 0.19187114451412116 0.877319791113773 0.03819733700532777
Ni 1.9895439465225029 6.461719201942478 0.053272090485245234 0.48769661782472135 -0.38918942818574265 0.26934156808745874
Ni 2.568268070322034 1.773864160650302 0.11714125383208676 1.1483973680557318 -1.317534561307447 0.28798772243373627
Ni 8.034630050951566 0.46959396306574325 6.780499732574042 0.3892128252245104 -0.9733718343440397 0.7316151178533852
Ni 8.478801564540797 2.7489146356114595 1.2386452900826366 0.2932829093944046 -1.4975539486893048 -0.2699090105551545
Ni 7.159044523938709 1.4125256620054278 4.868609582578736 0.6013818007557191 0.31429550709032966 -1.7038993755602012
Ni 0.7414385073128006 7.390721089890534 2.1282504568578484 -0.04555994801798605 -0.5707908153427396 0.24949445145454455
Ni 7.919912359206417 4.053437079643105 3.504631380662943 0.5763706234233622 -0.35953972364010983 0.12728400466135498
Ni 7.629520442207935 4.228666697849413 12.602039228482559 -0.20284204170332806 0.07512429193866416 -0.5122082298128404
Ni 8.207092217130487 7.275440834126702 8.684846080551084 0.004065171208309127 0.6772483701770465 1.324760132521609
Ni 6.653671489284776 0.719576543657753 0.3642656462646627 -1.3469626367605771 0.23125941650375656 -0.7489335545271747
Ni 1.8363632084032562 6.521051558687043 8.94917404361949 0.03616179463253772 0.46691644785457653 -0.8987211396076844
Ni 0.2634360268903991 4.975561168782112 1.171220177720931 -0.5198179238392984 0.5997090410389865 0.33472035060358485
Ni 6.495028436016389 2.432572184847959 7.038692118393531 0.42745618497642507 0.3622977460012212 0.28716934029749897
Ni 3.3684337243786566 4.242240823203423 0.14127797231751552 -0.3963144692662981 0.861322387244252 -0.03663410628326594
Ni 6.243063270939185 5.726810974052993 4.629127894548354 -0.34553801004437906 -0.2683851177114604 0.40590494116821063
Ni 5.494753316346576 2.7683503150956104 9.577882887840257 -0.6450303906836052 2.475365306861937 -1.5678311969483127
P 9.065156597045355 6.027084055831233 12.527935936802303 0.6136649889984463 -0.7312595342861794 -0.7353828124259335
P 4.00472992396107 6.1546953519400525 12.27230593935178 -2.3458974071753858 1.5103858103466503 0.8422661419437494
P 2.4747100445698984 8.449956548163525 1.406739418864885 0.43525999729156006 -0.5187532300202098 -1.3302455811162122
P 6.89074685509331 8.023442285870354 5.514767892353177 0.5595188419733461 0.46367865764356914 0.497963032747736
P 4.5932807708611305 1.233621230451276 12.439437357773025 0.7364940432122413 -0.6916917992958862 0.6652199782576028
P 3.884259561444233 6.344905505547075 8.20047936782701 1.375359185625399 0.2904806640589191 -0.3365332354426075
P 4.809731813855718 1.2150021761555354 3.884165195866906 -0.4908115093046192 0.33644607504543994 -0.7076961451439425
P 0.6378124003488941 5.550864540403526 3.2541415850927993 -0.0896448541523424 -0.5883936160261674 1.1768833913105667
Ni 0.6241484462241593 0.374487978900911 4.8625139292279185 -1.076968522690784 -1.0756256355096443 -0.42315575782885834
Ni 2.1659622080586076 6.651493822115683 4.5985044499829915 -0.6978807017154174 -0.1726313224479027 0.29520763722094323
Ni 6.063814042083259 5.969702525925647 8.946970062972106 -0.41807397243057676 0.21821826704908223 0.4370132325372409
Ni 8.906450028484537 2.6964600776759444 10.32092107316102 -1.0868796111569088 -1.114862212412764 -0.4015577199431084
Ni 2.8716261805898213 5.08949852979167 6.718640374552009 -0.8860224610940933 1.2832959518395513 -0.8073737009419386
Ni 0.7975851184612479 0.09101559933222018 8.851910354234617 -0.3706736287697423 -0.16460279571647135 -0.5977863700949769
Ni 1.4208643125404112 1.1570127141652433 11.420410709054687 -0.04956341275042432 -0.07096219014117455 -0.6996349654023628
Ni 3.877526940446456 6.700899646014469 1.528531806825625 1.5004654659091448 1.0270775513976118 -0.19510687784259947
Ni 6.079556760993158 8.274010114514057 7.864491637114333 0.13066731931129108 0.05447499111942876 0.3963646057779432
Ni 5.344648533103673 3.195880822067691 4.788569425778742 1.5580733462306005 -0.7730445886427654 0.36939656182953157
Ni 0.4937896600370016 7.623876654794703 6.729370829527713 1.2643744323446997 0.29158546708732364 -0.6490940192300176
Ni 5.379618238394016 4.772902017858443 6.971653541954339 1.0909843773539016 0.7892517945302472 -0.608559549451081
Ni 1.2133235577126933 7.199131747076419 11.178805795534439 -0.5734027990442899 0.3718162270146177 -0.5550109268006634
Ni 4.7177072287351525 0.8102691223598912 10.21309932745133 0.5396426718747093 -3.149129318034809 1.4031103875967383
Ni 8.56521865670095 7.0578011478023175 4.377044772499491 0.29938645118898116 0.6372983121466702 0.34085757384957427
Ni 7.5655423955026375 6.247781549805551 6.519862915357248 -1.4021765629285592 -0.9872359939206418 0.6687961256446352
Ni 2.6189532736826617 4.917843915187955 2.2613576404846647 -1.789758794528182 1.260810112032209 0.4712058192585498
Ni 2.479355734530629 5.085742053924986 11.076175971300394 -0.4346953830373416 0.9823874075790887 1.3211613594267568
Ni 1.2738717786266687 3.0293890933773664 3.5503288188450286 -1.210844835857676 1.0623381743721187 -0.6910140565025712
Ni 1.487764062697573 0.8243159829618582 2.5109709250192496 0.23361943209550087 0.5697775435868768 -0.18131908002988772
Ni 1.4416065923260168 3.3126582240102755 8.0887931702535 -0.5977118081032997 1.3924271968512794 0.113405704017366
Ni 3.8682355605249943 3.1607840861924843 7.268345268600743 -0.0574430726088172 -3.625844754257678 -0.2983610952482604
Ni 4.615855920514057 7.238846952072744 6.3288016568316365 -0.8108971407141647 -1.0750962453687354 -0.37665581449510616
Ni 0.6148298454630844 8.606803026017412 13.173045336890299 0.458279598115185 -0.6540166533426156 0.36971177907710523
P 0.1594723815152832 5.666779949091678 7.6554491993012626 2.1104036408753073 -0.459795263428763 1.694015797897902
P 8.690779316225541 2.104252564654449 7.9896439840447195 0.08341918495760473 -0.48440714844017224 0.5624918085587409
P 1.9589386491835492 3.1518556507992046 10.323670377962 -0.7488132268992265 1.0802587634062815 0.4778297523329706
P 4.281039593266088 6.381326988950148 4.356726230450538 -0.7147391680336529 -0.08210663679376827 -1.4586554718518943
P 7.055596259793612 3.9110085731712525 10.412129033093176 0.06684405420774295 0.950640454184795 1.1129557394186704
P 6.507540948625466 8.011682883157254 10.211014211136924 -1.0131313736301648 0.756332418094407 -1.028517369167932
P 2.4332617794515046 8.441817517119043 5.912561446769979 0.22816355118725223 0.6834208175363455 -0.1617067051155989
P 6.800763832943768 4.067319707846069 1.5266862338998193 2.124244917633774 -0.2181740440747081 -1.4882758658214883
Ni 5.231800005678659 2.885853606094559 0.4816337404268633 0.16101327859300013 -0.3936312660071801 0.024152943097119694
Ni 1.859637026272932 1.1549802248074237 7.087257725709575 0.07540634195545723 0.4188432464964335 -1.735153448478476
Ni 7.0487819762769925 0.9930525235589889 9.214697908908256 -0.08759568493279753 0.4403680079420868 -1.4763233214453026
Ni 2.854876290614218 1.6230879300302616 9.262161072219946 -0.22223458729732695 0.33610026167024704 -0.8128596637571742
Ni 6.350803354130035 2.026627803689507 2.6063618206387047 0.6108018085180383 0.3221515127996387 -0.4901643626389236
Ni 4.132731385437685 7.310818852011249 10.229871901459944 0.658188268221802 -0.5934093240732038 0.4942390469289295
Ni 7.617960658985335 7.100837295231507 0.3550423184422356 -0.2494736255189381 -0.028909741055814727 -0.44119796004254985
Ni 7.774861578518448 4.197380879520118 8.37212490881752 -0.54952547820606 -0.37464804003645796 -0.9293463206927092
Ni 3.1098629688885384 8.60006133140643 12.587231999094051 0.6504132522620735 -0.5042421808882284 -0.8611922894242909
Ni 0.3070156837505419 5.060453893923899 9.98701845876275 -0.6143100787816129 0.14638344449496724 0.5026025884022763
Ni 0.1840092463430327 2.548324268498429 5.733571723251706 -1.3775430806505953 0.22747886641540177 0.6238529852750417
Ni 3.823085261219144 3.048316650522062 11.481167623072366 -0.09874141713697189 -1.614691351834961 -0.5700174275118247
Ni 0.8774773753660078 3.4831786369634212 12.508826000032196 0.341670813779489 -0.12326074243457481 -0.4085439214529545
Ni 3.3166687610466874 8.558114017561786 8.223599841633527 0.8732168246889929 -0.5254740936838111 -1.99207221742155
Ni 5.854023031180813 8.258775517943615 3.5726263159338947 0.23621547495745127 0.48239217489267244 1.5176085533473347
Ni 3.454660270661514 8.353549407865161 3.4052698719051766 -0.4161695563190123 0.049220941809341036 0.6264477425854115
Ni 3.579023213243104 4.50216354706102 9.159798012214114 0.17943420430234902 -0.8986882294872199 -0.6954049864814152
Ni 7.364806850578334 6.348026828489441 11.138898229938178 0.2978982966792289 -1.0536270197513662 0.45476747119686844
Ni 8.128723419882771 8.977432904583747 1.775158057893271 0.39882926526835183 0.014714166281723047 1.6012511671696552
Ni 4.485477172377848 0.631616937252826 1.6165930376984432 -0.38270382046139895 -0.606574400700252 -0.36249700649622085
Ni 5.592485204172806 5.344494281679195 0.04106082183455916 1.0652088110516944 0.3250200925966854 1.410037710844191
Ni 8.436482232554766 8.982287287648182 10.56502304503516 0.17699268474039195 -0.7197147668713734 2.7346224941301998
Ni 0.6219798526682714 4.985369744656232 5.659335956818663 -0.6053991494452283 -0.32480129171766 -0.7307594547213092
Ni 7.132014230202348 6.294256596639267 2.616614096198528 0.46973334847808135 0.03290112160339495 -1.734259475909297
P 8.606812099630616 1.539837528878497 3.086891302338574 -0.8482771240245197 0.03765380579703193 1.9790416094898369
P 1.7193952605833764 3.2210238042575052 1.2602595440972 -0.3170023644985315 0.46789346705586515 0.9462099292172672
P 4.957940211938872 1.1827727020529666 7.972963960890791 -0.672096650772778 0.24762423101502515 0.09602376109549268
P 8.5465814551788 1.2246474269919743 12.628095016160751 -0.4150755519238852 1.2340392716962683 -0.7397984249951259
P 5.929814922278435 7.9529584584973945 1.5393820334956283 0.6396192469703629 -0.6400475927570332 -2.050270937249469
P 2.206403302111296 3.204736668555334 5.550119596759432 0.641211016937515 0.7605575119193482 1.965059436278132
P 7.269352439666447 4.045198238853372 5.664063309298235 0.015363626940263863 -0.21439143710382433 0.5351969773985299
P 2.446255193560423 8.684391492529535 10.149633939892091 -0.2674196684743975 0.48819386917611407 1.2380213962724678
