# total energy = -381163.1027896692 ev
CRYSTAL
PRIMVEC
9.39835214327961 0.00000000000000 0.00000000000000

0.00000000000000 9.39835214327961 0.00000000000000

0.00000000000000 0.00000000000000 13.75543836168795

PRIMCOORD
 96 1
Ni 9.228591208094198 1.6945411709691884 4.664034319539788 -0.23699014833994672 -0.7719331007461415 -2.5596602095562755
Ni 5.27005611304132 4.000836498811429 12.1854443833244 1.5708962090268817 -0.5224131953703003 -0.8739830134310561
Ni 8.226894340779028 3.5152765473205556 7.788079869408883 -0.04509714944895459 0.14582320111612304 -1.8259882091738617
Ni 3.282843039035939 3.8925792844222755 6.573035573287614 0.019778725288824 -0.028431258757499425 1.2433947447692393
Ni 4.64318630438352 -0.262669482945515 5.206149977318983 -0.45144560591248706 1.9333451358939864 0.7999421843645578
Ni 8.683231944443765 7.669745242423806 7.116409623091163 0.007618949997838491 -1.3709870246996325 0.0430441235746678
Ni 1.3762343183054648 0.524713039642836 -0.05616707148347146 -0.002682946148801831 0.3897684406176642 0.15598908590553137
Ni 1.9890534840187273 1.0792276424459584 6.711941686817818 1.134879021854323 -0.5497653621310081 -0.47201674519561937
Ni 5.651581516772648 5.75482197899344 10.599965722902489 -0.027943777598119612 0.6733834879050016 -0.6399707167725107
Ni 6.9464173962644535 7.8855496653086385 11.572760679261867 -2.404290502402298 -0.8056073530701352 -0.8589572294461851
Ni 0.8604570765193104 9.08104077281095 9.851438272834498 -1.5849236336542254 -0.2965872911772892 0.8863826726469896
Ni 8.102129489366607 8.195719476745838 9.52008132500507 -0.8132422439075736 -2.0295097934427178 -0.016852038560332266
Ni 3.9766682718848894 4.960708413691299 8.963102254376967 -0.2403816905199989 0.5945928028583437 -0.14170712206522046
Ni 0.09055751483947345 7.4362280409333605 1.8920741527164386 0.859988756034493 0.5135017518132834 1.804436194034699
Ni 6.699961271583726 1.2805703663426646 3.8564250369519595 -0.043880246322717975 0.9789225889589399 0.3064212465485755
Ni 4.126460831042266 8.772982294688553 7.473705141489413 -0.23009059300663598 0.6592233943545357 -0.023511195748062735
Ni 4.964024888588448 8.976268192609503 10.097310511089669 2.0724294756243795 0.1260532175780474 -1.0998755091959445
Ni 5.8989625175514515 4.038522864262399 7.898860407374712 -0.4358320677449462 -1.5369733310271916 -0.08435866605273858
Ni 1.355391908458882 4.282456599584731 8.261132506555246 -0.8531707046713951 -1.3580374065174998 0.9763885096831765
Ni 3.541387948271339 6.865775674258311 1.3111323831835928 0.5128587189126458 -0.08683952349306334 -0.5637763316981194
Ni 1.7641124063468228 3.5581851929616826 4.228541928376478 -0.3660101618558019 0.019127464858070285 -0.10279398993979072
Ni 8.713154955980567 1.2556734491570334 0.7053553548716542 0.20505653285614364 -1.7364719101795836 0.49085676072025786
Ni 1.0650275245764802 1.9929211477015984 2.28050342954352 -0.18970884675547972 -0.5585482505299607 -0.4373387341974597
Ni 1.2043101280738815 6.195137739140969 5.163503847014785 -0.2961494323089222 -0.5232074091368215 -0.624517358331918
P -0.022239066176508403 5.4184099760461315 6.824089920346865 -0.31792950429849115 -0.2429761907200525 0.49603753359024894
Ni 2.181156789117464 5.6384183811949535 10.514836016274968 2.011548066757974 0.23883131531374352 -0.3061487096134792
P 1.220462762150413 8.735025005936125 7.849773776242081 0.254881941018703 -0.8892689930558492 -1.4254905550641515
Ni 8.483299890151198 0.6371051041431939 8.011076838838264 0.17217495163677446 0.18594526594798944 -1.9774927769454784
P 4.361594230158645 6.251218862542599 5.2645488962754925 0.15208615130669934 -0.21647583043667878 -0.4172915857385975
P 4.894173387726547 7.216668060559363 8.77446676753688 -1.5053531330187493 -2.0365296764039766 2.565585316791459
P 7.897432921841517 4.732460203305056 0.4653070333795302 -1.1861630168402797 0.2349540917465244 0.20746257119447495
Ni 8.557794455869105 3.8298558690435414 4.842497103519298 -0.7244000881621847 1.9967961052597807 0.3193564665530048
Ni 6.34473411245936 5.8650130252240285 13.090803727296251 0.6036754818859023 0.6132890937162664 0.5974606113244421
Ni 5.491400450331811 8.19818581300738 0.30160396401975004 -1.1446695255821835 -1.5651719049485946 -0.9832759808316293
Ni 0.0787770223174919 3.245530360897323 0.12831020978838675 -0.593415751831107 -1.3522082014302326 -1.4593910644663382
Ni 7.9395941928579346 0.4482921158297404 12.227230098591901 1.8087787872741108 -0.2982867903668992 1.2282146945946912
Ni 2.3795100145153327 8.955724732612804 1.7275713925082194 0.3591813118594266 -0.4788558796046398 1.2258935026606823
Ni 7.5114512969103595 5.6741895991701075 8.667391339273049 0.9514680922924129 0.39522766396002257 0.40585300488435266
Ni 0.1466339671496989 2.2728129446552603 9.309308601781092 0.25508762927160583 -0.02556807827709145 -0.380104692275655
Ni 5.893880370103428 7.847480270362504 4.011779931753736 0.08436200848684826 -1.9824601482530828 -0.17798924432570634
Ni 1.8082355357531026 0.8182472261522865 11.482887012204001 2.493178166673642 0.24955950036452504 -0.5015510072093105
Ni 3.296706838324298 2.064435557103477 2.5664648426681027 0.441352226232227 2.1680521446267114 0.514256884811753
Ni 7.226692222713278 2.5812357679072027 11.987757255560805 -0.3876439380754937 -0.0020288575045706993 0.1816399537044162
Ni 6.252106369909441 8.197485149296714 7.596162473748044 3.060397719725355 3.979742192010346 1.173164804808399
Ni 1.412108300291515 7.334566407607268 0.06257020358066905 -0.2681326353810221 -0.27960772590015714 0.43129407066527653
Ni 1.2062719864637437 4.718465613457373 12.30806613800047 -0.44902439806550415 -0.1259881686680669 2.735795688502695
Ni 6.272023903657947 4.8480977421132145 5.216076980771685 -0.04701750640011903 0.06763852508458028 0.3573530004014362
Ni 3.6531017702997737 2.1452641227657963 12.352722706045133 -0.40825930033300006 0.30281167482044624 -0.9092904304830984
Ni 6.105023043766636 1.4842299515759696 8.262828112735056 0.18321681127323286 -0.16752588290053727 -0.8540132551773486
Ni 2.918684753146295 7.776844026144659 9.580585037748415 0.025630041863278444 -1.883269045173202 -0.67379203619733
Ni 2.9083149302284523 0.5700235604841228 8.950618295489477 -0.19382903957144038 3.438897786518052 0.6682469380093846
Ni 4.728228194492639 4.0779562178986275 0.7877627494286719 0.10325781695008668 -0.13566811495999218 0.9388095229881379
Ni 5.031512817199704 2.062884754757205 10.20433082047493 -0.19973126398848826 1.046986888727029 0.2638237235930231
Ni 5.885332272833315 6.219913207950086 7.224989142787222 -1.300965344094856 -3.072337665696051 -2.751766352899338
Ni 2.093340270714112 3.1160850758976593 10.293521573969466 0.6073786417691024 -0.25973695511815914 2.733628505648047
Ni 7.207606143234762 7.0490319322370505 2.00865244933345 -2.2522853408451793 -2.547670898404883 -1.4958673050155011
P 9.153050317901698 7.726433607708012 11.683828956458209 0.3227274399077668 0.2013279190516468 -0.4195418152253549
Ni 3.016983200661196 7.251944142845646 3.7026424315169155 0.5044383560594344 -0.22584364480482397 -0.1109335883277896
P 5.540680464648585 2.0990296600447125 2.2037415160579004 -0.04631328124424282 1.168130070597969 -1.040968450447091
Ni 6.916279514523047 2.6660067347148635 0.4976421965175814 -0.9762782093575574 0.9241645193814536 1.2659088667113554
P 3.3160264723730353 2.8855760572716695 8.698853942536752 1.5067315014235148 -0.7552954921894606 -2.0351297107326562
P 3.502244202302186 2.2238131958227516 5.223323711976523 -1.0018594002607715 -1.2313648101878987 -0.6219588535761224
P 7.6183258682438 2.0274685397287895 6.083192230978875 1.418469643661628 0.8441150222270302 0.6582324911961761
Ni 2.236583959722473 7.847994090416992 11.854128541099328 -1.071668193523793 0.343926185472569 -1.7561966423020203
Ni 8.014555867716286 5.757531212008011 11.078569485073881 0.786002434355014 0.09525294436773918 0.1457913194369231
Ni 7.082757212177061 9.305804349009486 5.857023590485886 0.6521328060563414 -0.31005704352894986 -0.9202232753455185
Ni 7.751442631087349 8.668854325100918 3.211677093052831 3.4670755345038486 2.2523766150074045 1.543945648579967
Ni 0.6587182440715083 6.600859396347263 9.160708105150126 -1.2807392468559686 0.38537442531502664 -0.28617303782250075
Ni 2.6761523452452933 4.736823002676798 2.132531661815591 2.5819555306193664 -0.5026686657535214 0.307863892532373
Ni 6.755313704726265 0.26233129592783405 1.3705907056706281 -0.17558243465642662 1.2650454902697954 0.3132464970005251
Ni 5.5496115914138615 2.0881647014379996 6.060344054483228 -1.3510416919259571 0.479478086569671 -0.5754712515375444
Ni 5.184350927952772 5.776635975852144 3.024504592040615 -0.6190902737790758 0.6574112808464614 -0.42567955269197655
Ni 5.6723118204255245 0.7673482115547353 12.342481805250054 -0.013669527067292585 -0.003481787901013358 0.0055728661020871765
Ni 0.6005668929594332 5.2658988416913735 0.8838797972577023 0.2759305341588861 1.300851187114495 0.23632474684180588
Ni 8.027046366131742 7.873199299635316 13.578924371095036 0.6965583833595681 -0.3863727846725539 1.2531862769383644
Ni 8.241739069262318 6.707378964733968 4.429305436939034 -0.0546390275011188 -0.4751601759206075 0.40491918021617357
Ni 4.687944702220804 0.30075662803898573 2.8578690114971317 -0.04483875358124536 -2.500406566101281 0.1397865080037399
Ni 7.434602501124618 0.9051696976608297 10.060803129109178 -0.7332696227376726 1.1045317770210332 0.7567342815185162
Ni 0.7193947871968199 2.7951904385958795 6.3686482320134985 0.14138856238353711 1.8294879947970042 1.31186605016776
Ni 2.2035780278587453 6.114972468458079 7.441955733213477 1.0087604982559788 1.8838004921966396 -1.1808999686691275
Ni 3.825465043123373 6.376039767051874 12.41854585767985 1.164449022201956 -0.5569073724924279 0.7378274173116841
Ni 6.551850305331946 3.866636042762051 3.0051980370478097 -0.1719432952419426 -0.3648595931911265 -0.21858130681545584
Ni 4.070613262210858 1.0081336312704787 0.6252153080823485 0.4669912669565699 -0.3186812948628511 -0.30775796308212805
Ni 4.213884977767646 4.024219982382023 4.311415497855657 0.2286788002607739 0.3421652369174043 -0.7722133509907216
Ni 7.383762342278762 3.3851959938898886 9.986270260441755 -0.2827053909888744 1.375984992134856 -0.9987743335775444
Ni 0.125042314241845 2.1153878221430387 11.567770085205371 -0.7711527709366913 1.832553263985889 0.950176370064183
Ni 8.847261990201856 3.6062880922445397 2.3987633190661275 -0.32701526864984326 1.1544533444418246 0.6687899549970482
Ni 2.4934753026007037 0.40854299641457215 4.181478814040247 0.4303918705659814 0.7635109381207174 0.4587431680151648
P 3.2790034019014946 4.323440755567232 12.213338272755117 -1.005413693270933 -0.47220006485101895 0.22073332016145208
Ni 2.65696350175588 8.139984014108137 5.908570952570372 -1.459334757307106 -1.2981831533640287 0.510145947967173
P 1.0225766458929875 5.460216244115812 2.9373784609468383 -2.1238420257684005 1.2302232403842879 2.914856054405393
Ni 2.3958868609792767 3.183348792121503 0.4522532013407001 0.22196616412728867 -0.1985722106833806 -0.6758381200930812
P 0.3200295511736788 4.433127323926142 10.509818329888326 -1.8308704769668274 -0.7768703901467588 -2.6316472414175385
P 0.6959851455143604 9.398796436688949 3.094374777268133 -1.621763428190394 -0.9302012124938367 0.04700207978115131
P 3.8214852732467963 9.214288326213822 11.775029213474932 -0.3165143691185194 0.4203329436680826 1.2301067694110814
Ni 0.2288881499086512 8.974689363714806 5.3596046721374355 0.6543925486247956 -1.7628987369125446 -0.2157314960714865
