# total energy = -340865.03195651143 ev
CRYSTAL
PRIMVEC
9.31266029191760 0.00000000000000 0.00000000000000
0.00000000000000 9.31266029191760 0.00000000000000
0.00000000000000 0.00000000000000 13.63001967535264
PRIMCOORD
 96 1
Ni 7.391001931511724 0.5128882313216465 3.8074642832871017 -0.8086600238535299 -1.056737797466206 -1.8688384715701685
Ni 7.712521518440289 5.538723167702757 3.5100160599586228 -0.4891251227411318 -1.679469781762927 -0.29382669771301656
Ni 7.509729034009979 7.462932917447603 4.719298488146517 0.4881187929638045 -0.0031753124041880797 1.1420418581513492
Ni 3.5201296087321032 3.4230544407627086 13.177175513468315 1.152778527842563 -0.705767817772978 1.3780004799029881
Ni 7.550453296244261 8.971779405318797 13.04315143563367 0.24686189892770388 0.14973513457601953 0.45303403344552945
Ni 3.303181881082926 6.008518927348963 10.103128838192813 0.9735356136154136 0.08809859271114505 0.07090845408510368
Ni 5.789857670257503 1.3437982144711955 5.4914530367457495 -1.1881427662744697 2.1236520212447814 -1.0533693952146053
Ni 9.18118387835792 8.411790533452368 11.534690491886991 -0.23875366799827272 -0.6231528738842236 -0.7599921263341815
Ni 7.159349513702946 2.8273608304086872 9.702937762011384 3.26793665268372 1.4080492196592524 -1.942477437212558
Ni 0.481661951034024 0.9450208000796511 12.786921045520133 -0.13985155691372045 1.58255770452521 0.2076510330561972
Ni 0.7940514060864188 4.633029730855527 3.3675956878567854 -0.3436785882381372 -1.1920271889305405 -0.5006596057432926
Ni 5.539058423463204 9.212008782999007 9.62618747451908 -0.26717104279870113 0.9048424220140738 -1.0765959698427137
Ni 6.050155830264463 7.465605650871165 2.802564010593635 -0.41155108371039445 -0.48065179516279805 0.7337316499757558
Ni 8.2636447379749 2.7382666120699306 3.2662022394396346 -0.4985405025177607 1.542444381444092 0.13525056780659933
Ni 4.0321210308945545 2.8867476633078466 4.356127098046433 2.2233516885299642 -1.3921482321582797 1.3925207850063501
Ni 6.82620772707889 1.3481472266969923 8.126339810017882 1.4800640194346573 -2.0295830698828143 -2.4412848202384603
Ni 3.614979050958531 6.700123623170827 12.91474289178651 -0.34491657441029633 -0.5656185271131807 0.5486366478432035
Ni 8.527677274646837 6.410863090525262 9.86588509931258 -0.5009668525710662 0.16570014254570817 1.753060410665884
Ni 3.710899449086387 7.971804598505895 8.768109668315319 1.3998234893153507 -1.1706839473680741 -0.6684575113582939
Ni 0.7648459730214898 4.631455891313429 0.19249640752058514 0.309835414436447 0.35317161533023694 -0.5993166906965743
Ni 1.5266802317949653 5.927601224501106 8.745851479619649 -2.1779676039682103 -0.848287408437165 0.13831866520896177
Ni 4.963917853756579 2.434692520985286 8.651913746808436 -1.5686758043367952 0.14093861933031213 -1.346212903078746
Ni 4.0086903783033225 4.032018591634418 6.416099599250242 0.31338430812997 -0.520225186580046 -1.5982861710040601
Ni 7.0725648350472685 5.965550314051689 1.3297342353204489 -0.06111872168819151 0.2073353015879913 -0.5750830149601902
P 6.3852625881511385 8.131712283579041 0.9735743469437111 -0.20357634876619132 0.9954218721655437 -1.9407177742089738
P 0.28154778762328486 2.8012946950339432 8.903196320657381 0.6391633903798669 0.320466411787732 -1.8700108946117149
P 8.403390514121172 6.887689908480841 7.852962950289487 -0.13972557285881743 -0.3370034902108067 -1.52057020707882
P 3.4316965892542277 1.7027267566696238 0.7944956199690109 0.44701662360685596 -1.03252880432017 1.5863318268556617
P 3.2778141952091127 8.259593730869499 3.4659913910159403 -0.5636444341059453 -1.5544282932788456 -0.9251993884038712
P 7.31419111172934 2.3407650321000872 12.507395967651544 -0.15283948453295615 -1.8492057849409056 0.20126004192818886
P 0.9661326003277918 6.3678758519079635 11.147924546379455 0.7325867377380351 -0.022903644071050878 0.339829389695376
P 8.625544018717287 4.284363739990778 1.6922490828896577 -1.3796444432643142 -0.41781557656286755 0.15810793202074705
Ni 0.4800620360438914 4.201918760900884 10.577590240505238 -1.5631674729240563 0.9780394150230382 -0.8473517839967729
Ni 6.28323308505514 3.806605656033957 4.7314291590786866 0.5437412674241152 -0.09613688963458926 1.0403441865995309
Ni 7.411014837878399 1.8164529607412134 1.3068353356159264 0.5688066950331752 -0.47387359589869993 -1.5852961865022954
Ni 2.9366821462944057 0.5379355616910331 4.769143569596957 -0.11676305052537311 2.502164429332652 1.0687965284029528
Ni 4.740060132378191 9.504687061869129 7.017497213861866 0.3122913321761073 -2.0299504805245623 1.4925464681723843
Ni 2.487476677935644 4.667756640041815 11.800147865540827 -1.4866223893784656 2.181565091511482 -1.2963571558988836
Ni 2.5921323511551435 2.7658507110266988 2.7668527532440343 -0.5289707939831599 0.37950665368034 -1.20085147209039
Ni 8.581467198878535 4.664748650857806 8.122319534690522 -0.037339102770090525 -0.5863881555603643 -0.06703174473851681
Ni 5.469865359570974 2.9976800693757117 1.238552118606909 -1.806428027653747 -0.2679835113976675 0.40002457112803363
Ni 9.310909232330834 1.3881171634702696 10.387805679580268 0.6363104943121042 -0.8503252648028 -0.04779937887146607
Ni 2.6378295738360547 0.5668215705175362 8.015978270008777 -1.2301242529125782 1.445334329262956 0.6806854208830535
Ni 1.2503549839066417 7.96001477093018 7.724868243084745 -1.622049334861929 0.02305842448136029 -1.9540497154311895
Ni 8.378926156268562 6.277133292747009 12.51398001828032 1.8983678484878532 -0.23055621978914487 -0.14266768620627687
Ni 6.249539881130229 6.816969568346575 12.841958866193494 -1.782808074241962 -0.21559497049362225 -0.002389840388415239
Ni 5.588741464629427 2.5343472957781197 11.05371395262988 -0.9341532551630494 -1.618340261441458 3.300807435269812
Ni 7.249766129763465 4.240165855571864 13.463528633658006 0.08122757662292464 -0.2273803931643245 -0.4094044696810369
Ni 0.7421370515812203 1.6231780148435906 4.3113518287067505 0.6137045839871301 -1.0879165370618555 -0.6789823221490178
Ni 1.520366248306549 5.1708917225324615 6.329958425401421 0.16102536277785817 0.9842586564598726 -0.3717897446520565
Ni 2.1051826717660713 2.383668456777275 10.412762677147533 1.7433321276345264 0.14523853225724664 -0.9384295139408999
Ni 5.956759162999972 7.505929468724915 8.139874830079922 1.5535235220763892 -0.2132475533073682 0.13028653893310463
Ni 8.094135700428955 8.650222567750182 9.104484810495684 0.4063271163072938 0.5553855365312629 -0.390143821679212
Ni 2.2313599022742574 8.505475893177245 12.011849771805013 0.21999901309858885 -0.8508099177487024 1.5579949275841813
Ni 3.439053590664034 7.933585441814952 1.3652918337798448 0.36039975764755994 -0.3940372431963472 -0.8041001723969894
Ni 5.086388645579825 8.569910187803131 4.528942129896785 0.5391626469144972 -0.8850624111736692 2.726165878722415
P 5.633172165548651 6.320818980865239 4.836584922140852 -0.9618736038964533 -0.793998050965981 -1.1439318760852106
P 3.5968193639343253 1.8969515938885126 6.638950622081288 0.16245772434901054 1.4772131802494235 -0.4268128949654714
P 1.1465747007283091 3.117040432754812 12.296853487558904 -0.06775088229272848 -2.7562380155174466 1.2320677497921944
P 3.34086090349315 0.17407317221802818 10.168130273813453 -0.41694937190783027 1.5875518153056916 1.7884902122284037
P 4.240882930392821 3.688586315696645 10.134941816061216 -3.107091010016836 2.5158900064488607 -0.9869228335555971
P 6.1102504253245655 6.907367559087071 10.621491982335757 -0.2919577628250778 0.04982823637603677 -0.6322774618933111
P 7.162320252246905 3.2850035687386954 6.956326075304329 -0.39974432088345346 0.934588542928255 0.25605564961182997
P 2.3740112283444024 3.9960251606864405 4.66847278359677 -1.6078879557598824 0.296057129705432 0.6611008138829065
Ni 5.115984279099274 4.992572908614774 3.049798371135182 0.514544848365817 -0.39611366610940174 -1.666501137417401
Ni 7.9650808579769325 1.941019101067252 5.455578807845931 1.6126663509851322 0.31076692511178095 2.029025911827764
Ni 2.4124352635556185 7.66679635777934 5.302064263871307 -1.2444077594147858 -1.2795454836581837 1.9034588898575153
Ni 1.6350144057193676 8.042822943760559 9.910850346916517 -0.8797160592600913 0.5588058750667215 -0.024622683644686623
Ni 1.7605770006667343 6.741090014565434 2.8033136797246345 -0.2572332148596989 1.7100486829910486 0.12838392259375309
Ni 7.055448165944453 4.807213723727703 10.727097546876522 -0.13557092726049555 0.5555143487996432 1.0464729252050882
Ni 5.571494418286439 0.9290598320843761 13.338241693447006 -0.8103317551289979 0.6863073950555212 0.3322616046504471
Ni 6.597609861754184 5.662274228087442 6.553858053749866 2.2350890315715506 -0.5384134274532986 0.11499258888851163
Ni 4.857865281535218 8.611221147618197 11.693874583277172 -0.4582155776464689 -0.8067278398278235 0.8952763755921935
Ni 4.793868681929915 5.0616355952668295 11.686814655721761 1.8303490572457186 -0.22740044776898258 0.5810721426640896
Ni 8.661192881244805 4.240435922712225 5.555513893705137 0.26833498119981525 0.3327398298384463 -0.16122950836886427
Ni 0.12819062760286976 0.9847672330126306 7.487037806623733 -0.7523230398246978 -0.0423039029745336 0.8850582974086113
Ni 8.83629882745821 7.832496517380207 2.734849797111376 -1.3155938926413084 0.32810310239738333 0.35814952816080253
Ni 3.409076138084076 5.87841175431554 4.271075505419065 0.7480262122215569 -0.5269797316950602 0.6148726361533023
Ni 0.8239618075142874 2.430874330380197 1.439780076155133 -1.2605972246904547 0.42404253130918584 -1.0683139323395794
Ni 4.856487007853381 5.4176958381814355 7.895556263388261 -1.4330367428425257 0.6514288380107813 2.3012365739329015
Ni 0.44025879588483624 8.429344897575767 0.7986043655664876 0.5625967095677213 0.0902896868251929 -1.8166358214246843
Ni 7.287286836953479 0.7691242090311924 10.784221403392664 -1.2398011138807101 -0.518127680621069 2.2025170111728
Ni 1.3038655283379676 2.727501177095581 6.273311377077915 0.7383943455587476 0.32876439013046604 1.0116830712194125
Ni 2.0867808555815426 0.5116142594319485 2.1988494061709227 -0.643578231618111 -0.5353152481439492 -0.0142649945594464
Ni 2.7310027372602486 3.9554219630323195 8.282704027956305 -0.2536802074011179 -0.9694408747207498 1.4742996061470544
Ni 4.541151027173059 0.40713738928468757 2.630089822099738 0.9326473600414842 2.10672284958961 -2.0395178124980227
Ni 2.8047217539185114 5.023490939855986 1.630041445272739 1.0729429464711586 -0.7520836701203822 -0.248339769024811
Ni 2.980274707812512 1.2697346293924734 12.40222716686536 0.43724463182175666 -0.44054952782527357 -0.45293144642939415
P 9.010240691170063 0.7255279224490814 2.289393605673612 1.243306555930807 -0.5439832082315922 0.4006647758151939
P 0.9901220125197681 -0.18503510431863973 5.927204505184577 0.17154708824478843 2.1013703270284454 -0.82377219690462
P 4.729927958284685 4.91182283364714 0.508401391727666 1.3002621473802447 1.7133803184674425 0.01698984968977719
P 3.0056423936863252 6.614363337116514 7.342614281353225 0.4804183389957532 -1.4536011972574385 -1.3082330814008631
P 7.168177915394713 9.101234692151351 5.936118583348459 -0.19292401125866776 1.0785530935690844 1.7301976471350977
P 5.736896572766909 2.1347596799654953 3.3545654139674173 2.1544240123203156 0.11756934847675235 -0.8115867105820217
P 1.6988061268043977 6.632411272220572 0.6209551319036928 0.07513971855763188 0.732942321305241 -0.7990641526349787
P 0.159319124960362 6.480903606478622 4.266714386735252 0.4641710238989554 0.2243968850559684 1.5418378582083445
