# total energy = -381161.1089835456 ev
CRYSTAL
PRIMVEC
9.40117719563016 0.00000000000000 0.00000000000000
0.00000000000000 9.40117719563016 0.00000000000000
0.00000000000000 0.00000000000000 13.75957311136701
PRIMCOORD
 96 1
Ni 3.869825320331126 7.177366240010688 11.241983949265078 -0.9323974488142072 0.49145582775683755 -0.4592643306259574
Ni 1.319568016121967 4.583355857710368 9.811621181119055 -0.035756074553686804 -0.2115979335190872 -1.0495505356891472
Ni 1.367128570927121 6.923825895567083 1.3284671703379305 2.1325935467087853 -0.7750755030298652 -0.32765341645447443
Ni 3.6729740736291854 4.6661332218256835 1.5984633351276403 1.1719944386493817 0.14674262760659887 0.33475506049626214
Ni 4.566856791949734 3.491888600876294 6.8697146005784475 -0.995400274898989 0.6691015727001961 0.7166950062084432
Ni 0.6604458509268233 2.974269192491835 3.881341762243819 0.19192616612177268 -0.18476435826601084 -0.1818063040789514
Ni 3.810193654166056 1.0786252489542871 3.5334032587067106 0.6799230887957323 -0.9207015005335176 0.6057585896671761
Ni 1.2526504377264174 3.32453824782499 11.930168913259322 -0.09090238070852732 -0.4798902344064251 -0.2500590657087629
Ni 4.748825975347354 8.820738998009295 6.886597234363602 0.01566650289266334 0.43290563812677063 2.7732003544033983
Ni 0.8113027789237366 5.730506286339446 11.764614185028693 -0.17300798906103107 1.5594846247558305 -0.7689364800116627
Ni 2.701813679780199 9.05228998928246 0.9274430402306968 1.65400300495039 0.28277583921549365 2.1037995052952283
Ni 4.863943388588925 5.4681852425109785 5.556170858723953 0.662379166374698 0.6138639923831298 0.856505682581899
Ni 5.517720044501167 6.78208434885878 1.985038796193553 0.008073263926437708 -1.439291722613302 0.8278790199841419
Ni 3.34611394920428 4.813177032402361 10.981336314955353 -1.0294226545910206 0.40904940033446324 2.3585701175470475
Ni 1.1361040455699645 6.112156470737554 3.466765835387894 -0.3723325045294039 1.2241814050655822 1.2864496669771845
Ni 0.8165035100797381 0.6961966470946508 7.813153743596448 3.0001344040589233 0.8859242449533323 -1.1428682107073864
Ni 6.937307183487738 8.392129934138614 8.463417179637037 1.8550136498719345 0.8828510053446472 -0.09368997075599349
Ni 4.813637690078869 4.733943912043034 13.027563612237033 -0.34977338828196536 0.561244309304885 0.13146461840160586
Ni 8.617419741482102 7.347057486152817 1.8350589980174186 -1.1694994401416698 1.4839816093215086 0.7047815426003089
Ni 3.909159845198643 6.921334583643112 0.18951080764444678 0.31294182127591263 0.2627171207924056 -0.2830442623855319
Ni 7.699639231045582 5.271785252308474 0.7840290241213581 0.12302188695089135 3.7539450841727415 -1.402679727817223
Ni 8.10883486426344 0.6725752495845836 3.6628809699251303 0.738548868858741 -0.6256519861569935 0.2536552677004535
Ni 2.638618967504997 1.8752151857609916 5.447332491648494 0.06050422803264418 0.1180920537494418 0.5225080690769517
Ni 5.186272145665327 1.6927195364473622 5.7768193049472005 1.3239769744986811 -1.3067564968553367 -0.7260486795092013
P 6.622809606911969 8.401775541814061 3.060734638372334 0.46835986516932243 0.945971845064532 -0.6801742855745898
Ni 8.32488331454556 5.3959842026011975 3.0166346568472306 0.8180100976098623 0.12056956875565686 2.036138611613145
P 7.479802106403613 2.157184689669073 6.4630638659938695 0.037886490633128295 -0.6133993940418856 -0.34807183220982635
Ni 2.2253620257922155 3.132932857928994 8.059476804402198 0.4649755220781218 0.5117053220344929 -1.155149599177901
P 0.6332209822452171 8.78809811121675 0.7058610571242413 -2.234450369546287 1.1618275254187087 0.08599363055300029
P 5.162158126476708 8.26816601327268 9.231613681452137 -3.2686979563297767 -1.4130803543252566 0.9875686946697121
P 3.2229209248582156 5.18670459981062 7.0450662954353795 -0.5140658518468695 -0.5658121311812255 0.016601613112423023
Ni 5.257157020785086 0.4605194792047662 10.577836854925172 0.6758280927907523 1.1387233353010775 -0.7562514283448266
Ni 1.8527745760911156 7.017800061574658 8.712492905089345 -4.080435847777682 -1.1511003688091916 1.7193655895166002
Ni 4.901059235667548 3.451237911218756 4.122478193659174 -1.5371929032371654 -0.12311418955438151 0.5257751698639977
Ni 8.805208253487034 7.51351472738232 12.996164620935643 -0.7713060086851039 0.4769064691877528 0.7678334767554712
Ni 1.5779499667574393 0.23930696235722396 3.576896864310697 -0.48518567847740957 0.5551705923069793 -0.7404607411694731
Ni 2.261641168111466 5.188989085839015 13.422766533501541 0.0717332639792442 0.40800630378192965 0.32360110076197174
Ni 4.539113918411483 2.534585542030825 11.830082101919805 0.22943881835524998 0.40260981535670665 -0.1351873186688317
Ni 3.3027839240813397 8.599068643838367 4.814681220733815 -1.1560865091698735 0.03816699798802459 1.231247053663112
Ni 9.108621842295404 8.341476392076908 9.2963661687681 1.9425581698518222 -2.963466873434561 1.3608360523085594
Ni 6.818025048803453 4.05952227128159 7.061853037214402 0.4069590934643378 1.1208084026938698 -0.3223428028748384
Ni 7.987418662383904 4.83391602902228 11.949308769659366 -2.046346405384082 -0.3103990002494009 -0.287053383544925
Ni 6.048125053702982 6.2063280614636325 8.41795496755426 -0.38499235938525955 -0.6013627745923256 0.5053894071187941
Ni 6.589520038901482 8.368730404407437 0.7249285244608322 0.6545748398389307 0.19888022884210266 1.3672105883763357
Ni 9.319894494625158 3.3366939697785507 6.464316102779805 0.05050880738282913 0.15019381937999293 0.36084147317066884
Ni 1.8358148526539741 7.883968109888171 12.841960873901245 0.26109938268332455 -1.0508723398243645 -0.03382080520418692
Ni 5.95257148994738 8.43104140603791 12.401062591362585 -1.3349062198166752 0.6459559878216682 -1.677862842287123
Ni 8.053339716009866 2.3438450604254153 11.054482173160828 -0.39619619852087895 -0.18831170929763696 -2.075963714029883
Ni 1.9773495734667026 7.004958053694871 5.925780015528774 0.13685185085544818 -1.1694444185340183 0.3804057684558416
Ni 4.103209541133251 1.3886854699522682 8.081919294307488 0.06613751505902159 1.1396209074146826 -0.1594762731231834
Ni 4.262014224226483 3.8694586744253345 9.30736084535332 1.6090596074704806 -0.8989674512905357 -1.1302590065838083
Ni 1.3559505713890052 4.512207749632604 1.881813871947538 -1.1177783576182942 -1.1955190041338828 -1.0061384872520993
Ni 6.457001046900404 3.5673518492299157 0.42020817203951216 -1.0024774934607443 -2.05902271530017 -1.1373732490310864
Ni 0.11191913280181812 8.065551845025857 6.952960143311929 1.323794683284546 0.21447654061846286 -0.06308407294467845
Ni 0.33228460359521045 1.2026643792367941 5.555922667649264 -0.883172136129492 -0.7324862076044287 -0.6163618191043192
Ni 7.662551587498175 2.9272445047797615 4.305934643269519 -0.38870528946047245 0.8413089202368027 0.5772339998649221
P 6.229219927632944 3.2866609054035694 10.531687416798464 -1.250460393366769 0.8306789513267823 0.05041599055870672
Ni 7.5069433046092815 9.376489580596107 6.438200572992646 0.07734829617317647 1.2136702211216128 -0.7411431119484784
P 2.600845038031364 9.10936453528406 6.949520252621435 -1.138850090686929 -0.0665028688182403 -3.759077263192984
Ni 7.6229444284955825 7.0668272000029795 6.782121013449359 -1.1104962221345842 -2.5241239643228788 -1.7655724270899655
P 0.7952267661313244 2.3572323365753536 9.458013767807781 -0.6825016481561859 0.2705844393556243 0.2692559503521879
P 1.5925499947496125 8.121037592102358 10.794508603247138 -0.13036701446205287 -0.8994616173181348 -2.0844347276153714
P 2.652673727227018 3.762332261694611 3.575920082012959 0.5124745961003496 0.39407529552313425 0.30736638407066424
Ni 8.724442741265038 2.3321405949712903 13.11267998920776 0.6167397712690281 0.3851286278528077 2.611347867738554
Ni -0.06453438000790274 8.228634063686659 4.566306823091046 -0.15433766634503743 -1.1833252902811686 0.12644325392761446
Ni 9.33993780414178 5.4054793914434995 5.3846708261132505 -0.5802149368701168 0.8074081537242999 -0.19006674431553072
Ni 6.279299997893284 4.414068862182317 2.592537217853203 -0.6081499727174882 0.012772212064003809 0.2885808759330449
Ni 4.932261742368142 1.9874370364645146 1.221281530191656 0.11819592631715772 -0.35141838008455606 -1.0864227261251482
Ni 8.528371792260039 3.884801395406163 8.903104590568875 -1.7514120764291834 -4.644090566296273 1.2279005057883818
Ni 3.7498286961894016 7.026289324470301 7.9546151352280186 3.0771196604657267 -0.4434165649604234 -0.8611390675888523
Ni 7.5215527337785275 7.245571779665045 10.956087573694195 0.004157473811799291 -0.3126402308750938 -0.9837611479981637
Ni 5.658248839367235 5.83182277163993 10.989522859949293 0.4711757373515627 -1.5754195508185318 -0.2063557112835414
Ni 9.264333538132085 5.4881627437880995 7.888115909212154 1.1733591802073922 3.5747029412765405 -2.060721443158832
Ni 3.1685539178532336 0.0661250591684151 11.517519287585367 0.6945976600887714 -0.6447406273573283 -0.5488814168641579
Ni 3.018971789467227 3.0167437105012613 13.560526681720026 1.088069517699952 1.4951646225215216 0.6407965551079158
Ni 5.980474183495848 1.5250401421985527 3.209970803442106 0.898888518423484 -0.26379415590666827 0.4155468351333489
Ni 2.7821561390339733 2.273054197076372 2.058761886671224 -1.4114230212274919 0.3979766874600695 -0.7264695690967037
Ni 2.7742497491167697 1.9686816882067004 10.379231348581673 -0.5057542466573807 1.121416468591514 -1.1108741742992934
Ni 2.129253792589391 1.1546431667551322 13.101920342049327 -2.7611074277946064 -0.05639817628407061 -0.23025257250579703
Ni 0.538284135705512 1.4930385354468738 1.4844928654888019 -0.1790367117536142 -0.5928310829722306 0.014062391630337071
Ni 5.49717847259975 8.81662128245194 4.979589147981921 2.746253393500909 -0.20871495554433733 -3.748763797082118
Ni 6.46468180856789 1.4858842396953966 12.764989676745339 -0.01524021398852214 -0.9530210386018297 0.35185701028387145
Ni 3.502624745092045 7.803155591780817 2.6876301239322964 -0.20282815774625712 -0.07156357117059933 -0.34981632570475885
Ni 2.804784772245281 9.109148308211413 8.89528845195156 0.83858020845173 0.044796073268768014 4.373360345391403
Ni 0.40694969201545433 0.7136471119749289 10.915922924891257 1.0261316425445748 -0.10750630781379548 0.668911568176577
Ni 6.727980574811801 6.6515208016885925 4.2738333840408815 0.4001024755538206 -0.40319782664969267 0.39410974830549544
Ni 6.321370265288632 2.149898777438594 8.642071507999216 0.015912300354882274 0.3729475124055835 -0.294887277767047
Ni 7.463566273600984 0.9602550284459466 1.423964327031102 0.331681563777261 1.3042969795712505 -0.576254152450156
P 6.2344375809076755 6.505567527652218 13.285211330943214 -0.3756865086033014 -1.3717467856837924 0.03573756261092555
Ni 8.416253354504304 0.8668289510616456 8.840787008114454 -3.4960500673593273 3.230132694462069 0.7423903540920181
P 7.917925161470739 -0.1664807441721823 11.60941955393095 -0.1060045264572884 1.1191706099801306 0.5749876270329065
Ni 8.401925960647207 3.495846496423432 1.821616254922758 1.2672044455943274 -2.822066741086798 0.5069009586673141
P -0.003715345178690824 4.499657178242037 13.454770960606341 1.8520216571231458 -1.1076489824937763 1.184554020481947
P 8.603242766458152 5.633702366033323 10.037498562029517 0.9948058358480996 1.1270651822368587 -0.07573287205694054
P 4.286974349351545 0.4848346835827165 13.409198754751827 1.2333836403901404 0.39739227571150915 -0.2113472509608618
Ni 3.3840288963339864 5.813311853985976 3.868875801446896 0.623727772551087 -0.3648814475679974 0.11601665927765181
