# total energy = -381171.0485922628 ev
CRYSTAL
PRIMVEC
9.19671406430791 0.00000000000000 0.00000000000000
0.00000000000000 9.19671406430791 0.00000000000000
0.00000000000000 0.00000000000000 13.46032065121849
PRIMCOORD
 96 1
Ni 6.16639681142527 2.9609648784633387 9.787133960211724 -0.6825605264185793 1.4259808644370084 0.6897920111700121
Ni 3.4596199142758515 6.800565429663362 9.558469619570063 0.6515054568849876 1.0042482122079222 0.7141442147621314
Ni 4.144526804264329 7.575048315092976 3.272015223454158 -1.9743305771674124 -0.3898309184244835 -3.8230360254331326
Ni 2.0045342010617073 1.6445104337584038 5.765876233205591 1.2548415531536001 -1.035761966545487 0.07492785965714192
Ni 6.172577003307862 2.9313146721694756 12.237733626785014 -0.38734440455720387 2.353313497133799 -0.052246101788910024
Ni 1.3188915739443499 5.759322654730093 5.421359965236255 -0.5627628028319405 0.16619173747014604 -0.7990893494459593
Ni 7.475135212991076 8.933191464863073 4.5731037982224345 -1.188959091528178 0.08821146413992549 0.7024796339400096
Ni 0.3128685353705639 1.1654352022882095 8.247798068698124 1.7592637112631186 -0.5019317875874969 0.3561695216162963
Ni 4.579761299567387 -0.3236719154367552 4.808807303844656 1.509959264332193 2.268859700264093 2.366940086778298
Ni 1.1863761203189558 2.7458077518365016 12.526550915412491 2.3193358546367735 -0.7835004938687669 2.1221206722019197
Ni 0.016605586998820983 6.399432350283891 1.188448140008164 0.7935331955144205 0.979858470509648 0.2920469801047745
Ni 8.69212719458555 4.127761194439977 9.029452551791495 -0.3496983120696558 -0.1520324152506285 -0.4602066399345687
Ni 7.123894307663778 5.216817686036333 10.744795157961407 0.17659776329481844 0.2329496597219859 -1.4289000949663326
Ni 2.625487141122293 0.13533608584323767 9.344719590202208 0.7876772509542757 0.7101780310255318 -0.05885075158962123
Ni 7.9268962035516015 6.395367402646829 8.302204909707386 2.4728093732093024 -0.29000835240819084 -0.009220747267319604
Ni 3.8033838910309075 6.96862618332777 12.354407740354212 -1.486693094715401 1.372645643348978 -0.47465623970099546
Ni 3.17450338340664 3.32409713513616 2.4962834242482703 0.9157194739378939 -1.1104609980212747 -0.4987726731332249
Ni 2.4367153872799143 6.5716684121546916 7.169343549128928 -0.2904750076319642 0.4259513182961245 0.4967312172231639
Ni 5.008420144281081 2.139302849644296 3.8976649254112314 -0.7488366239379942 0.5392302669276391 -0.6469373778983311
Ni 4.909150812166951 5.090960653427303 11.929182029018154 0.11050267143795807 -1.9004722964253655 -1.593746631262494
Ni 5.162924941345875 6.012903652912686 0.5355807626395871 0.7191691787805484 1.8109236015312555 0.679860610988913
Ni 3.664660655380589 8.83489698444471 1.133901508944414 0.09058433524747625 -0.30875915065313275 0.35057428691670595
Ni 8.622793166902724 8.491556056538759 10.083207456272781 -1.465679211467895 0.5315292987389556 0.1144958517577512
Ni 3.054431083973428 4.744446859153059 0.7329210950191845 0.25676655963592554 0.7335850970955623 -0.8696414486329087
P 0.4847919089615915 7.10432370003557 3.6754750715037128 -0.15949092841120271 0.8228052050056603 0.3981250401124756
Ni 2.9425714502413394 2.351507831041502 8.305206717193217 0.6197955273762165 -2.6937648366838896 -0.2716357634382741
P 2.6817802281957217 3.8372094055311643 11.152212352092926 0.5917689602563034 1.124629576212173 1.250362434336324
Ni 8.98974205993161 1.828573469975951 5.591605858173436 -1.8194568358132472 0.4699752892855584 0.5907942550478599
P 5.368489895154941 5.240296897161716 9.508370519450391 0.37423897752349744 -0.4774016636566165 1.5138012637861025
P 8.252947308928873 2.332397059118845 11.960625594563663 -0.6889294060594006 -1.0238960683458367 -0.16659308667362277
P 4.641756349389636 1.7820840801448476 1.5836870453138965 -0.12139283598790061 -0.3741219923296589 0.3627883124843945
Ni 7.523721453639488 2.217695640726457 7.701834215827218 -0.04570830067039224 0.4931972359279764 0.20013646984670694
Ni 7.958992735798991 8.675508732186975 7.773523521993872 -1.7396521076797782 0.7804221120537591 0.2436883862957287
Ni 1.3174660832571448 5.67632230987832 9.779542072713094 -2.235375452463718 0.32117732181182757 1.541796463447448
Ni 4.031591154981253 8.194345846613583 7.389393327662815 0.3565793554602052 1.4473025087329203 -0.0655808712246032
Ni 4.397859491165925 1.7824887355657315 6.236207228899047 -2.831916894408 -1.3275865462268104 0.7309260622061604
Ni 8.036888904319158 8.285420906454812 2.2836783857872356 0.49333658971931804 -0.0668975331534977 0.48879473598490664
Ni 8.061269393427418 3.154454546644661 1.5993554871448066 0.5273175746504531 1.668898948225616 -1.358363422398351
Ni 3.6619660181460656 2.3475900308302164 13.190293407217327 1.065381846294449 1.6506055492330671 0.22447530370238758
Ni 6.234121414138672 6.933678669705972 3.8051248290121196 1.1826416339505827 1.2366006046655413 0.4190648755889363
Ni 1.0422820036278133 3.1797455104499095 7.334568955832914 -1.6802609102056545 1.142883123105722 -0.2356639733293554
Ni 1.1862933498919568 8.66195277558736 13.224980653829784 -0.8966061501472107 -1.4221517204989054 0.8217117148311656
Ni 4.465639274163992 5.712759691186101 7.762849815596645 1.266578124864238 -0.22759096651323382 -1.9359015837672529
Ni 5.459693708993724 3.7703768840865295 1.0698463951613013 0.37795962090819424 -0.7314019734013145 -0.12739456209729028
Ni 1.8222645240958053 7.9784161960014215 11.07725177471699 -0.29902264009165924 -1.5126131570152723 -0.22977151910432045
Ni 2.1377853918159815 8.295997127682462 5.026581815307484 1.059837262327136 -0.3652234042884484 -0.18922959312621604
Ni 1.665570909072593 8.295509701834579 2.1149398342928474 -1.4033566992795894 -1.0418673081122765 1.2993342362493365
Ni 5.955957599137377 7.1575910681664805 6.279562378561121 2.0372596125914657 1.0199088015633144 1.4199344011326127
Ni 3.733166978793425 1.9827655787609713 10.84296180405363 0.7660889832605386 0.2922490688132515 -1.3474292919843505
Ni 1.4654320165890184 5.750548989468199 12.373749349801056 0.5843983788238452 0.7327278913015897 0.03147698756235869
Ni 7.808405738945482 1.5029178233054532 9.800298136790211 1.5085024772810085 -0.3673736178622318 1.4405942434748094
Ni 1.9283578180802972 1.3556968238165703 0.9259527668377785 0.9050131432639833 0.879269715751292 1.2935004031763788
Ni 7.004695696071111 4.586824376004635 7.351434809841075 -0.23037624256785486 -0.5927673196138307 -1.3638524705373802
Ni 6.834611665302283 3.5901488776532697 3.330890747849956 -1.3003940449724185 1.830303291609448 1.2210667706960006
Ni 5.108370033239425 0.9519150907731305 8.74331242664173 0.3815270265444784 -0.5539606311592782 0.0368567638170333
Ni 4.8151236070960906 5.335317347356565 2.840948678986204 -1.098226917848928 -0.9775251943907811 0.711555885209665
P 6.206522075091562 0.1858131709128704 6.639854689916466 -0.7038266348862071 -0.09356835757646466 0.20493594811787932
Ni 0.6621109947215427 4.339736257984407 0.7134387758464429 0.18320241309552965 -0.479997963628883 -0.01515819579767712
P 0.8996014218955312 2.9953421958102555 2.413516675934918 0.41473462364469865 -0.8687320494447619 0.16535998559747003
Ni 3.007169170157001 4.1194197747413 6.621064883316283 0.3074892828017737 0.047838973860149875 -0.27351189741506443
P 3.9005471756136187 4.200111744351211 4.762866957845979 1.9850659613070456 0.01961674578966299 -1.80638200490716
P 0.5833227449326086 5.499276366527466 7.3855031175938635 -1.2301520208267203 -0.6725519931426417 1.638770761381668
P 8.98983402707272 7.025609023959524 11.45788261932881 -0.10040312111011096 -1.4781755441626931 0.7992379592086816
Ni 6.287085290703919 0.8858146277717317 11.441851826961926 -1.092114634303603 -0.9998315711974651 -1.4575462979481155
Ni 7.415043882989805 5.177575306924698 12.985992081927114 0.0998243657885055 -0.28020859270894966 1.163893149698486
Ni 1.042613085335809 7.660724903751049 8.811718505870756 -0.4845477877830946 0.225933633415469 -1.459248625351203
Ni 2.8161350246433163 4.389876743317577 9.019854860945255 1.995503354590286 0.42335656098575475 -0.035289933550545674
Ni 2.363435969243469 5.792320464960359 3.3402999060569196 0.39195696362855076 1.069642678453332 -1.6543786431222538
Ni 8.940089000446322 1.0661198866035242 1.2038167689590555 0.2568586051290995 -0.612570727493003 0.7223244365800786
Ni 1.1555395379047741 2.8070394743875373 10.099359645265931 0.7674282708972525 -0.31690234858555744 -2.5660368025065807
Ni 6.577379571617623 7.549444663007954 11.494697065915142 0.3765470568313838 -0.20534475352052378 0.1822721879717764
Ni 7.025360712678527 5.584612676763432 2.0898898243973063 0.4254041875434028 -0.36270423741102054 -0.7309576867750444
Ni 6.046811937839942 4.946425094458832 4.971986441658945 -0.5249074225470637 -0.32177818862062 1.5110121310767397
Ni 0.6338292594873964 0.6564467385005779 3.7902647783515664 -0.1844046609337469 -0.011238291917980644 -1.0324503856737508
Ni 4.160575070388023 6.560742715790824 5.287375796367335 -2.366476773988634 -2.181042129128476 -0.04314722481143537
Ni 5.165683955579175 8.795608621762518 12.990447889913893 1.7776658679193902 -0.14743399724666864 0.17167410074095596
Ni 0.0017087494818237364 8.24694185461439 5.961374463748755 1.7196077874343934 1.2118758482253515 -0.3715295490121343
Ni 6.3967193196211465 2.2242069143170453 5.793025852932673 2.389597676276814 0.5056526880825097 -1.9931682786992058
Ni 3.080991194325995 0.7232902960021457 3.2064371338142643 0.12476303801171415 0.664108747471295 0.4629533494417704
Ni 6.815933138942843 1.579029829288086 0.4992261517588055 -1.6550134484927754 -0.7970296387034531 0.4917221940443467
Ni 8.817735915913584 5.07142683265554 3.6114447888487002 0.4842030028491661 -0.5945755764671631 -0.3913170160517067
Ni 7.465699384313191 1.610335444121929 3.1652082644546526 1.1056460931311347 -2.5765310171696854 0.4739121624461193
Ni 5.8197818532958046 0.14666183927093376 2.4204887049024664 -0.7488952450900715 -0.599552203746148 0.280869109111084
Ni 5.152799359109665 3.2359742205245614 7.808668764969057 -0.7995287509762231 0.9946001475951969 0.00492880476018506
Ni 9.191996196660714 4.170158046491685 11.44084202775254 -2.2914201020631118 2.5913647397484083 -0.44833122865322145
Ni 8.187816179594773 0.17819737195755156 12.568480574387362 -0.37859314072713507 -1.2646618816781316 0.2190325354202615
Ni 1.9170550564378785 3.7513488825908716 4.308258664596689 -2.395641568478048 -1.7145676539073245 1.1416459082645114
Ni 6.0811892551868585 7.366705953622391 8.87967946413681 -1.9637810837863403 0.8067044427890558 0.9226174866093078
P 7.967141024501337 3.73578804231506 5.266969207426437 0.0017954013375259402 0.6493603855175268 0.240969701812985
Ni 3.0392013254056125 0.3713394043454776 12.306824861215311 0.019990069968681703 -0.6426351509785513 -0.825355739341656
P 2.4673680354118765 6.84580406637537 0.7055075295971167 0.045761008285198614 -0.21664629457627205 -0.20213473122365833
Ni 0.7706524540023828 0.9525588607609006 11.243594582185462 0.20372341586701687 -1.5901704838754616 -0.6094419520560342
P 1.6843781894295873 8.96830451933887 7.226253735719204 1.3799509187611394 0.3567883861472178 -0.9445883344534443
P 7.244849491651646 7.103339651625694 0.6005601461908553 -1.0719813538888376 1.0595251304033557 -0.958956173139342
P 4.514326678667625 8.66011343276516 10.666200039168805 0.19140500351098003 -0.019455537621450365 0.09977268661496365
Ni 8.113258418296898 6.42666382076656 5.591470666476004 -0.8854210800646687 -1.9061742319061492 -0.2733208644501809
