# total energy = -340864.2525726807 ev
CRYSTAL
PRIMVEC
9.35429239987918 0.00000000000000 0.00000000000000
0.00000000000000 9.35429239987918 0.00000000000000
0.00000000000000 0.00000000000000 13.69095247359094
PRIMCOORD
 96 1
Ni 2.5182316667827758 8.357573925632183 2.0795462176931867 -0.08947567556432978 -0.02871228033302797 -0.40419001535963295
Ni 6.790365114457397 5.0042939216576965 10.159905685084812 -0.9214733457025356 0.5492835373985832 -0.6250639748640073
Ni 3.9360617810234135 3.439882043940441 9.039300731600951 0.945461481087017 0.33190499264197676 1.166286846741643
Ni 8.712148382848593 1.727326235899052 3.074577277797162 -0.9411353429078372 -0.3875950871154292 -0.13842742287268417
Ni 5.015023295155315 9.01102738251939 12.739746593131766 -1.3778248735570722 -0.693113105123445 -0.5149163727726229
Ni 1.9716416474167466 3.7892555145267948 10.862839607580565 -0.2733686869689808 -0.5414244463654805 -0.9747324621369924
Ni 5.774545074701192 6.567321364084936 5.983918462014001 1.2544774849459621 0.16452103463594248 -1.2895277916818761
Ni 6.700685512258907 7.062631151965399 8.371483758579837 0.20286903828652159 -1.1342025646125884 0.003491043872393988
Ni 3.8702823961626884 1.3929757590678642 11.448320098015772 0.5278999295164845 1.5412313349725972 0.05210597666661994
Ni 7.97296283519794 3.0777306097989463 10.884361963764801 -0.22766681405649178 0.849003460667583 -0.7266662584885422
Ni 4.653507952903827 0.20333332064549273 2.303393501791406 1.0917405387936359 -1.5982905418794346 -0.48596446562496304
Ni 8.48329561683357 4.194577008556265 5.909507871463431 -2.669935595474776 -1.9619959668614597 1.2828989735114487
Ni 5.403348039712097 0.40775080379174744 9.104086690598166 0.9255904531947028 1.4475907293973005 2.309973696695583
Ni 8.501124898338766 1.918715060451163 12.862212055113867 -0.20896152433750464 -1.843044650435516 1.1325321188887012
Ni 4.942546236864515 1.361676296362519 5.941079544080528 2.3825875635075677 0.958492346129046 -0.2559875153780559
Ni 6.250173431161438 0.35027522438336345 4.129040835300542 -0.6815683377086391 0.7015846329295659 0.28475713131158054
Ni 2.027804819587366 3.9267542599858114 1.6174769082118405 0.6306412118414688 -1.1173716090981787 0.48410375826714047
Ni 0.5452963207132645 1.7371388887316603 10.912620345978365 0.6371070220714705 1.3145929621806198 -0.29362512322517176
Ni 2.0295540722848853 9.331290294845422 11.028925070919897 -1.0131969367607776 -1.5548910918478769 1.1910365428824972
Ni 6.810140088802614 0.9309625753415183 11.529890464045923 -2.590996557775712 0.313710324010821 -0.7499802506241342
Ni 7.48797083194509 8.627080446852656 6.508172301748283 -0.3083470028163786 -0.26933385477797483 1.398572647627385
Ni 8.204855746275497 3.4561865757681214 0.9410315357886294 -1.0144287522853497 -0.5820409343352622 0.5580016339978713
Ni 2.777747803613138 0.4994892857695093 13.708340551771949 1.0719733834690377 -0.7473970632779903 -0.35594866385474183
Ni 6.0035288008112175 3.208148155835385 7.8706960970113125 1.4045291223211358 -2.535829682795581 0.6167240875397444
P 0.034630526264631964 4.008651090824214 2.620257064222901 0.8172045709894312 -0.5938083592838354 0.6905139769377012
P 6.85243084519558 4.991983672727561 7.295155477786714 1.2009198634344802 2.1591350446427393 -0.21976272871806668
P 5.558460917948809 7.569568325423491 10.64667313305418 -0.3817849081915554 -0.4322422935111589 -0.12075571662453398
P 7.311352435250642 1.2951485681017851 7.354067876523114 -2.8178149077889794 -0.30757747164020577 0.6660111067003304
P 5.9032601395026125 4.815468173250614 0.037565903251164344 0.3175047580562467 -1.0066727624890148 -0.8929533838859718
P 3.7065542145333827 7.485594841650065 0.3741239931123765 -1.1036295769217381 1.96877468034619 -0.48526255446193195
P 1.3504604996548952 1.535198422239433 6.037217349821089 0.09058767768158592 0.20982412944811607 -0.30086560683766894
P 6.398018024125569 9.579356777655658 0.4338511507255353 0.8333891511690937 -1.8347477005340465 -1.0487717485415937
Ni 6.637684352270712 7.162151469873996 12.684461789026907 0.12684897400646541 -0.014380437091388138 -0.5406029789054496
Ni 0.48170116315131306 9.258280041882117 13.467571352541045 0.5770434811206707 0.29291806985581814 -1.1414656739329052
Ni 8.249064132630986 7.860281027741697 0.43606063461405964 0.007304761191529356 -0.5126520022184784 0.4613248126994119
Ni 4.57670921147798 7.062004414367892 3.721995345163303 2.0894059555777176 -0.9297371283732246 -1.867649850578706
Ni 1.8702785338856287 7.399217304704111 12.550578477619181 0.9044261604122618 -0.4798406121154123 0.7481367696574922
Ni 3.519122255708815 5.537348279776076 10.4171309556819 -0.513578884908122 -0.06872661594243648 -0.4529296466571812
Ni 3.3199225969191177 0.9167131815761111 7.333626876551889 -0.84793773840723 -0.00402840443310274 -0.6603307684861014
Ni 5.248665458930391 8.592927924934777 7.336707245072173 0.0130383212411969 -0.426134380841208 -1.901855035705505
Ni 2.0587488191777075 4.160751886875892 7.912973757394778 -0.5887767103971989 0.26199695479692947 -0.09652949708731763
Ni 5.557497425821298 4.018089571956819 2.6092900916957795 2.424569821476624 1.3870265946609983 -4.117864167827469
Ni 1.9714171443967443 6.086061723539628 1.0679356095620292 0.015493981870541058 1.6298109810852188 0.09629141293458254
Ni 6.633615235033167 1.6557658982732628 1.7460619483475086 -0.15600451252449907 2.0960651127654484 2.0499264094258565
Ni 1.5834852801249657 9.093719328220303 8.452383421837729 -1.511418622486539 -1.695015957027642 0.40409488454266534
Ni 4.302394583912455 5.593801435014198 1.1173964311563247 -0.2990210974297624 -0.3015693177729129 0.7390857151988175
Ni 3.256556619523419 7.7808256672458205 6.718027435124848 -2.0381044770902643 0.2549670445333415 -0.7798801235073601
Ni 8.451453605163218 1.3474951889323628 5.565536504795887 -0.052221933419193935 1.7789966709156715 -1.5857708121458691
Ni 7.104575799535862 8.459273793693304 2.302407559361895 -0.188709716067004 0.46020252616951063 0.3082770688103917
Ni 2.7924246885458 3.0571698748837197 5.657211377584648 0.4307248284253679 -0.024858453804576543 1.4062563894248878
Ni 7.628743579779143 4.40448733225858 3.8695967265224307 -0.17523276462649176 0.6155802037432881 -1.1358933220514502
Ni 9.101464682410386 2.2956649853278206 7.531858366067825 2.5233122670548607 1.4787303882248986 1.0588401885211893
Ni 4.344732111767922 2.4640890217921783 0.5247505526660379 -2.234293275143133 0.12645919476721448 1.061347271213759
Ni 2.1060628306432294 1.9570208882390856 9.020256327499991 -2.703347081055686 2.52606643276123 0.38975532799154167
Ni 7.81249930165117 5.027857384465456 12.736008617848725 -2.6125866252416614 -0.006804938736975377 -0.4692134714188693
Ni 7.6765907859171705 7.867465124381776 10.430356054418544 0.10106595150509044 -0.14246508327716756 -0.28985819998357176
P 3.2152293552579634 5.654333061782366 3.0340245489507147 -1.357024134761637 -1.5878438926248137 -0.16560166929463094
P 4.376115763105767 3.8989252397980043 6.831908462879604 -1.795129314811476 0.5387345582381432 -0.0707942971047426
P 6.575431535682526 2.503760576285116 4.374108331935245 0.8033694648785519 -0.1274927782380514 -0.40966775064475247
P 3.431407054935348 1.801019352214865 2.4194784008591865 -1.915179777838869 1.9770356348034015 0.48665532104440057
P 3.2976313178913723 0.44051889041960884 9.507107028672612 2.782213870755918 0.258573016717045 0.07091642450490367
P 1.5023648555640707 6.818484117712706 5.415922079690736 0.1681303492537556 0.19592346020662385 0.2922968913320514
P 4.439603346303968 8.59027130586475 4.963052716883242 0.018281571918007226 2.3245191986099254 2.3952420190467842
P 0.25034425303401125 3.6829159173856216 9.191872983994635 0.42862295159101665 -0.44530426890143954 1.6516751281481616
Ni 3.5877640540745723 7.684354848692257 9.38659942011078 1.728849103527003 0.36694655762714223 -0.6981213569713137
Ni 0.24545289348570729 3.8295350980322387 12.653753517607568 3.2159036953468805 -0.2597053305492753 -0.13400795364874984
Ni 1.1306439801949708 4.673657098949049 5.783194988976037 1.4680397412802717 1.4598502634909438 -0.5876585376323556
Ni 6.212129523563518 2.6343745624640564 13.187659116343458 2.359653580419214 0.09085121575561772 -0.38535179960720733
Ni 4.521490822849871 3.173125684714999 4.059723657016278 -2.9426998160905384 -2.0069612187182404 2.8914510452178916
Ni 1.6270295117129459 6.539501698189629 8.330889870846388 0.6301622153225211 0.7463418825405985 -0.15239956878206012
Ni 3.4563923702031234 5.54129579121112 5.580555756834053 -0.20983055720601926 -0.255819622341624 -1.2827159109663648
Ni 9.009409089916872 5.656942909389895 1.291427430545244 0.007438201445600092 0.6223074951647928 -0.17050219192004185
Ni 4.920806861094275 3.858533404782559 11.739293785094732 -0.4920865193623009 0.5101752585432117 -0.7820372790596789
Ni 2.7175716399599743 4.633536538416107 12.966126084209764 0.5168719538370968 -0.1846265471365659 -0.15251449709336956
Ni 8.984423774649096 5.41532153411223 8.044393148157978 -1.2672730940487336 0.044430719509549285 -0.04010612399226641
Ni 4.4516797379216015 6.40178780400311 12.347733451042194 -0.0022414877360090427 -0.2813558189395154 0.1440365415293455
Ni 1.0840876664219572 1.680189955991032 1.270669320058265 -0.13930545460226332 0.32869368479353067 0.607743995528321
Ni 8.566324317064485 6.529492605214519 5.631787345998617 -0.6117096650442884 0.49168491304850814 1.2397373505223102
Ni 9.079351134940143 5.863410853452172 10.727778590747075 1.2834108801508606 -0.4306368966972519 -0.1682128816652329
Ni 3.1144929793243525 0.9346537791620589 4.474422829277102 -0.27784472046246345 -0.3114994324024313 -0.4956562389914303
Ni 0.28292244752412055 6.642623418710767 3.629047353165278 -0.2186592112412428 -0.8624516157526889 -1.9526242958385727
Ni 8.539168805936686 0.4576821462987981 9.00199300682279 0.03592756713454458 -0.799300694125817 0.6261916607105473
Ni 1.2795549625041132 8.703738873891 4.057108196833249 0.6872651309831003 0.6819498894177739 -0.31355297249735026
Ni 8.324815193296821 8.820901387454793 4.432281741564137 0.6965295870041617 -2.2419633900938805 -2.3646428061036886
Ni 0.6938190998836528 8.863510189792763 6.2756722970874685 -0.43977999664910067 -1.0182887494613884 0.5893953178178043
Ni 4.39995050039603 6.012041206986312 7.7316782144502785 -0.2511504990007288 -1.18832274349576 1.631088562246062
Ni 1.4135832654455915 2.7490301256378213 3.7894369878012966 0.3327254316607431 -0.46128033261472173 -0.007707653056902854
Ni 6.691050590983801 6.0617125001618595 1.7592870470841546 0.18548143893769348 0.02161989226262083 0.02800162741924855
P 2.20946517993937 2.4722459648522688 13.088687895404616 -0.12706726066485857 0.8883477667931605 -0.8138582802250178
P 0.007489982004832613 6.402554855988119 12.889237541575914 0.4988426071392119 0.47171001258847794 0.46730776975572424
P 0.18660878108455828 -0.33984144652874837 2.1267386233562076 -0.009597413880447988 0.24478213358053974 -0.14914686617271733
P 5.923147365357831 2.6547388572367816 10.04203972872501 -0.447308700925978 0.3113305109247348 1.1405215648520808
P 1.7945555360972938 7.1184201524360144 10.409532463884066 -0.4736370544078617 -0.7433714870583649 0.11410967206292606
P 8.885988554670512 7.707918311500017 8.090066416718981 0.05663626043680569 0.19738641790539554 0.05508871344402771
P 7.022136419732452 6.850429026600559 3.8899554087196555 0.2911524933149631 -0.20766028902757783 0.276962060747194
P 8.671775256418147 0.13838740324652637 11.368159423865388 1.777140077322907 -1.0012742171812627 0.9513595917390066
