# total energy = -340871.6628964651 ev
CRYSTAL
PRIMVEC
9.26764197713025 0.00000000000000 0.00000000000000

0.00000000000000 9.26764197713025 0.00000000000000

0.00000000000000 0.00000000000000 13.56413082113900

PRIMCOORD
 96 1
Ni 4.297210904876559 0.9690802375766905 1.849211502215585 0.1324244112117139 1.5406206979717918 0.23252491347974147
Ni 1.5272981090641413 8.263659672164302 4.201936766376859 0.8853017808779851 1.0353840143807782 0.1630902157266869
Ni 2.63849763439439 7.814559015806319 13.620964618159293 1.5883393442039937 1.533609042540649 -1.4063702892949328
Ni 1.9967505069224056 0.4787126255937291 2.2028554475294437 -0.1731936227092759 -0.100407234875169 -1.4108658631724411
Ni 2.144180153455409 6.5434648656562375 5.9273214523203315 -0.2544438250400199 -0.7100921561799448 -0.8194972236783499
Ni 5.044053090915569 7.782177875186108 0.45581135582080334 -0.5324191575430767 -0.3088499105947261 -0.43309435709880895
Ni 3.324896260294587 8.391701411949313 10.060868582437092 2.292550101902497 0.22475323995412258 -0.5991058602373489
Ni 0.1853565440356219 5.709933157762204 10.35039434761903 -0.06436808186342463 0.2767651142450395 0.40813203072651644
Ni 0.11617174410488429 8.115933461092132 11.629872006585666 -0.1778303501503389 -0.1321215352593144 -0.9412122188923597
Ni 6.28592636631593 5.803165634762582 5.877894338047358 1.797054813968963 1.244680039239566 0.9210966790894073
Ni 3.6433787724335516 3.0599251121914257 8.354730935085506 -1.956246208861876 1.4390086441552443 -0.2311455166337116
Ni 7.209465411846909 1.3464030078146012 6.4998226134253745 0.7794816025173608 0.41813902134055725 -0.25273686965124215
Ni 6.413949570817244 8.846974317778693 2.2042252049947173 0.6138567932942782 2.5701415687035736 -0.3692554082659769
Ni 6.254657342717593 2.1874229703225816 11.236132535576536 0.1467775946095924 -0.260612415744577 -0.43619844994542933
Ni 9.473290821572185 2.2190070937437834 2.0939764107954937 -0.6742126686745163 -0.12342734991942614 -0.4295349218823247
Ni 9.011132057849041 7.212903706972868 5.912129933801542 -0.25971458652065593 -0.9036322037560567 0.016441947606107166
Ni 6.759956979247573 8.31949721430419 6.404548474925675 0.6158118601381202 -0.8967431899457072 -0.036062807160828214
Ni 4.353252335137124 0.2904608702444971 11.76198687496329 1.2859542153980046 -0.20202031713298113 0.980672224660195
Ni 3.790382107441503 2.5505755161734567 11.265932637941816 -0.4400412207302873 0.533943564607403 0.16241787225001061
Ni 2.5592314936603704 2.587377321955614 5.944466589740878 -0.14912449757521415 -0.3144783125250971 0.22666099849979673
Ni 5.550835550141381 1.673142988840975 4.207823572479308 0.3982955042520689 0.18375237206172867 0.07632653977688145
Ni 4.530699873618857 6.092436539793674 4.347683409150093 -0.7767888861765461 -1.5437813550879607 0.02451315465001585
Ni 3.786776994762264 8.173383572913737 2.6547984896424976 -0.8868287590454726 -1.5981298479318542 -1.1503403507147156
Ni 7.9031391365985275 2.5916126342805814 8.900959258312978 0.7737056192655319 1.8077254063089319 0.2006370636322093
P 1.3835199134196223 8.071383906724257 9.76042275486454 -3.4840036777177548 -0.4435800871214812 -0.40316285964669923
P 6.76199586045434 2.902838582851823 13.368902368387525 -0.11352191788025609 1.8489718145532288 -0.6202375000096414
P 8.241556346354571 6.387490453338509 12.402674710971938 -0.1674369227311568 -1.3205908316352675 0.4302882551085815
P 4.669075034065441 7.350046271053542 11.532223498244267 0.13595813539658522 -0.5627746299064824 0.9889918002694839
P 6.4440786744681615 6.718521352540944 8.078769290513682 -0.012858344019906888 0.4258968109091052 -0.5808343156216706
P 0.5222316181880009 1.7056353411633731 7.63466574664065 -0.5586258978454315 0.9604623253712233 -0.3729261722493448
P 4.024288120067004 1.0208400173030434 9.529859580653955 0.24102343786905586 1.637965491871553 0.23957899211304545
P 2.824063627135798 5.299524906123563 8.319098705704686 -0.734480098106006 -0.4001662389122205 -0.4904965491673617
Ni 8.333760115109715 4.495501369876567 2.7648990015721386 -0.3012759549022102 -0.03361151740685824 0.19432706225378144
Ni 4.3350321512621 6.522927771318978 7.1528410469140455 2.7516228853429383 -1.9236384501291839 -1.8326301399704115
Ni 0.46567212674807995 7.3300837705109165 0.24843489475209024 -0.7158647969976638 -1.253367796821551 0.6359945057335822
Ni 0.7402241629946795 3.8421974930189497 8.377844433856772 0.3599631843307736 -0.5142211464778111 -0.47984266899794137
Ni 7.864511605372128 3.6083841568119386 6.688432099749976 0.08955563687264576 1.05921402692084 -0.7704457175673376
Ni 6.974817987873493 2.1509269967214397 2.443035653686679 -0.32130433430799504 0.2717879727454222 -2.203345677721683
Ni 5.57234574687278 5.13612711268483 12.815472160679239 -0.8798088760842138 0.16119145604207724 -0.8629781776801202
Ni 5.239377910523915 8.24551362942407 4.242751461079608 1.1835983414368971 1.6620798684212537 3.0338294823185237
Ni 2.4870180283733982 0.7056011798112092 7.853238445827072 1.545221687078913 0.9064737869699098 -0.7436059716666742
Ni 8.106573142824699 7.614220401957694 9.258373280330987 0.14710541026265633 -0.6650929657614352 0.17012089732122315
Ni 7.284338690344528 0.5201139620255172 8.868472466575689 -0.3999659499759563 -2.1177438832904625 0.01519419124193512
Ni 0.4431990220285753 8.869179587648764 7.855517358957727 -0.9178974554258191 -1.9839094791050995 1.4947879559083934
Ni 0.6620571645839453 0.41653045584405374 -0.04464593784310339 1.3571346921975724 -0.5405487286287465 2.4290882781722685
Ni 8.266152667821668 2.4959056969065356 4.361885143519415 0.31206584642886254 -1.2119234136338355 0.6501178325088416
Ni 2.7917844305759254 7.640707322361977 7.9000891556660395 -2.9478299382282525 1.6000864574375926 1.290028128357062
Ni 7.741177827646379 5.059437376384817 8.677015033910909 1.804166742423396 0.7735395260013129 1.0950292368472367
Ni 1.7835484061874463 2.0716701236292696 9.751131017146792 1.7052741444205406 0.5993886815850903 -0.21710909314530355
Ni 8.585524873578132 1.6656454665851792 12.172409954828888 -1.1236785251528132 1.80368234658781 0.27016689220223145
Ni 2.590667334811989 5.322212093369778 3.0745818877755307 -0.0661017767250797 0.0742233773909496 0.565045171108214
Ni 0.9715639655922075 3.8280736068411585 4.223218979118774 0.5135745140327477 -0.37143056154042486 -0.0015606596189005379
Ni 5.721397230729348 4.559772466098995 7.931367446906226 -2.023217532676103 -1.009818250096532 -1.288538174075097
Ni 7.507670323620384 7.20313561246408 0.9388964548388643 0.1565840391770529 -0.7162311791981472 -0.6129227115157831
Ni 2.3972516494245255 6.734563640581465 11.293522407726122 -0.16158097817101205 -1.411713298774401 1.207617072948998
Ni 5.288459341755923 8.530289728158424 8.407088477711117 -0.5128682319943425 0.27285112390261396 0.013144250691441879
P 1.1530521959200801 1.4060495507544055 3.926286514571159 -0.24864804429384918 0.650402710739112 1.3577954657100229
P 0.986392192550518 4.365457819452184 1.7261038549509509 0.43125524700754114 -0.42233686147198873 0.3804487058786351
P 5.0506609195538665 3.518284142756504 2.73412208975598 -0.4680647025264068 -0.583266322101931 -0.6091802137542154
P 3.137504542108937 4.599187746882554 12.180738784558535 3.4171470251045215 -0.7473752089011193 0.7117050091930195
P 8.048177731534503 0.6177003771665289 0.6907303217003935 -1.9091927070174988 -0.24600109358930536 1.5312924785923305
P 7.461897440528449 -0.013626213810502533 11.04116173988682 1.163779249828441 2.8045981519883894 -4.167175612468087
P 7.290075360649024 -0.01252243766629329 4.224534984261324 0.32027023661652587 1.5902967250406805 1.5080965000918414
P 5.733611982686257 6.875051823369609 2.463367933139078 -1.3171769208577122 -1.7915266850618823 -0.47042291834593825
Ni 0.7009831138778804 6.091250281637009 7.873218554889211 0.053017946957928046 1.064819546033076 0.2694279571536779
Ni 4.413047160346511 3.3509661368156665 0.4842815515807597 -0.013403675000415626 -0.5046589567106728 0.03083909686804366
Ni 2.2627596309126488 4.360064051896098 10.35667502850006 -0.27970388515838923 0.19691050671024152 -1.3231583352521277
Ni 6.718947664065995 8.238460953977023 12.45959007985886 -1.1943018438973303 -1.6479462572333492 2.292517706002665
Ni 1.8987081238024257 0.5645152341238084 11.728211881008999 1.1052174902341483 0.09527994095093269 -1.281795970255257
Ni 4.989262792304611 0.6445079579787848 6.2795140849206454 -2.191207756807568 -0.3079636513350309 0.22378496250358235
Ni 1.3088412554008306 2.7917195570829825 13.496459410503837 1.4467376373683858 -0.9713059529539466 -0.20482281957878273
Ni 5.580714427462377 1.986241001065703 8.344219575700434 1.164670651294459 -0.4833756218518643 0.6765477445655961
Ni 0.5655782326438823 6.308965723952405 3.728141551548179 -0.8933827581139067 -0.7477763009942799 -0.3099606271604016
Ni 9.071408800434574 8.54411704979705 2.395045950664477 -0.22153576145808945 0.4025013148033004 -0.15218565299904113
Ni 7.719760307333471 4.246303748200309 11.460754224597764 -0.12879067111386852 -0.4243513207988563 0.11111947908635057
Ni 0.1472646825080918 0.2563828244017447 5.753741300782163 -0.6168135619297571 1.7687711365329215 -1.577205439074361
Ni 1.6245898131943568 5.126359018176042 13.341719448080388 -1.7960842225255778 1.7990525611252823 0.8321421661358701
Ni 6.282237844860051 4.047475759973062 4.49187030780015 0.09208071728734464 -0.5947108164934467 -0.46454229119544505
Ni 5.750210329237715 1.0645184133371168 13.675899491983094 1.1314753954894126 -0.4454436226927812 -0.3681220659924821
Ni 4.43667037941947 5.992540628303906 9.66225896563634 0.013815565726853626 -0.05765853105373296 0.3187766827901349
Ni 6.576809841028739 6.3174178133186425 10.907351819815025 -0.0968629691673364 -0.05136318496332445 -0.6665016731835038
Ni -0.0010870943888811448 0.8519845095794665 10.12996441300608 -0.2736224548509998 -1.551460211789457 -0.9204011956842794
Ni 2.5954587056478937 2.9180653184096377 2.3754587896167334 0.9350731958741574 0.029261467968278637 0.11399525797224884
Ni 3.3307163393757238 0.7925149785989769 4.219312668079444 -0.21397517550201212 0.1950703681777092 0.45933914972795087
Ni 8.607943299210728 4.137761126865475 0.15070390439823494 -0.7851737678061316 0.3422436555638235 0.7588400150076093
Ni 7.48778196421255 7.183970129120464 3.7516350236352527 0.4271944466746062 -1.516537431770343 0.5893215271570754
Ni 6.530286278947039 5.065127708480068 1.3604416316873817 -1.3076296434889092 -0.6502738984707316 0.8599015956373255
Ni 3.637011902483327 5.841051754641065 1.1338959802183126 0.9620661795232335 -0.2004236620698226 -0.9248481757120395
P 8.471671893463853 5.001199515006052 4.982783783888015 -0.8578719668018063 0.29799111350335133 0.19045266690003973
P 3.2024243732607904 1.0367247554321337 -0.06610516254433349 -0.2363615136170123 0.7331318116082278 0.33856672093286855
P 1.8912754750395726 7.5207376986273955 1.9632591028086914 -1.556282572878765 -1.3249812473934794 1.3596106645418908
P 5.450142621452603 2.91058633143754 6.399746909683737 0.102420665760772 -0.36690464864561323 -1.25199379929216
P 2.787586188818354 4.5900683873031936 5.2540115170033985 0.4690455783824374 0.357222645471159 -0.8909085855418012
P 0.1486075638120038 3.320253171728266 10.46569029956919 -0.17384025515433932 0.11205818885053605 0.32307093929011454
P 3.112472641474939 8.518445681875473 5.747257658544641 1.0971884492820845 0.3351492106108873 0.8108148654130036
P 5.892867140218512 4.129828025442779 9.984447607750699 0.62260188647676 -0.4287980437163002 1.395009869976791
