# total energy = -340861.9525979437 ev
CRYSTAL
PRIMVEC
9.39459579683455 0.00000000000000 0.00000000000000

0.00000000000000 9.39459579683455 0.00000000000000

0.00000000000000 0.00000000000000 13.74994056896463

PRIMCOORD
 96 1
Ni 0.3163620705576278 4.088114684099287 0.8343190122883818 -0.43090146321254824 0.7912580263269986 -1.6168281956723056
Ni 5.014976100737347 4.425380669537071 0.3165245970631451 0.2796038692454152 0.6262847346449859 0.14913555331880768
Ni 9.146080454735333 3.8684314583756896 8.388591385497334 0.18424191010363755 0.33584289424380226 0.440600435667867
Ni 0.15572669715358767 7.863285991014227 0.07097147317520168 -0.7673434244929301 2.978403697250051 1.032594367450783
Ni 1.3675337168868102 7.147192328785546 5.981334276594835 -1.3824117215968064 0.017905933746143354 0.6907307209341975
Ni 6.116530024317345 0.15608838908783154 4.131774188671014 -0.4805980591067271 -0.4585133113925458 0.9244159732706274
Ni 6.240266244211525 5.233531974977586 7.884174874541272 1.6096550749626342 -1.8200913840734527 -1.3419405009556373
Ni 2.3973505077424933 9.329105968058423 6.827959269783634 0.5564165488989384 0.4694466704755979 -0.6227291560832436
Ni 0.22346924778853958 0.1383053588974365 2.4947207948196497 -0.5807949777433029 -1.0601907890118127 0.340255164378885
Ni 1.459995327713514 3.6714267866589667 2.676439519881614 0.5258168217352105 0.40234730572393934 0.5360688384805219
Ni 7.1209062500319265 2.2156966053908222 13.309296476277186 0.7879844977820494 -0.4181120247573638 -2.231558906931105
Ni 6.289503320247163 9.05996959059821 1.83657957505253 0.5917085393320133 -1.0975861989411355 1.3010077672970175
Ni 4.347847071269159 6.855508921658183 12.959676597500943 0.5725070267028979 -0.5724890289807689 -0.860596307711505
Ni 3.5566436164617845 7.334266912853027 5.881591854104782 1.1108613187834868 -0.3580747090588091 0.7896726841177496
Ni 1.2190051589544602 9.003085313667128 4.522231435472313 -0.943850170735839 0.746384819963392 1.1360802412512758
Ni 0.007256385714544414 9.192452179084103 7.006391765271612 2.9412610267614827 -1.4961123311467717 3.1769753937127994
Ni 2.6505066779261135 7.851486378821752 2.7218417219546978 -0.910223226710013 -0.39320729109588415 -0.5530684583623119
Ni 1.5040090085429298 5.881073272422436 8.123973808566245 -0.22955606065940468 -0.942286682903461 -0.37243354888364244
Ni 3.9329723307979063 5.411841401261963 7.787911270836945 -2.0313085372143536 -1.174568627134461 -0.5911940615894399
Ni 2.060666987237777 1.5528890899421717 3.00898190260413 0.6666083739646971 -0.8313510376931424 1.3943910054458695
Ni 2.2833189052008827 2.134884293225479 10.504473230011252 -0.33606118090219544 0.7077581087301295 -0.30030484923819245
Ni 5.820853914019758 1.9668807384181282 1.4389176128130068 0.603640771993225 0.3375747893332444 0.7644254795151867
Ni 7.12174236904875 9.340727082932698 11.410993468051265 -0.10721988692162825 -0.24774121620886366 0.2926640448634831
Ni 2.172941800384489 5.272040422729939 4.2634441446293225 0.6025650224305429 1.1335104236415703 -1.887082248271705
P 0.0873650426623586 2.002044710103187 4.108055652920742 -0.4232894551932452 0.11025096043846819 -0.6502759553532607
P 9.153088823123538 5.365629385040001 10.209660483058002 0.23491989607447927 -1.0779712529236853 0.9787292420012111
P 1.7330492515783942 3.078280198286115 13.121816045675697 -0.09370591159559347 0.17259789810680598 -0.8639824505749185
P 0.4188411387735326 6.596039583167761 1.6632201612396615 0.46275074651266107 -2.0394162539231524 1.7735623872739779
P 7.7698849206180585 2.2069596313948012 11.180131612910609 -1.0672842055234846 -0.11704792875564357 -0.9538363354142734
P 1.575764930458634 0.12468695297847796 10.997092007693977 0.8795042003596014 -0.8780286442553396 -0.2436696172426513
P 5.93098675934809 7.547016926953977 10.549558834209426 1.5982085236885895 -0.2027281418332831 -0.4015435788757214
P 5.233287715489526 1.057746923855865 13.229986359963418 -0.7906725861371738 0.42495347315922943 1.2282617457825427
Ni 8.529982869080461 2.3203430068334816 1.9680015136844995 -0.13353795599086682 -0.78403091245094 1.5459377393093312
Ni 9.317259382887473 1.380827069794734 12.255706661016202 1.61495309013678 -0.944148161592232 0.877520080050037
Ni 9.361357615078141 6.948637548779208 4.097730052792756 -0.14800426792784188 -1.030159275646729 -1.0822966197719166
Ni 6.237598179034245 0.18725777868352736 8.85706511278525 0.30388202506648954 -0.09053394162551505 1.241022902102953
Ni 3.219302474258443 9.347622716172568 9.1393651977328 -0.5104763347233983 3.604324106577083 1.7197383994749866
Ni 4.83264578749566 6.964786858778304 1.703549281637637 0.23239995786610299 -0.03626438164867303 -0.5381352340912474
Ni 7.463010452252454 6.2129561545271885 1.436978568261632 0.3104295963770202 0.22902795607007656 -1.7091912200867596
Ni 5.07536456186253 1.273540786961879 11.134853419500693 0.670761219790806 0.36616159983200164 -1.6515044068982523
Ni 2.0066574565892585 7.5999554736933055 12.599524437491432 2.105580251344735 1.1985457067753487 -0.3255129730727039
Ni 2.7272323409642856 5.087164174055005 12.356273929008248 0.012740587495119993 -0.680784408354763 -0.8994839859156379
Ni 1.7918124476484039 6.590290090602637 10.47261427709157 -0.8518918379589716 0.2941745679707385 0.9600581479542692
Ni 4.463522728057333 5.173810530146723 4.856080606455955 0.2095402796591101 -1.7237575479367089 0.8620957750751669
Ni 3.5234900882553797 2.361303444062137 5.83239517483063 0.2726058406610273 -0.4526460539784914 -1.3678263675834639
Ni 8.158755420206532 0.3074663278943677 0.703846867281141 -0.15939399782202227 0.25460709009076155 -1.1143456777876615
Ni 8.584170897047178 4.640479332561681 2.9143135012487535 -0.6477146223839877 0.1467292578701602 0.8350958494475553
Ni 5.161202982724508 7.09747612836948 8.470966958386265 1.73342515293346 3.2556920309884125 -0.25929035449904375
Ni 7.126345720939127 2.5139562295044366 4.224187887059675 0.9388722579052734 0.593383613041591 -1.59108373971835
Ni 3.5671561690440936 2.5315429126448135 1.159820145537761 -1.3814503861248013 0.6395778522094663 -0.047817890814227326
Ni 9.291762450172204 8.338173408782877 11.390066066681872 -0.4307471970228711 -2.9602730490876112 1.4043164920896976
Ni 4.016772124394146 0.45242400000318284 2.2185807462690783 -0.1708436344198606 -1.5946262056539697 -1.083924385183327
Ni 3.032688225379999 0.65078900917649 12.538377832493692 -0.4942732426009745 -0.6745057744349028 1.050565607217223
Ni 8.435933571581362 5.719664723792727 6.734803398335096 0.5677327452427061 1.0213740732549312 0.17599895336855495
Ni 7.976180847476786 0.5336675241109102 5.824887013951469 -3.0137851620731384 1.183404737368852 -4.177217827195438
Ni 1.2375876692384693 8.182899531141771 8.887370199577036 -2.2588038586899875 0.6654405789088411 0.6534250425052036
P 7.381155339965004 8.18837658043175 7.226460169418689 -0.5308834376248405 -0.44618744283734124 0.16552042243473428
P 4.821785634872651 1.8695433324259032 3.562444779303229 -0.002460031504718344 0.913508582329504 1.1084848481315104
P 3.10825835314773 7.668066292479487 8.21366401366303 0.26808815529633184 -4.304957688447289 -3.374981190369749
P 2.080809000407098 9.081558371504505 0.786001667171249 0.5123229010138337 -0.4871469159688384 0.10759372532127923
P 4.936390307751634 4.467910004246733 11.68194957869753 0.9083401507546873 1.6620639275816536 0.9205775733611435
P 4.905256617619578 3.856819738097107 6.672131110996545 0.11725284567759806 -0.857071325277382 -0.18887323822806182
P 0.6507129129513632 1.6780251045948538 8.488388296642418 0.8823851214518224 1.263732684995643 -2.5671842858474627
P 3.4236067468299054 4.60100324145278 2.025889133435768 0.07426708614469145 -0.12460902893235314 0.41900368333369775
Ni 0.43317917072270096 5.86625799501198 13.006206151057386 -0.3538619565290422 -1.535088455299653 -1.2009262911923835
Ni 6.391932597105886 6.024425408127037 3.4552092272871247 1.2556342242582246 0.25172616899854067 0.38112233490689196
Ni 5.397909215846804 9.226967923666232 6.745198518471222 -0.7733261244389261 -1.406636398472126 -0.5999643515829022
Ni 6.340083823467137 5.170672735184711 10.181143187826905 1.2008740977982093 1.6756092703662562 1.155420079230468
Ni 7.860664898815421 1.909648861446346 7.702813144115704 0.5630024296465723 -0.5004919698171767 0.39270566886911723
Ni 2.7483326028944606 2.740591456042072 7.986199244325555 -0.5091912973633876 -0.3095605635085056 0.7795211975060446
Ni 6.83647547078083 3.0867635181983806 9.460962876471052 -0.19206860523690794 -0.8846944863112892 -0.16811106598004594
Ni 0.06533565521798367 3.6851241071817604 11.55109131580724 0.5521521171956296 0.6108059222830965 0.061897251725428884
Ni 7.046905019745203 5.190175915846796 12.816044502844642 0.26348742329952685 -0.499874647948152 -0.04548615735725715
Ni 5.869236081847184 1.8389451342484417 5.9074006873971125 -0.5217801897719917 1.4313081901871931 1.1362054539752304
Ni 1.0685507089047077 1.9644851165159933 6.04554633816774 0.6783341470420576 -0.7974230174871298 0.6652780851890479
Ni 3.929233281711437 2.8315781153447164 12.464073156766029 -1.0058070720546097 0.30967626315076346 0.636318207621588
Ni 8.388472074132011 6.754075471943093 9.014983569114397 -1.2099922580493936 1.7926962798899513 -1.1757960717836589
Ni 1.0767991639246066 1.6201637897115304 0.822155829242524 0.6252838041842973 0.16934211017366965 -0.7559814625128916
Ni 2.6932802721238356 6.176608463784605 0.7000025987228919 -1.1020223803356182 -0.010758781178400826 1.4010887291810195
Ni 5.975883532172803 6.9466177107048575 5.565480619252201 1.1123103925251876 0.9157780950899712 1.7406422395071892
Ni 5.9233207692612595 8.471764559560741 13.497986930804148 -0.2546114609661357 -0.7880842565847073 -0.5981278125947957
Ni 8.678999945988933 3.418496086772018 5.878512305636077 -0.03877532099598483 0.6036479710820766 -0.382373947925806
Ni 3.4835254781703564 9.23495333000668 4.490290749570087 1.4319720490234369 0.7395891371977972 0.40969191901446866
Ni 4.147112745061662 6.119479927365464 10.272195609299413 -1.0206963304616163 -1.0361504602331575 1.2927684101063608
Ni 4.354789677487503 3.6644466020578452 9.705574661870392 -0.2596397674186625 -0.1589597384980811 -0.10359540279516352
Ni 4.104658567117558 8.382901078885086 10.927063751926518 -0.6642792116108882 0.17294473992326345 1.9500845601358545
Ni 5.456493914598615 3.992383753970846 2.861128816102225 -0.46153461471737284 -0.8256447313369843 -0.5796505797262146
Ni 9.092653389019882 0.5107813495391836 9.87993741850345 -1.554121303561388 1.3477897606475626 -1.0153427794591867
P 4.441623925493113 6.978427811726928 3.830815497214328 -0.5060756345525413 1.9878671782012667 -0.06832063875326942
P 1.4060421646391632 4.930030166466359 6.066459647643591 -1.8657917143240448 -0.7867007459736193 2.2457976762383063
P 2.1506766085881783 4.583595055630601 9.935652068270548 0.9331042450732446 -1.4366643122927838 -0.44319365031634
P 7.956452196518029 8.47839714412116 3.723869298745619 -0.27619870021860826 0.7564244635875812 -0.45249513022292387
P 7.6689212006877 7.310911947956138 13.035191297154077 -0.07039603322505941 -0.27021908559640556 -0.8704747431674814
P 4.461953830576327 1.5800582606910873 9.022037031561938 1.1871657470731813 1.385968328599813 -0.7262224860829042
P 7.403420531761315 3.7394342648925076 0.9439126078238418 -1.133547447527093 2.7102139833788486 0.7433989978621908
P 7.24082826407408 4.902100033466177 5.198714663873659 -0.6639506246268758 0.21651413987378193 -1.3326912144432275
