# total energy = -381171.8779370106 ev
CRYSTAL
PRIMVEC
9.19012959022760 0.00000000000000 0.00000000000000
0.00000000000000 9.19012959022760 0.00000000000000
0.00000000000000 0.00000000000000 13.45068360783567
PRIMCOORD
 96 1
Ni 1.8084796452670506 1.672612769866852 1.5359197018192998 -0.34524618983557315 -0.8277995728964583 0.8527151051912154
Ni 8.140892467245529 3.0491287554724082 4.745737872630755 -0.131081009809942 -0.8733680055548766 1.3364619943395692
Ni 5.2988816616442165 4.810701979470343 7.6122936762582345 -2.0258164037515303 0.7725154556121728 0.7801907127692435
Ni 2.1110554708674387 7.60973973925379 4.205100930934131 0.6701300139647104 1.1544345753887473 0.39238505230490484
Ni 2.8994123548268025 5.007582125012717 7.433574145737393 1.1778128451033714 -0.18347572136157436 0.9281471581782854
Ni 4.704151617363342 6.741318446576452 6.228635121959426 0.1781422249638029 -0.23373898839250068 0.008976749577313573
Ni 1.336529731894364 3.6630845507907033 6.2373106042631195 -0.34965563175717845 -0.6842600256081892 -0.493056339474738
Ni 0.10232933560055406 5.652113481373791 1.7957338545816788 0.05579062460705876 -0.13112420434305158 -0.9566707195392752
Ni 1.7044198082705375 5.050380558368961 9.65746970338201 0.06861605850650118 -1.479664984224026 -1.9571576649325522
Ni 5.259382484799651 1.816750761870147 5.178472584162249 1.0258017700089819 -0.4694813803682753 0.3054077176823966
Ni 1.5797832711914324 7.337289158347791 9.452602416239914 -1.2116035684005715 -1.4527357639333496 -0.1574975521302578
Ni 5.783881558990677 2.9494526102755363 10.86726479161895 -1.3196431230100176 1.7578246648237468 1.679633561034301
Ni 8.924056928004061 8.256927043057415 0.8918423378584396 1.0031639780048078 1.4096875265936237 1.0611109868332371
Ni 0.9287177327139116 3.7695705819907905 3.4576998593544337 -0.3270517783147335 -0.4073162196934405 0.007875031872702568
Ni 0.9863674154374941 6.082524009139815 7.612387415579736 -2.4481074995872483 0.14167421194475602 -1.2606082804340484
Ni 8.952187914584147 1.3861931920311792 6.496949225550922 -0.6607981950408232 0.30239464188768567 0.8614465715269422
Ni 2.3225479224086163 3.9472801172730985 1.3537575487656583 -0.6455299560278431 0.5462840884506269 -1.115390317002092
Ni 5.293055119503813 8.427247714174289 4.551294030434471 0.4993025774947659 -0.6724828304676032 -2.3200179683054625
Ni 8.041868821247347 8.02003307341517 10.222142509927233 0.5859346129627135 -0.1847900692976237 -0.3113012003486962
Ni 5.123662651472396 0.7497519067208888 12.720674980299933 -0.5861148472943196 1.200014063790759 2.011611573006058
Ni 8.044965894908728 2.7246620412624916 10.788524680570427 1.5305406880279704 -0.8678113374027054 1.0968644902837628
Ni 0.2936917273557066 8.779441049263697 8.185144779098007 0.028840321270460007 0.03457182443759853 -0.6584831737544015
Ni 4.522490326370666 0.28665116910055966 7.387881740583021 -1.1469616640504698 0.8482742958110423 -1.0221639161460785
Ni 4.402549945496207 6.169444254508801 3.6726818030891626 0.3613528655894486 -0.9213031386732585 1.921455326434936
P 2.9611148846859026 4.37908754473209 3.4522657357461997 1.4639979671107304 -1.0214123826920345 1.0425645912896173
Ni 1.7122314183956844 6.8491370465625945 -0.0802059367131827 0.08645334379823821 0.1988097806154834 1.1766720466307092
P 7.405176645400095 7.037139526950978 5.205683638773481 0.6229672402359787 0.6657601670317889 -0.43883717311985715
Ni 5.339961540772928 4.715630089182528 1.610638212172806 -0.2078420660210808 -0.20024034241442287 1.7032326885104794
P 4.129887991610351 4.534483445445155 9.632572723393734 0.21597446532022807 -0.5331627205773204 -0.7431904813958103
P 7.1673728529315115 2.0970864739377646 12.866076615117588 0.028987388371285564 0.7389255354718693 -0.1165391074400251
P 4.266205183358941 8.71267475801759 9.842511124026485 1.1900204429131571 -0.2423915218611761 0.9397351201262009
Ni 6.871809096184638 3.6868777962189436 9.018091252664664 0.5525786632100871 0.17150595059420787 -0.1583691561019337
Ni 3.5879920021641456 1.5929894873677097 10.985832167137294 0.3755456121500629 -0.8990841793740582 -0.10521339801456074
Ni 0.6927289908332297 5.983095997441037 11.526482894028256 -1.028651323642635 0.0653795538470745 -0.790924811357296
Ni 3.986797674376782 6.684633727456563 8.838564828768543 0.8116268197913377 -0.06429120587890218 0.5024627203903024
Ni 4.068203842010369 7.868956533594834 12.740971381430976 0.604644530667391 -1.252355553506953 0.15260911368970492
Ni 0.4034843671711214 7.914070879599946 5.793586335804978 -0.2727595926300722 -0.6626241925059685 0.7628807607358862
Ni 4.001299698820878 2.4340885248661523 2.0528167008391245 0.5040652889907319 0.48418603356830164 0.47438550253811207
Ni 7.560168180412565 5.051575275211631 11.195474645598246 0.5952556332533233 0.02277920267804464 -0.31552860816648237
Ni 8.985713507215365 7.309038700083437 3.4066679889262845 0.02339549610580487 0.4559175256409116 0.35907923906392347
Ni 7.724147662133732 4.112518646743848 2.7618829849893816 0.35034263052187403 1.7707873956320017 -1.1568208162327367
Ni 2.2022307462222392 1.4250950104544098 6.937593881593844 0.23681659887655987 -0.5235601644905499 -1.400474749746104
Ni 3.122649791944377 5.985007544389307 11.010487446718168 0.8923103509853343 1.862108866155819 1.0875915496222688
Ni 3.7228571534424133 5.529517153056783 -0.16970952750120177 0.05216819736312305 0.1526240260880404 2.499611066783179
Ni 6.602152314664574 8.44562797329228 0.44914644489794947 -1.9356385599138535 -2.123096148741311 0.8324147030709663
Ni 8.128779876486773 0.14239370541299762 4.585257073232698 -0.5384481373459759 0.10737466733193765 0.15782716755553464
Ni 3.04718963813546 2.1516574632590837 4.642126513956721 -2.124073425052916 0.8752652225775894 -0.13332352598721556
Ni 7.859950206627018 7.11538429001627 7.474571313700075 0.041058460603206705 0.8280885648917868 0.09830150138607585
Ni 7.563246873814829 0.8809456012403379 8.978008502593102 0.616803534627428 1.1671453380871963 -1.0529996705800122
Ni 1.4000978580539403 3.181043875162238 10.906621521455351 -0.3410552916826771 -1.2033482703703147 0.3710340974329545
Ni 2.7110238889969414 7.652997679087984 7.191314059445653 -1.3047093845183206 -0.12944810219220934 -1.5354427533152784
Ni 6.143721081873171 7.429989995209385 11.591166701916295 -0.5578854201349811 -0.5032888158360236 -0.19530433856538623
Ni 6.811383994334238 6.697049592490767 2.537875415014763 0.6539847716634156 -0.534515377950473 0.15312359143227824
Ni 2.8047080697213476 2.4798002292925987 9.108439416359156 -0.41190898127044545 1.869261160929884 -0.7998190285231322
Ni 6.3013961347168665 5.1381830561756106 5.040979974843064 0.934894761314764 0.2092813695707686 -0.7087775511335793
Ni 7.46674132331581 0.11368741672251735 12.119038553655473 2.415871522371678 1.226822699343171 -0.9381032409497326
P 6.169628057099981 3.153813521278933 3.678022187375895 -1.53579396600711 -0.21833705201513365 0.7909592641396571
Ni 5.865783993620451 0.8237636961113082 10.608137141534629 0.3247431847862149 -3.049887821332967 -0.575854345908576
P 0.8310101132685765 1.8073400692017352 4.599098327361501 -0.3407228480439229 -0.26885074449396923 0.15620737256392453
Ni 5.211327297335661 5.09846331622163 11.626165472315819 1.2238882993051954 0.600341789526979 -1.2640242480941328
P 2.2111819324127016 4.4795172805528 12.32299142290645 -0.6809857257322918 -0.498982989371818 0.9626076538490002
P 0.4134602528074116 8.363688778144272 12.082224732668045 -0.29104707808535035 -0.3206204208670929 0.7031951719497954
P 0.7787623886997718 1.7239855941016404 8.630577492641166 -0.8933161665420292 0.3242906706298286 -0.39273189412136233
Ni 2.964322239901992 2.112856736261002 13.087192051319992 -0.13968186410507558 2.2086794312297706 -0.041750601574224874
Ni 6.43108724305342 2.2070463741111532 1.6647506140291308 -0.1641425682506012 0.5572709264794338 -0.44742054391349395
Ni 9.335425507323846 3.844837743078969 12.899972569970036 2.0932867786893623 0.7719765523895672 -1.0632514302150076
Ni 7.345569465080446 4.951283391334306 7.2276306944239375 2.896324828370425 -0.42480640605840386 -1.6484627918584516
Ni 2.5891995315628886 0.05646139897160444 8.779436454198917 -0.522458703896255 2.0877218830070756 0.5061334843736702
Ni 0.15066298399018233 3.9122473433942053 8.323336757276632 -0.5616657131130198 -0.947389037127033 0.43531296201668257
Ni 0.1300798508168987 0.576142088234849 2.690943455910535 -0.12917942191185494 0.6437805774369041 0.4586986879304745
Ni 2.504668719879242 6.08733044689917 2.383783593686119 -0.9530331227866877 0.8450933269798994 -1.4624113393499008
Ni 0.6659921469072423 0.9001575670834193 10.670898374318925 -0.5228433409291834 -0.43318228882692494 -1.0935539378532908
Ni 8.770306060482055 2.59550396044036 1.2617496476728127 0.029855649908851808 -0.12086730250173378 1.3780097358743686
Ni 4.005076842069625 3.0581442725697836 7.203863181358463 -0.6140974485501747 -2.3623727791225893 -0.700641038069374
Ni 2.422582482658289 8.535498250249704 11.015155113521184 1.0971023173261814 -0.02274269301315438 1.2252900647487286
Ni 8.170061938465784 6.761849196011249 12.99661505339948 -1.131352496758303 -1.949906125576461 -0.7201228009430695
Ni 0.3725935846844677 1.3897865326887466 12.966674530309229 -0.3856315356311552 -0.26829487199049923 -0.26844682418733123
Ni 5.222934430968673 2.0486085405140604 8.838551962587161 -0.027698494356532943 -0.3064410440429174 -1.068332958502973
Ni 4.99080094843799 3.3735311387754123 13.166053472078692 -0.2677351428322873 -1.435333252186186 0.1775390441621652
Ni 7.290989285629569 4.207222931849303 0.05766254890496523 -1.5438314915996056 0.8007063162240919 0.963972652517327
Ni 2.254706386004107 5.700113528060427 5.359277355080027 0.05899653313886614 -0.46099339750192225 -0.7210802797603324
Ni 4.6800918581778905 7.259807176035895 1.7819468222172732 -0.7359034608160939 1.5836591651195049 -1.6670577812518192
Ni 6.4279901693920385 6.191013488583764 9.328613783294717 0.346455636762642 -1.2452613656643328 0.47508792792177534
Ni 2.3174749708920506 0.014183126948398706 13.146106295870894 -0.9277843755222279 -0.11329180414732101 1.5957410359847035
Ni 8.967829515093559 5.259768470241129 5.170994575740094 -0.41112556613720164 1.1396383909161791 0.06265007073105339
Ni 4.283712380168828 4.091390538887716 5.291055347311776 -0.35130139489071754 1.3955546867366675 -1.3763300341791005
Ni 6.507935106425745 8.913203384994887 6.312755134851786 1.8150931595279125 -0.20153592129739484 0.9689029999394088
Ni 1.831124124500417 8.312683559091843 2.0217586579944973 0.39138437895453243 0.2292256739031794 -0.7916174665489464
P 3.4950981725818124 8.812874740599325 5.554284552218277 -0.7952815456640948 0.565991079961251 -0.7436663925909645
Ni 5.950673220356898 8.223879337163265 8.575348490043424 0.5915573584661296 0.5729605693005487 0.7615982944790367
P 8.681961345031425 6.07542922912027 9.52588175230448 0.6843222463046924 -0.9939411738549592 -1.0206549357007197
Ni 3.4583652247345054 0.3487599026861672 3.3112082751710803 0.3863972101525862 -0.842795274974342 -0.6221848535439995
P 6.548858753351955 1.7938949096569239 6.997530068551705 0.37815811007224553 0.017691503742492114 0.8183368848216617
P 5.973970198788953 6.077818662805609 0.11842768554904753 0.4502248461315084 1.5193972698166411 -0.5132994059944902
P 4.920119661999751 0.5063154838455967 1.6240888857953524 0.25599985667323005 -0.9531958736167971 -0.15691776836738783
Ni 6.860753370325165 9.17955171987371 2.5359785722737866 0.3682123117134432 -0.18247736200404704 1.2037794443704624
