# total energy = -381159.70200560923 ev
CRYSTAL
PRIMVEC
9.38929204542877 0.00000000000000 0.00000000000000
0.00000000000000 9.38929204542877 0.00000000000000
0.00000000000000 0.00000000000000 13.74217799267406
PRIMCOORD
 96 1
Ni 2.2313651847407594 8.359662018018463 0.5142045627701565 0.09216067859566063 -0.17687210000212766 -1.2017300180406012
Ni 4.090923805414406 1.1417378769807547 6.285603149423758 -0.7028182482263509 -0.2269024250866415 0.7588258739402222
Ni 7.495227483626111 2.3874621601092216 5.342271335372838 -0.6109411623093801 0.1741369604591517 -1.0467603745385197
Ni 0.40980784457290387 6.8115931512003804 7.6129325839519195 1.5179219708226956 -0.7389761862041467 0.157941838756528
Ni 1.776238045670956 8.944445886884543 2.7222157621374437 -1.0906082249614057 -0.8913431019760585 0.5283745551600577
Ni 2.7037873992168016 9.360147389889855 4.857379202521648 1.7416326284449166 -1.8975530658960418 -1.1232082703846138
Ni 6.921231910982488 2.2342195294332114 13.06405585645809 -0.7932627154618532 -3.385437352706066 -0.8199530802688458
Ni 7.548145531937488 3.1472154807642525 8.305098965792226 -0.36093428999479127 0.27084309233364967 0.9044019920425457
Ni 8.534349791054868 4.694664654326737 7.341112587746386 1.2337880749174106 1.8629344473809077 -1.0319323083867518
Ni 7.071826761384579 8.864899807165951 13.684734987690105 -0.4040046388217042 -0.2856354201514758 0.14085634402915098
Ni 6.422275558016746 7.571440364772926 4.673288992725303 1.0988136435903333 -0.027678953972507168 -0.7450578736218524
Ni 8.399200325583973 3.46599132501897 11.110275693058277 -0.007409405090193692 -0.16695664066062857 -0.7367863776416794
Ni 9.089810901781057 0.4912148819166419 4.545294167569041 -0.33323836674141966 0.486530108320446 0.289000994189599
Ni 9.051014348263916 7.980428524175925 1.3176312350780512 0.757343890078057 -0.017675048682259883 -0.2728302979670076
Ni 5.054424757076693 8.290143701890457 7.110560406646986 -1.1200342435320065 -0.9728568423808344 0.7217019725047312
Ni 5.725543163597692 1.125898141795997 1.2801688999187955 -1.058201783606242 0.7650214612279728 -0.6590480451189359
Ni 6.304749793163389 6.383835797586159 13.384303941659441 2.063452211826433 0.9882047855918141 0.08863878148533122
Ni 7.877334100744603 0.12544657137491014 11.41098184533726 1.659027454748175 0.5459099929406599 1.7950503819444248
Ni 9.478959487713166 6.325941424646494 10.933634008408388 -3.435359177237174 -1.4527596751927496 -0.28886781104584447
Ni 6.85050237621854 5.471703661096255 3.3225154356228557 -0.28769590222493036 -0.898200234107208 1.1652077547448512
Ni 4.41947390238242 6.010160764460501 6.055587096883367 0.13384520281864046 0.47037689559935114 -0.4055627273374435
Ni 3.273679851365024 1.7080436196799096 1.8743645948365657 -0.4096734070717074 0.6559943458942767 -0.7122652525718636
Ni 1.1060867362003606 3.4174205187885303 6.661190781279194 0.5190347658163705 -0.5229161031486478 0.5461586186163562
Ni 2.2529417771856752 9.384531380568465 9.009082710230953 0.5781346573023204 0.41294436451349525 -0.014388921731820381
P 6.504891936138075 -0.009668153716505618 8.341364166253166 0.20393553187782298 1.1245892098925405 -0.10033498687633688
Ni 2.7604611642287735 6.901185773093064 4.006215493090846 -1.9783019031103348 0.34627848775482944 1.5721174830284925
P 4.530934184764317 8.61236541621797 0.9172624455029168 0.11690548964050836 -0.6201536820465836 -2.2554336566661735
Ni 4.3037508815453505 1.8953036543715558 3.995071342711006 -0.5141262727711597 -0.674897867666999 0.6175715231417042
P 0.7814979814222982 7.933190997374196 5.4342478984412255 1.5674679000716232 -0.20391984814853908 0.037343987866096974
P 2.679215622703161 8.913198323935596 11.736643796162516 0.2669378437419725 0.09191513824375783 -0.35668631335171475
P 6.959136481783238 7.587552389418477 2.08078535720547 0.2517961030045276 0.22462674167858737 0.3302823694368892
Ni 8.430241324114387 1.4178581688084688 7.084051619245014 0.9454128872372686 -1.1177472472700425 0.8596563123957389
Ni 6.980290556099337 3.467174375779657 1.434793634340625 1.1069900087535387 -0.01669160172306803 -0.8338372944501059
Ni 1.5558150325130593 2.442492799064684 12.94025241113969 1.7423576795363995 -0.7580648274044816 1.3986220128080815
Ni 7.883521644008833 5.749100896602171 1.3859946683206243 1.0392051878990813 -0.3606640670525401 -1.3159636172759015
Ni 1.0561357040824526 1.033601403878885 1.1825916243206476 -1.055294123041144 0.3054740521439578 -0.7505140116404171
Ni 4.312060404745416 1.3217681570237563 9.190397445385557 0.5583456476008513 -0.32062196352898975 -0.6741471055439034
Ni 4.155972818668705 9.080064816943015 2.858469408318315 0.23853409578829887 0.06271357697913715 1.5026930696880831
Ni 8.185791113364436 6.0632102628564 5.302968699030291 2.0377062132105808 -1.0307303176588507 -1.3423871015747526
Ni 6.510581846939476 0.6396267219865128 3.440505031488735 -1.6247716188890984 -0.6087526392984935 3.461702700227709
Ni 4.6459811765952805 4.16250776572774 4.221459372918622 0.20097002149159585 0.9952197834570667 -0.6430768665016603
Ni 3.565254917415685 3.814277713248609 9.110748083457697 -0.023153298188011737 -1.0225094724109551 -0.3299638097552059
Ni 0.3013990820102411 5.5065567120777725 3.0864245113192537 0.17587219798270357 -1.0796692094513984 1.5925202150545605
Ni 4.771638068105424 8.059721093017227 12.311355771766777 0.10341722534608641 1.3679266406067538 -1.3134724754229314
Ni 1.795833497556308 5.7717384790150055 5.755347592404435 -2.067970411411761 -1.0797226883971534 -2.8941525033094546
Ni 3.6035068920112407 2.3308259522642554 11.27129265730452 0.29518089774806583 -1.0818816437216852 -0.3757667270219335
Ni 6.750647258441481 5.532396042977863 10.65778694497064 0.6153873710061918 -0.20207302474778752 1.0913471600099593
Ni 3.8188033518728255 3.6713069677487247 6.5298017271547675 0.06061170014478594 -0.2660027335222129 0.24473765349584944
Ni 0.7778652644436481 3.5257259991419265 1.4687368629514237 -0.4914095478999344 -0.3154532748438567 -0.04490097427774847
Ni 4.04426841470127 6.502009423570368 -0.008317973562641863 -1.9163663419478028 0.8343350600221309 2.204326039357081
Ni 7.667830833893685 1.4419604807345345 9.748096024336125 0.4573275186145608 -0.4788805621949882 -1.631520507577158
Ni 1.642018120083457 6.299210111030011 12.510356176864482 -2.587145816571054 0.44923137186998763 4.167837157311486
Ni 2.6684179371889516 4.6217849717516994 0.2505485557425407 -0.6037191906396441 -1.126877748816401 -0.3162107218351715
Ni 4.651830705356456 3.162745369321211 13.094096895416971 0.2154072799628484 0.728121759988146 0.42497866997021
Ni 0.42007409617397923 2.7638788664263143 9.080652586606657 0.6423824115377968 -0.6474407998973107 -0.2457313848676865
Ni 6.339753072812931 4.433482725675638 5.884991177192259 0.016465858865507128 -0.29757819433564875 0.6662615321482397
P 8.90393109297688 1.6728525541953383 13.344863282728147 1.1300414912563634 -0.6293263496847871 0.014185290361446539
Ni 6.366287211302631 7.8083885314134385 9.913221742652816 -3.5796047494535315 2.2231840526038487 1.893616964066429
P 0.5080940116982892 4.916852854333913 9.071651072604507 0.5382475912993956 1.1909013028562137 0.4055727546397725
Ni 2.403733802714548 4.080295127151723 3.050158371929137 1.154221945157309 0.035112784542733075 0.28037082931842683
P 7.523320244546558 7.532089843042446 11.69015459591338 0.30852338049324285 -2.107180248842003 1.30948649419199
P 4.403512106404894 7.918496755783121 4.764839281948173 -0.03961478617814468 0.7377417995764134 1.4191363307113496
P 0.9305389040395187 3.5449646579407226 4.54232527351722 -0.47096953487802756 1.189528847988719 -0.06366334248691617
Ni 4.681632317375675 5.848993571546236 9.632716651577157 1.3203643174467583 -1.4032124603922413 -1.2539020720584662
Ni 0.759331741455389 1.4018682049556872 11.13488784352645 -0.5862176914207711 -0.8144601754750747 -0.8896520874268807
Ni 4.077018264330455 7.919116449038718 9.398880096223088 -0.7825440434927684 1.4501842011560895 0.11800643601417098
Ni 1.5696924057217565 0.5162758405305344 6.565380570388675 -2.0208487753336097 1.352189175266839 2.174282956027772
Ni 4.71722712240556 4.6279912935994325 1.4211472377090144 0.4150115314551691 -0.4083847701672709 0.7282675415373909
Ni 2.7173267579224447 7.734504194620991 6.796454796109458 -0.09889156956159098 0.5919903322384901 0.26296420380620517
Ni 0.32128372408153916 4.259499149520594 12.93298322146569 -0.5850892342432826 1.816345800988091 0.37143878907054095
Ni 0.5929403466105966 8.464700024842342 12.035646730917778 0.08630781935930941 0.05853270612857016 0.07043357133121418
Ni 3.146163880088086 6.139479479753724 11.241952998439475 3.3245016935629583 -0.48519082068373215 -1.4157129068520975
Ni 2.5555023145855755 5.572854501135018 7.667901253581822 1.0305251436265799 -1.0203592588371715 3.7161185002432706
Ni 7.973133044485019 0.8789053108397442 2.0349139723535834 3.1815987514174235 0.3333656363479033 -2.530596973641732
Ni 6.49234784235809 0.16928893027930106 6.011405784546748 1.1915700467884642 1.5829382277930804 -0.9444682639358121
Ni 6.074045505537615 3.095480483213562 10.077482707199197 -1.5467111271402458 0.3956650086077573 1.0281054784414938
Ni 4.716767047109737 6.528909744438377 2.96913441768886 1.7929490193307058 0.49932571742321746 -0.41455078976866666
Ni 1.8750321734800963 3.7064229188992837 10.92063359504928 -1.2068272300578506 1.4817414071370805 -0.23034487510928717
Ni 3.6955782869263167 0.7690646812849798 13.312926545764642 -0.11686512332087616 0.5325055466092958 -0.5186964086403454
Ni 2.6590192561457133 6.377375964861137 1.9280140689753842 -1.0759696491126245 -0.5834812663262143 -1.4898249554761631
Ni 8.520181349801875 8.324893470662708 6.616913698166709 -1.5331285033598048 1.3416188559501603 0.09477394784879162
Ni 7.310774847168158 4.262935630301638 13.137054783038373 0.2131354532095362 2.873976542582212 -1.3615446483398101
Ni 1.7458636868548971 1.688786182297611 3.911518852202054 -0.4945946304961354 1.2157882959058803 -1.2982500020462222
Ni 9.044066272367814 7.624226962999782 3.680979816111106 -0.5275176064764012 0.5666037738445855 -0.4309508283932449
Ni 5.711168157926166 0.6081500603188295 11.061697375394438 -1.4827353956192335 0.770096561758035 0.10046251359313667
Ni 8.533711319215769 3.258469198727616 3.3668338316190467 -0.28100434913736766 -0.21361624950069666 0.011364790193515911
Ni 7.889681019397807 7.050447344066444 8.90387287936802 3.2755131794793977 -1.830317946897467 -1.7778381318311962
Ni 0.14456316938093658 8.858486920899685 9.402466805672155 -1.6220107683145097 0.08225498944617447 0.082060099826549
P 4.883962165328457 5.315015160347449 12.29011062132069 0.4958801820767782 -2.4509549963383725 -1.8297571892979907
Ni 6.847666810109591 6.5738750626362465 6.851369007847202 -1.8496827245773242 0.12228603722613132 2.1045566951762273
P 5.951994102060042 2.80667525822959 2.9642425966863355 -0.9449120363414502 -0.4125191040506186 2.199884715756276
Ni 5.841726259730585 2.2162390357291146 7.2055593827301765 -0.23791600258832576 -0.07330832177584794 0.23943860988043925
P 2.4384460143197937 2.0119843829672783 8.140398582391876 0.10715278112911868 0.4487485186962981 -0.6496843445158489
P 0.7072803247726734 5.811802586918598 1.0717181726732194 0.4093594753757144 0.20497040090024052 -2.097322639321633
P 5.691516370290305 4.326754646336492 8.16205686167503 -0.9209519259814269 0.34903959543973434 -0.2604612348786934
Ni 1.7087572058530227 7.044982776267079 9.748604923949054 1.252371494346553 0.7944438802541479 -1.9529711376550303
