# total energy = -340866.9372272683 ev
CRYSTAL
PRIMVEC
9.23298934395265 0.00000000000000 0.00000000000000

0.00000000000000 9.23298934395265 0.00000000000000

0.00000000000000 0.00000000000000 13.51341318974015

PRIMCOORD
 96 1
Ni 0.10493846214963119 6.114768695157744 5.72832193183044 -0.12339469690927783 -1.3064047699428727 1.4051191904966511
Ni 3.410693912636395 2.110061188794781 4.600344259592407 1.569153515304162 0.14376246193235243 1.1761115461415486
Ni 2.2069244785825424 5.17610608025135 5.989563821695165 1.1209780955025148 -1.002502947382041 0.8588690406077532
Ni 2.207986272341535 6.26222876580881 3.945619145324478 1.9760138784071066 0.7432940968532102 0.26760298812979716
Ni 7.6121379530568944 1.5767544991149713 8.052156366370525 -1.5498090493392793 0.5719503828684795 1.1919713959919407
Ni 3.784002132319816 2.009781692999826 13.020551581590958 0.7160486308736959 -1.5513630240899605 0.9232926582994614
Ni 8.785272328916506 7.853922241463348 9.018486556739505 0.5533399668561437 5.301250393253561 -0.0021265594246995634
Ni 2.41830453352497 4.080491881787416 8.580449542910047 1.0766651325177523 -0.46362080782244025 -0.6186971521057151
Ni 5.822036772298057 0.4532446703549967 1.9158775762534312 0.9460929440234287 0.5616209759180135 1.2866674394149453
Ni 7.526114192600067 5.306365092006734 1.8834180793915634 -0.06746934649656768 -0.09248669447651169 -1.2737419896025288
Ni 0.5564657965118223 5.652731449179367 0.7053634435826728 -2.3343241005154893 -2.4649623663610583 1.5130916393135876
Ni 0.2504392924906258 4.021225324057206 6.8332734522810625 1.3810240972206602 -1.1355873607752573 1.5370419794815982
Ni 1.2454471473416189 7.756061788841055 0.9160999591772587 -0.34179551228281135 2.2186373137734305 0.20760475319929408
Ni 1.033189958424371 2.2483621341508844 4.900300996507848 0.6306424973930493 0.2120177946653252 0.8287544806105598
Ni 4.306266166906101 3.43442269490258 6.325087879640099 -1.4641087816569818 1.1200046758456519 0.8895309884679842
Ni 4.995702704103883 6.92123337057494 4.768653343175486 -0.8200129869725039 -0.14682644556965682 0.07630931338570084
Ni 2.2899659835249815 0.41235545434564774 6.350979951277867 0.643829942617601 0.08857604656819583 2.402185283133837
Ni 7.439084036319499 6.468613773589368 4.39229177396077 0.6396087054474017 0.6388661708544222 0.5073632430157133
Ni 4.131845767765829 4.6611730390967185 4.2670490452424366 -0.686636753370482 -0.5398452748038186 0.6853128923527358
Ni 4.7980059391686485 6.940114833506593 9.505375316471838 0.6590899541004649 -2.158764548677198 0.7936805197255621
Ni 5.319032753200978 3.7315125886687417 12.08091026982845 -0.35569206775924544 -0.019409771985179472 0.6551541093811685
Ni 1.7961395557012834 2.128868787812765 10.554110858826784 -0.7137531499712998 -1.0508314592841 -0.6713158067426954
Ni 3.26990929318317 0.05651882014172172 11.511036326387853 0.6574904708238289 0.8034113738600809 -0.4183819905892988
Ni 1.0258220330358823 4.423839051488826 10.960229428962 -1.759308191347809 -2.7787703922920075 2.1344447409849114
P 2.964500476140031 7.523676683448988 5.94783440366783 -0.11554743295071714 -0.7631432703686535 -0.6461691322737387
P 5.173216154629048 2.761540907355876 2.9951530770137693 -0.1919441638439017 0.2459494144157635 1.3116806736298312
P 2.504642215614891 6.08428136479084 1.694527739563522 -0.35251546980347676 0.2707304780151853 0.11325426604116624
P 1.3380263301365747 0.08906880029783401 9.219606914073301 -0.37022317149588496 -0.4274608129621154 0.646737346072383
P 4.617602563021182 0.9757238335898435 5.954536630534376 -0.3057298769085058 -0.021614492945982132 1.4815043514256099
P 8.903362260894912 3.1439436214097993 0.6390077967380741 0.4948982777794831 1.2150133654130686 0.4004727144090458
P 7.879839242171979 7.750272704607243 6.240075131501618 2.3726361087218106 -1.33093309410154 1.7880394978442302
P 0.8546008646564008 4.328859291499625 4.360683558703939 -0.6837437480934031 2.2551222960733424 0.6851002621212975
Ni 2.353452017323537 4.016830421193896 0.7152685944056935 -0.4903854775107942 -0.41769370627302255 1.356198296426232
Ni 8.40200171387697 0.8345615848779853 10.59519119771275 1.1633043670745513 0.0370267137359943 -0.6391047692277897
Ni 8.838205056049594 6.6564035411037406 11.068039350755516 0.1780766618331901 -0.1847561307358947 -0.11367798384214615
Ni 7.936871416513701 5.058274671970785 12.684622195419765 0.0927386625863177 1.8449405819066484 1.2975727734735394
Ni 0.233588163885951 6.231695270495863 2.964099764408376 -0.10429937084072359 -0.9530794026435908 0.5976359605600416
Ni 9.025043825675477 0.3903181557024842 6.902381453208754 0.5524611637956163 -1.351317057074531 -1.672713693986016
Ni 7.152593614164847 4.6657526017442 10.393260183926436 -0.6982625105348684 -0.167713316320995 -0.3371402728989871
Ni 6.3149399012008915 2.190286632028587 10.409746609457372 0.06987178529047322 -0.735387954632256 -0.5153357196982286
Ni 6.7715943144706365 2.8774056889350024 1.6248796087671256 0.46256434153346787 0.9744010469395025 -0.3868384114550628
Ni 6.081151381449113 8.656324401628746 8.40435612612517 0.7602788043366648 0.24118541736821686 0.17226494024741945
Ni 4.336448808629121 6.019364217664946 7.006542497667018 -1.8065159593818632 -0.3856798723705874 0.9253618821236643
Ni 4.593956877657875 5.947836250265672 2.3693604577300102 -0.06621541948480854 0.015403993259896052 -1.2859159059609013
Ni 3.4446620799349534 1.8549629299494796 2.3504014376890052 0.8738634571340563 -3.2085721946824743 -2.645581077889812
Ni 7.152067333779956 3.878160156269448 7.843171348828817 -0.160611158058575 0.7122549681592185 0.32650953265801835
Ni 1.4341140488308108 2.378944300528571 12.762039886635225 -2.399591811375048 -1.5374667257238424 1.4409374857468409
Ni 0.7286896675193614 2.042771163442269 8.40558596028776 -0.059242844821717315 0.20711495804706911 0.059908246319858124
Ni 5.77597338913619 8.350241576373376 11.325213185574917 -2.451573346648662 0.44200425799392906 -1.4908791077722905
Ni 2.4134849131580642 7.48998550582669 9.99945288160201 -1.1593014165627455 0.29735116592650723 0.9839305836964924
Ni 3.6638901757047186 8.140855847100013 8.118898875462966 -0.23921081014034934 1.7997621855977972 -2.050084532270276
Ni 1.7438531378127986 6.853897180276384 7.771955456464795 -0.8702384587869593 -0.05366766472678499 -0.8887336893776694
Ni 2.4326248997875592 3.513281655733509 3.2313809525144683 -1.4933733349490539 3.1301494344981964 -0.9581295634729887
Ni 6.323822036819596 8.833016116114342 5.67097121936102 -1.2383512688080607 1.2354438653532789 1.381765089151743
Ni 3.8990174788917487 5.516120140848443 -0.05404622563164999 -0.3208600476817248 1.0301093962454002 -0.2354767970192138
Ni 3.306518095395397 1.2313853047768717 8.637205650874431 -3.986605494789082 0.013382077733860825 -1.9031755542891415
P 8.477305973862576 2.9739919890465045 10.12543794265272 0.4020058632241206 -0.5514142105883407 -0.4543990321138562
P 2.9267929482119768 3.6912105907730615 12.151274880587435 0.7080733259777031 1.5702503479127667 -1.1920876098548308
P 3.7205253315104687 7.229319754488582 11.97262669568853 0.12095883377427555 0.15910449160606147 0.037339102770090525
P 1.3208622031977273 5.609022478265701 9.458510509846663 0.24171403617817727 2.7599272914435757 -1.4129098901856636
P 6.20835427377644 7.211564716240383 2.8883569374353613 -1.5468576800204392 1.7121942685791416 -0.35586356034010325
P 8.411336265966897 7.5141944035317225 13.035984523053187 2.5744347967622887 0.2718561069791963 -0.23601878556561287
P 0.3136843452708361 -0.15195376649890768 2.6718184114220707 1.470883381376654 0.042901170238900305 1.001404829221856
P 2.309207533035771 0.4786021519175845 0.3564497046873792 0.5741391629896822 -0.3249064498369566 0.05881604169694387
Ni 7.163959423880674 0.16087652727012997 12.515676958880212 1.604821658129733 1.4792230115906009 2.0315450787051916
Ni 7.598131508427399 0.0968706761791283 3.8296472610705314 0.00161311012339077 0.04868306702800003 -0.7042554948935098
Ni 3.950343665902535 2.8717274005716935 10.158437569383292 0.29954637380561316 0.7679041820924065 1.5125550500838274
Ni 6.60131952748504 7.230076859603691 0.41011830106039615 -3.5517910696753736 -0.6617538740858733 -0.6047617729715455
Ni 7.9956486258158534 7.679751133031709 1.9389582026771701 2.4668341294624745 1.785273505063319 0.6578889918138282
Ni 6.35673764334837 4.554153461179462 3.6636750470561577 -0.7319743009650168 -1.4254190783962677 -0.8347677766841752
Ni 7.81037023136623 4.162157671337769 5.422243723069673 0.21651619675631098 -0.07095293416979392 -0.057069234209166236
Ni 4.746162704762178 8.860198036344556 0.18337455207480427 -1.285623057310831 -0.01142495400749 -1.689889177324038
Ni 2.161415074773194 0.27241842330177496 4.214373918508268 -0.8036381451589063 -1.8976065448417963 -3.3606102663600574
Ni 5.139100259503152 2.4821044889566197 8.191263351684542 1.7757617089181417 -0.35111396147025986 -0.157452043604303
Ni 1.1301178791365927 8.575683473880552 11.966424896837093 -1.430496492919175 0.5832102720530149 0.35577254328819374
Ni 5.757211955064249 6.108305602711701 12.037085886549677 -0.395772480719899 -0.14472945383131203 -1.2800108533303762
Ni 8.439450718107183 1.0002651189063883 1.264751481179027 -2.0876390934852824 -0.5179762426448692 -0.4513579312946872
Ni 1.1715740006833517 2.0336674360825575 1.771973129746609 0.799304550780559 -0.3707458767685744 0.13742006465409237
Ni 7.546629894621649 2.942655223672407 12.396624026127343 0.6667166174077873 -2.939433229524125 -0.27508952631482947
Ni 4.730549720010381 -0.07130545235934635 4.049564137835261 -0.5696073365575997 0.7074979130902074 -1.376686903297887
Ni 8.595165081110766 3.4093828281687695 3.088003709691459 0.6111080269045475 -0.41213163880421283 0.21374968975476735
Ni 6.55312332381598 6.240161921600179 7.406944924183172 1.4300316374676147 0.8366271984904171 0.028042250849196863
Ni 8.54998806491293 5.878718093049851 8.715475546993849 -0.45318572853204525 -4.204449152107566 -1.5532805528276474
Ni 3.3734757331363983 5.362852519985147 10.814567944608775 0.4927478070953836 -0.645027819580444 -0.4238252730920572
Ni 0.3162612725589654 7.982066898689955 4.710465198584843 0.3975054042506057 2.326855045831954 -1.0365446103477827
Ni 1.4984402846473521 6.235591591941906 12.418704719819788 2.4032420065331253 0.7874538220895599 -1.5319169995502069
Ni 3.271922084830652 8.300217240841008 2.2766178510260615 0.1185921333143119 -0.10052087763489785 -0.691227715175274
Ni 6.285902150139743 2.4130971276113016 5.723308418690151 0.5866046424465445 -1.08323481531547 -0.01784474149090475
P 4.733356548729806 0.5288905509413211 9.795927330579365 2.6282698403048737 -0.19778750999855615 1.7279864984163917
P 5.896667024071432 4.940600224506766 0.45862934966147106 0.6447959060752959 -0.01756783368043426 -0.19563806775572112
P 4.824643113035553 4.60175875353917 9.067892281994897 0.2667149290978891 0.11682578544250848 -0.37004268005396274
P 5.757996759146983 4.970561274488778 5.743565597013891 0.9434899591829429 -0.25005135239927906 0.14515137186007906
P 8.289303847596404 1.7875436427480464 5.022124749322227 -1.9114668477636563 -0.34291111394449325 0.5642697263947701
P 2.258601519183258 2.69171180997099 6.924205469801199 -0.609285371873512 0.06699857750773622 -1.223525773759454
P 6.8253210786756675 6.9174386120101925 10.157978689819624 1.7036168113227756 -0.18631036259689204 -1.089023911193421
P 5.915991670485099 1.776731812384738 13.56827743051789 -0.5827297328721707 -1.43619302908332 -1.4516034501011192
