# total energy = -381165.0884772764 ev
CRYSTAL
PRIMVEC
9.32722431223013 0.00000000000000 0.00000000000000

0.00000000000000 9.32722431223013 0.00000000000000

0.00000000000000 0.00000000000000 13.65133559122846

PRIMCOORD
 96 1
Ni 9.082552286851008 6.512398397165844 3.59779572047799 -0.9203122355148988 -1.0182334707434206 0.9928037178164063
Ni 2.7932890700960384 4.042521493000779 6.465299646716371 -0.6976924969640114 -0.873505045353373 1.4799339216146963
Ni 1.630277506101892 0.6049217779182161 7.494610117887723 -0.08658447005946379 -0.30617930574109853 0.6011393457276099
Ni 2.7703254445402314 9.041139412168723 5.735089932048203 -0.3626134774694271 0.2227413517304164 -1.0027297186808666
Ni 2.3616904326696115 2.99094227446367 9.102942531297616 -1.7468491396488495 -0.47307861080123037 0.7527758110914003
Ni 2.1859841864387857 5.265852214781035 9.356242886935963 -0.8618350652146126 1.8628562858448048 -1.5899503974448552
Ni 7.176543384046934 3.982239644110778 1.185158124725141 -0.5231333613657765 1.490924102077613 -0.1755446394399557
Ni 7.474874644567849 2.571804808338039 3.1760512952366606 -0.1509921469115722 -0.5869401714090924 0.39939567929478315
Ni 3.041896899326129 7.449000925115448 0.610875345014996 0.7557449210220533 -0.1967680675951063 -0.8830240405874018
Ni 6.8531032364438795 1.7248742121892178 5.720632734805514 1.8290465363842112 -0.004331537495818346 -0.46550542643966286
Ni 0.6643818983713904 7.455828453103609 10.681323362910266 0.73365631665313 -0.18320806952248445 1.027629824356656
Ni 6.568697521396085 0.03877047211528165 1.5670370617503553 -1.1252425272058233 1.6829669962829081 0.3387803796055714
Ni 8.999054977356456 0.363915636270572 6.115852400357321 -0.7444549499305309 -1.069448817274971 1.5534746711163245
Ni 9.26818269944714 4.319894481131807 2.5140161264305996 -0.17786917380807432 -1.1554403909454423 -1.8461765111962785
Ni 2.0168069970272384 1.9749370883676047 11.380216922905964 0.28543461699457934 0.009787675514383145 0.024809088623879854
Ni 7.601239875692981 1.4451973997233865 7.888000714807729 -0.20952793836393593 -1.8034314069192683 0.425978314879318
Ni 3.100928900196439 6.594720476432925 6.712402061988416 -0.9689991591976408 -0.4446612360008019 0.6599181064287151
Ni 7.417810687967351 7.845407946285962 2.942244837815876 0.015490896546747514 0.12111901350122367 0.4484764959818341
Ni 2.865920163598504 2.107439632902859 0.19399879799364067 0.8917313385534126 -0.027616990386320178 0.7415945976636004
Ni 5.0947069810996775 9.017793370427787 5.4653260932788434 1.1117414073955951 -0.24026444821584425 0.1389257026653414
Ni 4.817184757384208 7.716011367351879 2.3575034418036487 0.3498070697333782 0.07375826482907297 -0.6019027062561957
Ni 8.749393171811255 7.980149024587826 8.149669455843586 0.7435141832838162 0.07067011282205249 -0.5575290652368269
Ni 6.324436178562829 7.240322941947263 8.72441859675511 -0.6133353735731696 1.8368984283284624 0.2678215318985065
Ni 6.586978880490066 0.6225726166679356 11.85148890773354 -0.12205463794161561 1.225646676757199 -0.1223747402851957
P 0.696926448448288 2.133733077436498 2.0458435781473776 -0.4917221940443467 -0.32344760590324295 -0.3403042724492655
Ni 8.174752226698452 1.794231450058016 0.9753412875031929 -0.23312783717106303 0.42698824420107107 -0.48944548219502804
P 8.779510778196185 6.8092932651865175 12.362471548858371 -0.11033477840152611 1.1233252555784523 0.6330865880581678
Ni 0.3987929250767578 3.210104057438812 13.229673000986248 0.6098415014872981 1.3044335051491147 2.064705367507244
P 4.019007561227347 4.168597580181057 8.341593879213502 0.5001566979649451 -0.11697516653617918 -0.14579851852577472
P 4.145232883992065 2.9279741850537375 12.251895442567061 -0.28149851516496677 1.0708809217358075 -0.12063796009974707
P 5.725367233721895 3.493847539580651 4.1371601715962285 -0.09434920160654718 0.7156434250154772 -1.2987341407714923
Ni 0.25344679305557904 3.855855758537591 4.651310338000814 3.1745783542355324 -1.2191474421861004 1.6432483375370472
Ni 1.1590288393343864 5.5549588507387115 13.004015739198326 -0.4933229628725633 1.2448309629951337 1.2878956553950915
Ni 8.955282314995204 9.167448679949691 1.6901032537369458 1.1535866255661553 -0.681474235332936 0.5878842804899165
Ni 7.76752562565599 6.805441121663142 6.218074112087161 0.18831993682775308 -0.16886979852294143 -0.41597081004464487
Ni 8.042744025036656 6.400397091043126 9.917749235173183 0.2386127715450342 -0.25271707215690026 1.485899395169512
Ni 2.900850617581647 0.5334752418672485 9.625461083099712 -0.016596213795784322 -0.19715013352487334 0.43020495136615583
Ni 2.140122225895364 0.11278106205142051 1.8219622198142995 -0.1730928354653535 0.755432274877641 -1.0018234048165136
Ni -0.06151863879605256 1.2245432609038376 4.195833074341478 0.9479919608183542 0.8594935615656293 -2.2306677625754032
Ni 0.556414616640584 5.631470069436634 7.301757635727068 -0.18595015104399587 -0.33292700614858795 0.39463219646786873
Ni 7.2368532146090185 4.294169997263848 10.151024040824398 -3.52446718504944 0.1706831975825964 1.580876203057729
Ni 6.012375244273373 3.16022206333952 7.947957043579169 -1.2202787275770663 -0.6814235846006588 0.3401590051206529
Ni 4.935519248621627 1.6732946633169132 3.200364570109253 1.92022376802068 1.2665331305589156 -1.1782321920289773
Ni 5.409556755373368 6.724555434896303 6.664881721012898 -0.8280605398673287 1.4875515860609543 0.5993197760203679
Ni 3.488419095196622 5.820047884825468 2.21426059880068 0.6384473381494489 -0.1452030510336209 0.5460771146461434
Ni 4.583789630543038 3.895888204063799 2.0343216583061556 1.2127878185166596 -0.7292461034005763 0.22444136514065863
Ni 3.3398364164378864 7.025824770985893 4.40168211046211 0.35521949899820116 0.23387242864657143 0.042012339876043775
Ni 4.39655493541417 8.006433141897437 10.479693030217291 0.6656354685284666 1.712085253805103 0.5228518255696156
Ni 4.3141395839068135 4.709576573778463 10.736611416055924 -0.3280802195792479 -0.7935226539914592 1.1310251953258714
Ni 3.3829281914451284 4.663938466611702 13.499000325671119 0.20505524730456298 -0.18586607597062182 -0.07041608782971744
Ni 7.431866814576855 2.0889717293283265 10.0798041563173 -1.4722956883431482 -2.0190945116466645 -0.7242684476803268
Ni 5.72727931464754 2.177225923076924 0.2864744933371034 -2.607315092430077 -0.870365728393443 1.0628655076304987
Ni 7.653500311919296 4.727177045518434 4.357806848636555 -2.135236897868903 1.0044369311799604 -0.030601012715308587
Ni -0.28270629482997667 2.9416385682540858 11.15926990925195 0.6418000566717657 -1.1046500477664523 1.3030790480037493
Ni 4.779679989569464 2.2466204698418326 5.53576622185724 -3.074560384378983 0.3364036518432787 0.526437486038345
Ni 0.3307200459565519 0.6620799394813931 9.435215560054754 -0.04143024212032865 0.8218369275551201 0.32501109373562087
P 1.5987981250089396 8.0666683546673 8.952545707465523 0.9460926869131124 0.7099656579044095 -1.8666869724448045
Ni 4.626769478861949 2.4861062739729873 9.987576565132967 0.356140982371206 0.3717491212221081 -0.5089321301647299
P 5.842367931923374 6.510523625136308 11.100391807578095 -0.18561205097828676 -1.0640109340888515 -0.2405974060752308
Ni 7.540976681251035 8.482998326360642 -0.3290476746884137 1.512746597269343 -0.8939152335786089 -0.34567942071824986
P 4.291558374536136 0.4781442834910669 1.397241477385782 -0.050495951867022715 0.14627468683124487 -0.24074215918321118
P 6.221874023155983 6.075623150404132 2.0392501634823086 0.04744739484868603 -0.7598823402291945 -0.233161775732792
P 7.128125764119967 0.10070510510296256 4.356031877904114 0.5271748784250018 0.4748565286372596 -0.281608815490586
Ni 8.167495646405024 6.611873241419574 1.0230379130128318 0.332949117635775 -1.0614318605077655 -0.09265330196136301
Ni 3.1219244814824347 6.5087794342431575 11.724626535567738 -0.5977606590633641 -0.2556080205514501 0.4810624003376554
Ni 8.031280866706808 4.858588304842465 12.525264253423066 1.6748232841298512 0.06855049537588839 0.265523222782633
Ni 0.8809721656821392 1.0538364067517736 13.220854110668206 0.38071481505582816 -1.082353441151781 1.9142063581820061
Ni 1.5661062047924066 4.352194657939183 11.205643934394484 0.3669624984667422 -0.8865875895689441 0.5109134222608169
Ni 0.1935343022370691 2.537965639566118 7.5949887701497225 1.0150183062402327 0.8961286962901599 -0.6270609506893782
Ni 5.3844292138431715 6.253623893745734 13.467561051641484 -0.03435430911015374 0.787659767452779 0.5941649712923057
Ni 0.9301909941530728 8.003038032351412 0.0459664254525299 -1.4060956954773076 -0.45090413158672027 -0.5441780978512176
Ni 5.938401030510941 4.2892265685292505 12.412449613365146 -1.3715534387260637 -1.1804189152676507 -0.13117768328880633
Ni 4.1994333828161095 6.224299101403143 9.131037062790973 0.7569039743271609 0.6583304502266211 -2.2354533568895048
Ni 2.522622356040812 8.819272734225594 12.093826976972315 -0.4616035202820954 0.014786928501187437 -0.10535995089475403
Ni 4.298022140787222 0.9231750562395562 11.650171969767888 -0.08558456804003971 -0.8116610154633829 0.2852682666200442
Ni 9.015573491109233 0.2037905177777537 11.644588693465002 1.2423123103383378 0.7413266887141943 1.395413533173113
Ni 2.6058025399184275 2.5213072174529287 2.7894042812885678 0.4136503894415844 0.11630205172855454 0.4896252023060019
Ni 5.223935670001264 8.686135938456466 13.363715470208449 -1.4827497937969365 0.06544485986737117 -0.2037984920793264
Ni 1.3223578592806653 6.013783655101532 1.8991058243012897 -0.4908498187417224 1.12515176726423 -1.3729834863043708
Ni 5.739059598594325 0.5185442216439601 9.226172882427091 -0.6248806552086077 -0.4967828963967057 -0.3219535378562197
Ni 3.7043256769861523 9.32701882861287 3.5996928778451918 -2.0142754929914664 -1.035074196449843 0.150589769266831
Ni 0.8799209875342353 7.566440002846224 5.911942494112015 -0.04025756196846615 -0.4342834923109037 -0.1409717865610927
Ni 3.7190533637256404 1.8718059722950784 7.687667798976986 0.995230324980028 -0.6605863361403334 -0.9233512794515387
Ni 1.0476804388935963 8.305286726963894 3.530890609806032 0.9560819369153404 0.6570970920401522 0.577352013500025
Ni 7.032708262318217 5.17349404246032 8.010930729323517 1.4740926323425712 0.28856904885850304 -1.1089931552264964
Ni 5.853784454133085 4.699932224133984 5.8896364378501485 -0.45920108148818983 -1.006355745469228 0.2686494271164405
Ni 3.8617972002431347 8.628838801255279 7.813451011322799 0.6057313359736665 -0.37346584680289874 0.3860573103146641
Ni 3.5141808879606917 4.431261536020652 4.409831306094973 0.3617457301524931 0.18121237924869438 -1.3381080145834245
P 1.965712463804366 1.8439828630209223 5.689726045267853 -0.03537863660961004 0.3805957729794606 0.13897198252224455
Ni -0.14590483274042856 4.160081824643911 9.373812578836644 2.5664463792401735 0.9249330221163619 -2.5227751636044684
P 1.6571026024051012 5.726281301676594 4.045927795215637 0.9518293322865737 -0.7011228628017989 0.25221827814361075
Ni 7.7251333924508145 8.772832485792465 10.220932517633223 -1.774202334850822 -1.0783126954235043 -2.342829823993655
P 8.443646768188444 4.152703990438126 6.527686650069388 -0.7287946176854545 0.7484116205854335 0.22999237686587487
P 7.3585081976002416 2.5174550739295545 12.788844142662166 2.003725999610394 0.989757989011547 -2.0265365697470066
P 6.374159609853652 8.959386293567322 7.227563299477588 0.25397922669877554 -0.3507362664158669 0.8462433814239426
Ni 5.999988690764798 6.772618620310224 4.408958277925995 -0.4433584580289784 -0.6902234422804757 -0.3241927115993836
