# total energy = -340874.52234201634 ev
CRYSTAL
PRIMVEC
9.21748088213547 0.00000000000000 0.00000000000000
0.00000000000000 9.21748088213547 0.00000000000000
0.00000000000000 0.00000000000000 13.49071498824979
PRIMCOORD
 96 1
Ni 4.876443595513288 8.033928449140419 9.614521746060912 -0.43323062556635705 -1.4346876481823871 -1.1543780111191988
Ni 2.4803963802977056 7.9929659652998595 9.390333260863237 -0.0881808680123062 -1.4545401641319402 -0.4156054562854261
Ni 1.9663835739590934 7.4187906630055025 13.036778730273118 1.0548881458519768 0.585749750645417 0.5292636426332304
Ni 5.390382662007002 1.3805665936515437 2.0913578630913707 0.7951373067767467 0.2672270928476172 -0.5411351972598357
Ni 8.976729236077363 0.7403932084258658 0.09586825060317412 -0.008764633566507486 0.9167355739072341 -1.6599679642845737
Ni 6.895440548806745 3.397600223574605 1.8267368991883366 0.4769059549671206 0.7914719421100176 0.9956913237768465
Ni 0.6186100110815276 8.575178910688043 1.731114755317508 -0.2515127674361539 -1.0207354112296678 -0.018737171398187084
Ni 2.3542090707168644 0.28109905399344076 5.091449626525103 -0.45088613386459114 0.07634248061648143 0.03157674636501659
Ni 3.638923083482275 6.422104484409714 1.1559918960162177 -1.596225688930606 0.15560701997576426 1.2095428292168007
Ni 0.38245447080504985 8.306194391463201 11.614479993149896 0.16525379903690895 0.9789909803030301 0.1959813100277528
Ni 7.139325868324602 5.225546456219261 12.88677621603457 0.023593213938907755 0.3941331453442632 -0.1889449720062617
Ni 3.062120799213444 0.306336515909609 2.102244629442425 1.2087838395635893 -0.4031096378112606 -0.3740016647017107
Ni 6.899192063415905 5.612597684605609 9.932943300801158 -0.18619620561653094 1.5290543332904312 -1.5910096919473051
Ni 6.180265445587762 5.341769669258327 5.43231943354827 -0.8694550436537155 -0.4729341148035662 -0.476926780902727
Ni 2.3653714397382233 5.151244345004421 2.9136705087099877 1.5004762645424223 -1.6433761213641633 0.5606501273643119
Ni 3.988385425932124 8.25485302445332 7.004392091390858 -0.39185951881873804 1.0393833653481586 0.7982372858583091
Ni 1.383000008533161 0.36922922962268384 7.364729217466964 -0.0007353355041277658 -0.014991845423141923 1.2006882070396483
Ni 8.16537894015082 9.198640081815766 6.860460209883494 0.5860405424129584 -1.1591540923516035 0.7176409150614802
Ni 8.091381005796181 3.918221963512156 5.204124109528476 0.1045197143816458 -0.040354749667962764 0.3134079622790538
Ni 8.3216981938529 1.4675150882663044 2.3989590173409714 -0.9052532842992473 -0.8728177894783613 0.6295104406711352
Ni 5.696522845579572 8.211641475343386 1.5020022919768024 1.3529815892611474 0.8957530581182961 -0.37237158529745545
Ni 3.005101464146455 0.2799975650602844 11.381468535510235 -0.4009316563233353 -0.6572976380867325 -0.5719997480491762
Ni 8.602527175664404 5.424865256977194 1.7449695504256864 -0.4003906962182007 0.7943690611521544 -2.7096174874454304
Ni 7.773276532388993 3.6286179401578496 10.670493838206227 -0.8790748261316668 -1.0287533964381381 1.890839658431608
P 2.1490740396926413 7.150755544283714 7.250584546305945 -1.471585035429369 -0.5167068890141424 1.1509031651967212
P 7.783194541527706 5.649283257442113 6.932972286363448 -0.5542308541015294 -1.207903493841165 -0.7620883467415778
P 8.8647460641199 2.078311441032881 7.433910096453673 1.2778904645532636 0.2199866718034147 0.9909067579040096
P 3.086381208184721 2.9222178784816686 2.2214349494905545 0.20384631459812638 0.06686667991556226 1.868909176907104
P 3.2883730783201885 3.7400664982398037 12.455194417062685 1.9320752680426274 0.27668283894387835 -0.6514072407442266
P 4.456154132039393 8.207115692362802 3.1031072485035955 -1.479923380091735 0.07685361592494507 1.201271076126312
P 7.985223281585623 7.047879243171095 11.193678037753966 -0.47470946153643406 -0.6852175044254522 1.2518842702974893
P 8.95050550373569 3.488982326363828 0.5276417731717921 -1.2439634727885158 -0.3071668664653484 0.1426694859784898
Ni 0.2479336370027304 5.875424926781511 12.629845396206282 -0.5295315515826364 -0.752083413010066 0.8917267105677223
Ni 1.650629558108013 2.4905816963741723 11.76027380574092 0.5846020101942191 -0.8832973488534465 1.5732454259853488
Ni 1.7012703965913687 5.173458473279792 8.63269506796003 2.479343831893711 0.3294130794580585 -0.46688096663095074
Ni 4.242244059472368 8.233302554782025 13.127840986485097 -0.06859780367405606 0.4327760545274417 -0.5409590766932877
Ni 5.069789468834524 3.1584434716107994 5.978328880335967 -1.1020246943284633 -0.18138695715334568 -0.7696803001562228
Ni 8.803735559947835 4.127338946160844 8.67280309134784 -0.3905202311820242 -0.44000599661697765 -1.9237310098429903
Ni 1.7622532483215982 2.362228278849467 9.312438175705767 -1.9282170706388015 0.38907372854348476 -0.3747611685755546
Ni 6.87730054696196 3.06931043409095 12.920030120839156 0.6648283992461388 -2.846338469149969 -0.012930849129055148
Ni 3.589664867090747 1.082049266545253 9.199668752652087 0.5655208251930518 -2.000990345846786 -1.8778643292178625
Ni 5.432571070768983 1.2009732014036907 7.618057845872007 -2.3659430129723513 -0.14413938565579693 1.0348037163972759
Ni 6.048621387484506 6.710325885672192 7.69650690161427 -0.20314517476604368 0.519703252638305 0.30895506871402273
Ni 5.080684530918129 1.3442589375201388 12.141845241903324 1.4845431382519336 -0.2648886745224277 0.4673594489292661
Ni 5.103977104425125 4.8638986044001005 11.656773481190855 -0.736877394693589 -1.2849975079116902 -1.2216550390993024
Ni 7.0451324339486625 1.9544285016050866 6.391967931548168 0.14154771366922075 0.8681538083437886 -1.676666507986177
Ni 4.756671652438528 3.6088095743222595 3.4263172844218737 0.6637739898396955 -0.7085464089593798 -0.700187238361407
Ni 0.2843675726185223 3.595379705070303 2.833738360337224 0.0434812111120864 -0.3749825405577413 0.9775910146317099
Ni 3.634600085075159 1.9528799648622392 0.47402184495457744 -0.26746954787572647 -0.08976338200807767 -1.7966380381465186
Ni 7.401747541353568 0.2735471721278758 4.490182305215404 0.8392808340631803 -2.235713295419111 0.555691497807456
Ni 0.6649472078670533 5.517841983912326 6.3297490156678435 0.7520163072175564 -0.2899957540027006 -0.8789372721125379
Ni 0.44564490914189836 6.182376248647952 10.133793125088777 -1.0635648476903685 0.07348572789397667 1.6913886446877
Ni 7.633106304719464 8.342999791547664 9.4400873777117 0.12641677156505324 -0.8790329171501378 -0.9572821278710286
Ni 5.85460263807858 7.058838827618985 11.600827060867125 1.034892162346024 0.8000715108535704 1.0729041228134233
Ni 2.0085166778374006 3.9108571965030183 0.5824627391127748 -1.2933741620111596 1.279250321015268 0.7097134326842874
Ni 7.178702945499865 0.06285676553868733 11.521758590427723 -0.7638374682222007 -0.39689990945612286 1.223109769267958
P 5.635143642183017 0.6180210140704089 10.04633306030004 0.44702253714412693 1.8705315430018754 0.2488161944405973
P 1.1573192132243728 3.9457453606201462 4.890788760590034 -0.30449806138393365 -0.036169507942021575 -0.42421402389004365
P 3.135611772134412 1.6210137929010557 6.770193422248346 1.4908109735385162 0.2813694457862702 0.39069686596920455
P 6.492590558651108 1.9773247234457594 3.9904317066280295 -1.0220821550655494 2.835096834797879 -0.6334599122371866
P 3.7991413314833107 6.969189611184853 11.259579337138858 -0.7729605135693914 1.1759747634533682 -0.2514706013443088
P 2.0034470635006976 0.5411970001600744 13.22243814651185 -0.6606830096191977 -0.8499979633703684 1.1313380985806
P 0.6271361806478007 3.8799509840103545 10.582548012189227 0.7453859463852324 1.494027423593285 -0.45660992372224585
P 7.714404483718954 5.294926432787192 3.6227832749303355 -1.758773144779945 -0.008964665392455528 -0.4730912092067207
Ni 4.90911956428349 4.207374330316464 0.3992293637711691 -0.31564327936747577 -0.3860292852902062 1.7388512090450376
Ni 3.0236009477351145 2.753289111302116 4.7446843189023795 -1.8370321256928492 0.3579782926902609 0.13848090181843895
Ni -0.007126956009343047 1.861359599863834 5.298869670993087 1.7347736965415541 -0.5364874140751792 -0.8691951051241095
Ni 5.084961441922183 7.508541271726369 5.00420525078269 0.5583461618214836 0.1928713036438614 0.26953440082455515
Ni 5.323353142995178 5.922397207981216 3.081885842890157 0.7576984452039983 0.8609290084605752 -0.5661661720865346
Ni 0.5343954212163416 6.236685644414958 3.774634815779689 -0.9567223987128168 -0.9741287671147223 0.339143419371945
Ni 9.013359504030193 6.815128640232758 8.039467233240282 0.5885895340870573 2.0512965503005063 0.29894524988650445
Ni 2.345010025065902 5.50445820206343 11.425434996282307 -0.3583428751185312 -1.4377657728870785 -0.23254702496692853
Ni 2.7508741313817233 6.7840380781278515 5.244218306695369 0.0503033762402424 -0.2916134921117816 -0.6253676221473552
Ni 7.445733358834925 1.4422591913889118 9.112343263080287 -0.534325373426854 1.4815632296880032 -1.1206081137576056
Ni 1.3395119350048625 1.6929930990016246 1.6584404511787803 -0.12681246434157517 1.194283589064885 -0.4153804847588137
Ni 0.6286561432007504 7.837946376364097 5.503388974312416 -0.27054612991852117 1.480830979507669 0.31450582332892285
Ni 1.7115294525127327 3.412274452709207 7.088102485066557 -0.3870009051748561 -1.3846516666709185 -1.20705374424636
Ni 2.1812246120679495 7.707297806166959 3.2483074553431943 1.0135705180501124 0.10511055388810929 -0.26709725213797225
Ni 3.8429335818718116 3.4695610947139497 8.28397288920334 0.6762050165141967 -1.014897721501968 -0.10984138370487534
Ni 3.869166531694096 2.720908101911503 10.648841976248198 0.7872753875301668 1.5646754249281505 0.45343281154584486
Ni 7.711399585039381 7.006557277586659 4.917270582388848 -0.3263511527032831 0.5313135831837237 2.064159779416419
Ni 7.485193393335698 7.361716023054839 0.10799568984462866 1.146648246575109 1.886881959335441 0.004756283738062777
Ni 4.155903918578011 5.595148993806738 9.369881514880916 0.6326096484217493 0.23979033679290315 0.8135440914187086
Ni 7.749983958881996 7.539530441544541 2.7249628716328043 -0.12546700605727423 0.5462290668429753 -1.02585036385873
Ni 3.7945233736966046 5.5224783766602545 7.029039634547845 0.06776605180138007 0.2594003977143468 0.4518346138207896
Ni 8.796481402706045 1.5474859500576394 10.955607105006274 1.7950095014041603 -0.1014099651080705 0.5121164414299825
Ni 6.341110482270426 4.151580920170896 7.601235022006704 0.29160860701577523 -0.14239206394738704 1.2946936521535315
Ni 4.465767964317904 0.8513099178764965 4.343861252733363 1.6863192005845926 -0.28380659447285317 0.16217258900842393
P 4.036546762130801 5.089726879398683 4.962249122532137 0.6265583000213467 -0.717652742136022 -1.1535912535518456
P 5.592724796405733 6.298590244206407 0.6259351429240327 1.6856802814490128 -1.1197542503977425 -1.3779292603454205
P 5.888154267506941 3.6885039116952294 9.711223256911428 -2.122108073796429 -0.057130940685037095 -0.09916744893079696
P 6.1173745753708095 8.661491399140564 6.616076224664518 0.5041020557659384 -0.2670242328081917 -0.6107527004476578
P 0.8970848483446787 0.09464232568175324 9.803041346533607 -0.32176481888418135 1.7086119505445216 -0.7679620319135355
P 0.5756095422776136 0.25698059422359204 3.740813114169391 -0.33874798370573916 -0.41205501993000654 -0.10571784845480502
P 6.884849663583341 0.6115466556884086 0.1423980927334945 -1.820826462467264 0.13459519361078753 0.7469712885944814
P 1.3555411337894558 6.3378382766531 1.3759855057872867 -0.18802297441262456 0.7042449533705484 -0.08061745384275149
