# total energy = -340860.6317191389 ev
CRYSTAL
PRIMVEC
9.33397952337315 0.00000000000000 0.00000000000000

0.00000000000000 9.33397952337315 0.00000000000000

0.00000000000000 0.00000000000000 13.66122252556054

PRIMCOORD
 96 1
Ni 5.0209715905931365 5.1070775515155376 12.916617521771707 0.20218898150036146 -0.01995793117916563 -0.519995329957427
Ni 1.9368847528505722 1.2092730485921515 7.073043250908098 1.693014096106265 1.1950739461766644 0.587761124648491
Ni 6.232158104983563 5.460144660225646 9.744331111504044 0.36928317618011886 1.5843021980201426 1.2253875095585411
Ni 1.7107597653919175 5.002368969442097 8.747322090807428 0.41306032126606934 0.1722194317214647 0.6822157414846509
Ni 5.904171399200123 4.998859393148674 5.849352937574403 -1.4051045352086318 -1.2045633737243384 -0.6777373939983231
Ni 1.9889870264406908 2.6186946196839282 12.214075953062498 -1.1317404762253414 -3.3297194903184724 -0.227655244092266
Ni 8.178768864477078 4.233921104854623 7.089314243979093 -1.186799621983014 -1.1109855030661768 -1.67782453285002
Ni 2.290045201355718 8.250612504717699 0.693518410722902 0.7308592135239671 0.43556724411933373 -0.3217887301435813
Ni 2.565080241414197 8.773418030704105 11.63758604396008 -1.4414041409706142 0.5839695188165426 0.34063645897770367
Ni 4.989964110681568 0.6090561635911171 3.1938432359316518 -0.36666759293414275 0.05577416954682653 -0.6563021069426827
Ni 6.7649043191415 8.351998190087793 2.1279951829966848 1.0862316931602647 -0.3063754809123046 2.20954152211975
Ni 3.055758209948582 5.798688096827867 0.709777269620542 0.08691717080853419 0.29634046527380575 -0.22324400239844774
Ni 6.623475861700176 3.1369264957134817 9.977132694501753 1.4546147261236175 -0.3100675850519111 0.9005862178408812
Ni 6.920819112772698 0.9344433560827554 11.30982522048063 0.12914934000486789 -1.1846992878105598 -0.3445810454477485
Ni 5.932425355158075 3.5473882443923537 7.755353419042856 -0.8324226734907664 -0.07119564630821933 -0.033020420790078615
Ni 2.171783681042783 9.405571126577335 3.071233947965855 4.147755298959947 -3.1364758909368566 -0.4910557641049414
Ni 0.9753541882478377 8.590313354778388 8.512266351759553 -1.6838031190309581 0.5478540040409081 1.5882894648026644
Ni 7.205626829371638 4.5096095234783675 0.5356266802328041 -0.3494471152907982 -0.09420264872635388 -0.8461505645998202
Ni 0.3310081149488166 0.8376751903731826 12.489130594477936 0.2321158509667809 -0.1697732841738173 -0.4171252353640622
Ni 8.24392937539299 3.479996912375038 2.298445782909123 0.9485964271715728 -1.0622368729075642 0.9944502522808937
Ni 8.08401030455467 8.198146205926932 6.410542587474218 0.8072837123312935 0.6073159068519669 -0.3816357842082008
Ni 0.06792990263468385 0.7900840290772426 5.034065297041044 -0.416908748477882 0.21180850686799652 -0.2633814938492819
Ni 0.9605971666523563 3.23805082965747 7.044190986863954 -1.2561906109823269 -1.5492014976622674 1.629275420296723
Ni 3.0274855860316223 4.352117287311032 11.92729876678826 1.259817666211953 3.197218717342868 -0.7651495021654049
P 8.749700388784992 3.7042271019944244 9.050054781645434 -0.21445108669716617 -2.5936733332769264 0.4682673054555161
P 2.373350968426984 2.9071519222688478 9.978990156423007 0.48634910265789144 0.2372212905141463 0.40827806938607747
P 1.3526523077497667 4.682316146236871 5.755951538271844 0.7226026299421298 2.0399531002632285 -2.282436153396947
P 8.370582143279826 2.7461874457261044 4.543709350799539 0.5704324035620563 -0.16773311381533693 -0.8248826563599794
P 4.815007998862654 8.238581005137322 1.2217992490862284 -1.8345016459615116 4.107484367255042 -2.5729589835477107
P 0.41430921503033086 5.222258858592224 1.446327192651786 2.1915923938404966 -2.948173694720916 3.510483469175838
P 7.178567622790169 2.7355560430712953 12.284103200891684 0.07604886063546257 1.1738849708038752 0.6104935332490002
P 5.250540816488687 0.8045134279921413 9.105478085143 -0.2040985398182485 0.5875222691648075 0.35583964908070326
Ni 1.8095039345624413 6.910131706240865 2.8245536708439687 0.857599172756394 -0.1879432702146247 -0.5321695034261157
Ni 7.251055307616551 4.971352155551024 11.707954915439103 1.2215835624314189 -1.3272515314848947 0.9706819462167025
Ni 4.731926247299479 2.1364545686209633 10.775794650742974 -1.3281413902890158 0.21010180858953495 -0.5538133069481365
Ni 4.909038508383767 7.239994541904568 8.35211579822954 -0.6754403704340304 3.6472784986514215 0.7843029351654041
Ni 5.444902271695968 5.543973130149124 1.8637735581933383 -1.1344259934773044 -1.1650005238300518 1.3351203927100104
Ni 9.151649548156414 3.2391335712799094 13.104786814976178 -0.5127656449782073 0.266244931440006 0.4901700190658785
Ni 4.572035178399671 0.5556751348089803 12.255291072959404 -0.22837875252185183 -1.052686767325284 0.051417949460659834
Ni 3.252191808605702 2.516627553810058 2.554115615691103 0.3834234722362429 0.014463483723497672 0.40145050494128276
Ni 4.35139857088924 7.514730894618926 12.199062247030664 0.5179070799698307 -1.106516925771862 2.311695050262064
Ni 8.35631048861854 7.970033080833971 12.400073229236437 -0.16354684364813124 1.1534925231904523 -0.35319732636184975
Ni 6.29804666630077 0.275320659831295 0.23320667770817502 0.4156669056509809 1.0508679689489904 -1.02710223398796
Ni 1.9213156750382616 3.566532236354613 0.7594993784371958 -0.3732848411403442 0.3218285822425812 0.41352851915173944
Ni 3.9355417820571827 5.779917464045758 4.205730619957297 -0.6168061057305894 -2.376502276545436 1.9768420307353567
Ni 0.07943216557719603 6.169667112205734 7.126444814445143 1.9464608473403382 0.8684929368507623 -0.7618831727093072
Ni 5.953277465369526 6.9198390449247995 0.3629032563111946 3.2881496372964856 0.031012646331430457 -3.1939760420358545
Ni 9.370568703438147 5.930007854466594 13.29215058574947 0.6729086051511121 -0.4384365952473288 -4.056470852321653
Ni 3.516371430501281 0.5609469664327171 5.0657448234768845 0.5632793374570428 -1.3984435782486886 -0.03494720549914626
Ni 1.0441829531087359 7.0296439798073065 10.65430544031763 -1.1960555933636432 -0.39044746896255983 -0.9433477771781238
Ni 6.599618210088506 8.893817032323406 8.027157035397126 -0.19048094903481388 0.03871592851295913 -0.14163847361081414
Ni 3.9934684588576617 0.9066570324979428 0.83485632856304 -1.2564572343801523 0.105563839375444 0.39236936857562105
Ni 1.312376186190942 8.621516848259535 6.283943956668504 -0.016571531205435978 -2.950418782001351 -1.8254801591891916
Ni 7.163950610887245 6.344977915245793 7.624588099786654 -0.3140733637771946 0.9699977756654844 0.42559779161144773
Ni 5.592845846830933 3.374578947859309 2.688145960977729 0.7123891797442377 -1.1442170114257972 1.186799364872698
Ni 1.1457273161303945 1.7612659284868892 3.334349496198003 -3.8847736116522453 3.463698390501499 -2.0085154505792375
P 9.209585558936396 0.8152307032583853 7.142592598986688 -1.854007577204923 0.1232165194602007 1.6169729487802862
P 7.808919260619168 7.964040665992543 4.302232767251012 0.3907526589078045 -0.4961303504143713 -1.759150582724022
P 5.22447101173462 5.440515301329189 7.962703106729651 -1.6505970645926349 -3.824814971710426 -2.4403803061463196
P 1.6690088750714949 1.3622663066386635 0.545961262339393 0.2187260599234362 0.10777293121162083 0.4100343899555519
P 6.5558511801952655 6.953161351753306 11.877462783421661 -1.7111966805525625 -0.11842886826357023 0.10053733269513009
P 8.905437836805618 5.769351399247476 9.304112636167112 -0.363091188436794 2.5891543623606506 0.36923741054384795
P 4.17699316386105 3.8509479258143946 1.0726506571973247 -0.3509350126902343 0.8821195264952614 0.11922462469198822
P 7.694456669964273 5.95711373094558 5.342507583141515 0.11666483438461198 -0.09439933811819226 2.5909273951006733
Ni 4.132731433054109 2.0809267245529566 7.643550079148589 0.13066037733275562 -1.633991851935786 0.29681046293168883
Ni 7.5896734160548025 7.746082910599698 10.147883848554216 2.847382337033451 -0.8631293585460038 -1.3960719926927183
Ni 6.549438736276167 2.521014524176836 5.659010693941451 -1.1363522639657397 -0.4495303911676452 -0.23189705008775546
Ni 7.223062703084705 5.388105006415446 3.374075846364055 -1.4023375139864558 -0.2322361785947291 -0.5601940136634997
Ni 2.624687034525357 6.405975471303017 6.474886375183549 0.03629369222471169 0.0936542324220516 0.825583796192062
Ni 9.06149264012937 1.6356492323249734 9.993443823684615 -0.30378149493288326 1.626850098684682 -0.6241784869352605
Ni 3.6267364041540153 8.716863448890683 7.036854478973979 0.47676917227894017 -0.023004431314973286 0.5225258096887646
Ni 0.4592569933307994 4.467149250715658 11.11354096549557 0.3381124070042693 0.1339976692361047 -0.822364517923816
Ni 5.504854422048767 7.337534627719103 5.521524909442525 0.34408893630267834 1.4496473548160131 -0.044852380428000174
Ni 3.165871166154714 4.087078939301104 6.955447243333782 1.5262839696341455 0.465125931613057 -0.8165116586874648
Ni 8.61933269705565 1.0984693779027397 0.8121392892467322 -0.24633096612489835 -0.11119404107802787 1.6071641902199802
Ni 2.9716123847219755 0.46114619078236513 9.503907400843543 0.7059323683753003 0.5052899054264524 -0.33278508125408496
Ni 7.269023218161333 0.6264173654681541 3.957095807527319 0.09100625327624327 1.1879062247836316 1.7857226767855954
Ni 4.268559502793163 4.0670295513269785 9.551995129849084 -1.3437485006986534 0.5675856781418805 -0.3823461800116641
Ni 1.3950659106149583 4.338452341317493 3.433666771710059 0.050451728892648595 -0.23723363180932044 -0.2839606035522142
Ni 5.495819129889106 8.283542784407047 10.381641231053113 -1.838045654559028 1.3773718451800536 -0.5208715619147932
Ni 8.19229380077806 6.553527019298824 1.4431713741815566 -1.3454981363999086 1.4610954487519545 1.2134437069331037
Ni 9.417051921366987 8.70299315534806 2.8963842435132836 -1.72051255863685 -0.5949800109944334 -0.8277432657372261
Ni 2.539617145327876 2.495906119311659 4.8563733958295705 -1.0646670796156117 1.7937992831461427 1.7087489903430186
Ni 7.330543477070769 1.8797794662464258 8.068400157232542 1.7874273181815283 -1.3693242922852287 -0.12476252379108192
Ni 5.084461319177871 2.7568748522579365 13.146112075831228 0.5691514799671037 -0.7843204186669009 -0.4345426595095613
Ni 4.274458577839555 7.333278333065378 2.794922019511258 -1.6344502796294431 0.7759723038125216 2.5615983071192527
Ni 3.502053105942478 6.487190426965435 10.331982593297084 0.057420961121630136 -0.8329592627205269 0.19109492846972898
Ni 0.003577714343800145 6.210652616206847 4.049145646597729 0.356938795682153 0.47399495196791275 0.4467602846216758
P 2.6798508533927166 7.395769325843207 8.649931348664953 0.16752562579022115 -0.5930061750975142 -0.8564845995359766
P 2.6600908187832077 7.7438520894982945 4.792206953730812 0.8884058737246054 0.21490797172892667 -1.6838501702188098
P 6.765837717091879 1.4713245231608678 2.12647841132732 0.09498374986675254 0.7530066961552838 -1.7650754328488891
P 4.41485096355596 3.31818304369745 4.884529345002734 1.669396713797641 1.1487956319354151 -0.22859215408423858
P 5.595814052313136 0.396632524646066 5.998219643282292 -0.3233889847511656 0.11134393639233081 0.17297636449214726
P 0.38431913888467506 9.160899521844662 10.64191458252636 0.19836575109952934 -2.3390510736775134 0.11578217466934253
P 2.1014241435432646 6.6780609738383 12.483106444106195 1.4043787127862009 -0.45136898703828066 0.5108272903049138
P 0.16212095660326203 8.127450645165277 0.48146906435595255 -0.15071832442489524 0.8281266172185738 1.6786269741466575
