# total energy = -381172.9323792239 ev
CRYSTAL
PRIMVEC
9.21035414268340 0.00000000000000 0.00000000000000

0.00000000000000 9.21035414268340 0.00000000000000

0.00000000000000 0.00000000000000 13.48028428468078

PRIMCOORD
 96 1
Ni 6.173589884428484 5.131456729361835 7.303145879326696 -0.016362757628739562 -0.17778124207995835 -1.925397856022452
Ni 6.500769296061324 7.826645832435096 9.717410890508164 0.4539606590248569 -1.4147906521481441 0.2918034966354006
Ni 9.054938666242926 2.4930770908876045 6.293647772235686 0.28566473072751447 -0.9643765728239649 0.19174413201795362
Ni 2.4891074282348518 1.4616371570270963 2.7599664450757637 -0.24581314594821538 0.3359189988973763 -0.28962063005146893
Ni 3.9775467159336695 8.88158137981573 4.311412844703166 -1.2430967539128461 1.1565259107001373 -0.5674506952259131
Ni 3.079049034346573 8.042637848374113 6.112527078267872 -1.816518064899897 2.625211513094524 4.271893816013786
Ni 7.881226391321907 3.096640810835572 10.960590419781528 -0.6160383743266294 -0.3738458558501368 -0.23244829460553515
Ni 3.181744483483925 5.431493227218193 10.079868721767086 0.5908726736942792 -0.9333369299093409 -0.0425260462876687
Ni 5.023971896049467 5.619522607858466 3.2830021963333547 -0.7230302043978516 -0.6421034468447974 0.27848261115677847
Ni 1.3003454345792655 5.697718514869777 0.6676364698554922 -1.7727419482552116 -0.729601429857466 0.14044728151619038
Ni 7.25560387310632 6.019316451867887 3.4781557859339634 -0.925480924200032 1.4353877595732052 0.4295858297249182
Ni 3.643376645476143 4.614534811210736 6.311752565452664 1.8096131102499478 -1.658325543585144 -2.146870368342774
Ni 7.925592667420079 5.548022628337994 5.792491217339152 0.548275664959359 0.16934648104904382 -1.1215164845044878
Ni 0.12610264325732243 7.287130915473779 2.76502200848666 1.0989931065909913 -2.8124341030930404 -0.7783765423786401
Ni 3.8289929133205436 3.9890504483078897 1.4622330669427184 -0.6059730196708273 -0.08722518896725623 0.18324946428338118
Ni 8.814981308720464 3.9920714444798224 13.1185948255017 -0.3753486656479084 -0.04473873766827134 -0.6965858941633939
Ni 0.01664863622068861 8.33248769450438 11.210097072520636 0.44150700664253634 0.994064586806701 -0.5751634904891384
Ni 4.929648658864209 4.074154120956242 11.108859622450408 0.25027169594020127 -1.970356680121329 0.20251679715342544
Ni 1.3912332096543678 2.0912569689579845 8.331894547695013 1.2031204706302248 -0.021468197176104962 -0.24235835463039554
Ni 7.247415868237881 0.38554726815958695 10.798947782839337 2.261478320198357 0.7242710187834881 0.8281811246055931
Ni 5.876298072118577 -0.28162131570342297 0.04897974250829828 -1.5729250665314525 0.12863614781387522 0.978054841642006
Ni 3.3239431417109726 6.570344311557608 4.766979067430643 -1.3730271950581128 -3.6074245998792778 -3.1141078076543014
Ni 7.583860896178538 7.618473407197209 7.0077928465722525 -0.7501648558311145 -0.025002435581608553 0.11214457791675526
Ni 3.515223777377747 0.3337859986881066 0.5176062474668759 0.1081601393477105 -0.5241733725945166 0.5106820229763012
P 8.650088337787189 1.6605900177280781 12.762432271326672 1.831989421062619 1.605655723995254 -0.7877744386537724
Ni 7.3030464075015225 1.9315310067212166 1.1563378627907313 0.8644084823687436 -0.1138114240962169 1.3273746873263204
P 4.304726127566509 1.815176602330887 11.048117336615356 -1.0562145779728842 -0.8014496221480197 -1.3376498440000832
Ni 2.2780613724919556 3.0739188670667965 10.672071469830666 2.073996820111499 -2.35018806413094 -0.6262338268023924
P 3.302252757610662 2.520367370331011 7.096331981330761 0.0804459612618937 0.0929518070383883 1.3458493490917405
P 0.4083594733993533 1.419674783370614 4.5516584863115455 -0.16215202018313363 -0.09865785628423009 -1.1325668287813784
P 7.05912859768049 3.700968990180705 8.83826784720064 0.2475928635564575 0.5558966718397265 -0.004078026724115557
Ni 1.1356550914380101 6.341881476055184 9.777897128496939 1.0208662803805773 1.9644313157758295 -0.203335693510295
Ni 2.913935014912912 6.261751394665501 2.142367987424165 0.006525202713027472 -0.4984718540633545 0.7486057388741107
Ni 1.6447758395963439 8.804011776888842 4.051243364926721 -0.5638313533057708 -0.7928374549989765 -0.39618231456380804
Ni -0.22033193482991653 2.6494781152644102 2.63365656884933 1.4605179789819298 -0.8450717297133445 0.9778779497445095
Ni -0.08261871908985449 4.832589946486683 3.684767977173297 2.294973623742325 0.45835724543065576 -0.11017871243963605
Ni 5.891357001207329 6.428643012456427 1.1110210781409013 0.6118490188356301 -1.2191484706273648 -1.2123769562314863
Ni 2.122995849471645 4.65681033690943 7.956103807721184 -2.017127874838597 -2.067374172588659 0.9253909355893869
Ni 8.356600401754747 1.6090857171382955 8.758437102321897 -0.7829379364970774 2.9027903814901106 -0.9258509059449409
Ni 7.304741112671143 0.6703516822685587 5.9716851052119395 0.3788296822179734 0.07281801240299073 -0.6874515359622935
Ni 6.180092394481486 2.659471349552664 6.925212810969965 0.43761409934603346 0.049113212586883156 0.7866454672556517
Ni 7.586052960474027 3.345836153603303 4.629332166240697 -0.9131422001290208 -0.46574582458524305 -0.0815960157059369
Ni 2.2748193278196376 0.19642277640698802 10.033820634995148 -1.036565179173073 0.5647710915112208 2.139987010959379
Ni 4.917306784259361 0.4937744560190822 6.588555944883104 -0.9107161071860316 -0.6109342203308447 -0.6623948501039818
Ni 8.253186544991143 6.151088989160094 9.226432698018957 -1.8647236780708465 -0.32394305748242275 -0.15814572723721795
Ni 2.761411549647033 1.5980793438899425 5.313537142235488 -0.8183595105294811 -0.31519899274120555 -0.42852036457488135
Ni 4.9704873693103995 1.1222908675188803 2.5655275789597343 -0.48755752114369577 -1.072830075042378 -0.7395816809986295
Ni 1.9805577220358466 1.1304880827415031 12.50745282613219 -2.9391331817852024 -2.0343974605523223 -1.5960475114815287
Ni 0.4768743771292053 4.105699584032066 9.761073495546778 -1.1970621802512869 -0.7664432812761639 -0.3223931964967996
Ni 3.5413627625483124 2.5524009821785185 12.793935366773255 1.376530580225681 2.35973019929342 1.343079756766403
Ni 7.777720431016475 4.4716177453574355 1.9069476503721126 -1.1615830135080705 -0.908803720654667 -0.7050504799909794
Ni 0.060137165565247924 6.295820494787391 12.033593918962408 -0.3436371934772405 -1.407926578038459 0.877767677284469
Ni 7.002890175040789 7.376056885107961 12.178628445242316 0.19388714650288544 -0.11151928562793052 0.1503246885309024
Ni 3.285112288476616 5.280627625705203 12.97861586263269 0.15037662481476036 -0.11529546484091112 -0.5824343131189389
Ni 4.589703696334117 7.927978149153405 2.0935282422994437 -0.6094578928956342 0.8418295686269631 0.594785378485124
Ni 7.2744850991809 1.0421607861291973 3.5122202808787613 0.8999215876736888 0.9528559737788751 0.7211543275313774
P 5.5967914537355075 4.193713728602159 4.990913171781423 -0.2852150447846056 0.7612411682499342 0.214664745369869
Ni 0.4597283817826497 6.572637689749105 7.281281419532331 1.120353317434322 0.4160140045777545 -1.0422874263688309
P 5.5511817798226675 7.416352184657371 7.878673281142457 -0.992910932818232 -0.04632099455372667 -0.9694493593611822
Ni 1.0519329719170656 8.148400345454313 0.06716466580666494 0.24935304078067377 0.13485358947849677 1.1922909841148885
P 1.7137061302998369 3.8533266690712953 2.5259221349386105 0.13882902918647705 0.4575234366754508 -0.4218516943054541
P 0.9929867051476436 6.602792389343337 4.995672161787636 -0.515036700400571 0.1683954299896842 -0.014196603215356195
P 2.2099692240190905 8.364742354852273 1.9651156422130946 -0.25173439652865676 0.36100088156666854 -0.10662827608421638
Ni 7.158664895333169 8.315973529454759 2.194832927955205 -1.0357015456211969 -1.1195876429128913 -0.41609910809239303
Ni 8.697678237849315 8.668499835798452 8.804405059012444 0.7246682542219068 -1.3862879167227609 0.6019129906688409
Ni 4.859769701679896 6.319942412391939 11.481171611649422 1.2346223978932478 0.8115756548384281 -0.1046582968420391
Ni 4.4781663071813504 3.688037652908163 8.653439064638864 -0.527141454083905 -0.5411714498144099 -0.40340839999860206
Ni 5.416296142816701 7.047532761764444 5.56751910607198 1.2787782664748557 0.39974792042787927 0.17581717637505204
Ni 5.123793714681811 8.90452437208489 11.195065774494433 -1.3310135696304883 1.1681974335007945 1.3840777964453195
Ni 5.966909536568198 1.9750315095262132 9.832141509456081 0.13570179641140498 1.056330020504826 -0.9552494137117161
Ni 1.6943183347452067 8.371309337384554 8.152997233226909 1.3272085940621012 -0.2531436181713576 0.011854585345740874
Ni 8.97689933525272 4.38745352883572 7.538255827442789 -1.158788995702701 -0.7224355082366462 0.9107652152564121
Ni 3.292370047572601 3.714830573225702 3.990541604650072 0.6008920056034941 0.06469769728870149 -0.0021805525910865674
Ni 6.497656196347564 1.8659164435235036 12.556386516869575 -1.500611761679022 -0.08327314629804368 -2.6510467289900728
Ni 1.4009869747338706 2.800592396340333 0.575379115113419 0.18870765918447502 0.15872422544850728 0.7350801935838501
Ni -0.05814865009719821 0.1530272716396742 2.120529316621512 1.6057760516232022 2.514810657341753 0.11517950808833712
Ni 0.6704520751291505 9.08154737947681 6.113834948561819 -0.7220079337809243 0.07514203255047704 1.434525925793542
Ni 8.230925118931502 7.9253992499822425 4.664002702490718 -0.5502497579665943 0.39979574294667924 0.5708833750565458
Ni 5.2432704291400825 2.017399138766735 4.803254047379294 -0.19811326876909108 0.10630997351284917 -0.350998261828002
Ni 1.3390012910841504 4.385860137562109 5.4948061229056435 0.1653170481746766 0.3578137420879386 0.6765426023592737
Ni 6.288654839233232 4.207142425000568 -0.27572208384938945 -0.6263991487356632 0.20767031632990687 0.7093964156645007
Ni 3.5427258949673552 6.215064109313283 7.767204969646062 1.7575850380091151 3.5277983063052014 0.9214414640233357
Ni 0.3788154202874353 1.4960654609621118 10.635311104216585 0.3976565851164893 -0.2781396259950629 0.8082134232344144
Ni 7.149583486109005 5.24441251305874 11.264219876804567 0.0849541335448924 0.3077772463558377 -0.42698258777411624
Ni 2.3461535209648208 7.583133278198104 11.752381542984699 0.9739130515594904 -0.46191410954397877 -0.26782693121514517
Ni 3.8369506593344154 7.690664163281386 9.770200035506438 -0.018447922292542423 -0.43255365410399055 -1.8833924581249435
Ni 3.8998757991107733 0.9309918111437406 8.683365347449366 0.5660715554901993 0.9813836489049228 -0.20642513106889612
Ni 5.748974135896626 3.196167898134068 2.6781683685435898 0.8424972841179491 1.712950687129192 0.7129054572590239
P 5.178088752588957 2.3054805968939194 0.6997032389780578 -0.49279922915860935 0.003199994994536425 0.9674932640760757
Ni 6.560922119228683 0.3738602497371308 8.16209614212402 -0.7169418321119265 -0.5109519888082361 0.2651740669733304
P 5.877928304808919 8.656314537214708 3.9374835173096647 2.9812301109552526 -0.7548419495918097 0.09773740135248975
Ni 5.67035455259291 5.641903768522481 9.394463636622287 -0.15226150054229906 -0.026065586738800273 0.7220017631333371
P 4.20887397158692 7.37788053523614 -0.37632125637475417 -0.01701221828728038 1.1644680483653493 1.6169873469579892
P 7.959339405145574 5.947042802596067 0.4980287186160816 0.6472955325686981 1.049212178513122 -1.7513339148930807
P 1.584411178282783 4.802573402205192 11.472274409508914 -0.4725353367032507 1.9157983852594747 1.935014038955977
Ni 8.113014164684294 -0.16334378935974128 13.535958341150083 0.46199175685944954 -0.7492749970269935 -0.7313065854740309
