# total energy = -381167.9384905456 ev
CRYSTAL
PRIMVEC
9.19699328286668 0.00000000000000 0.00000000000000
0.00000000000000 9.19699328286668 0.00000000000000
0.00000000000000 0.00000000000000 13.46072931579928
PRIMCOORD
 96 1
Ni 8.592585002243265 7.865525918618259 9.677684862265904 -3.493552497748454 0.22977794686222364 0.8499321431294394
Ni 2.2606852552509955 8.308094418164378 7.751253280749957 -0.9866736936592684 -0.12723412526002603 0.9521772025442956
Ni 6.632944918448456 8.586064334215207 1.433015666840452 1.579336369374435 -0.63159946198968 0.3658540958939118
Ni 4.6834767088977 2.0836707312227296 10.141663041787364 0.6906607869282105 -0.4363210915662228 -1.863525029777055
Ni 1.4847441538980184 8.925718482232451 12.592525557430175 -0.14973873412044533 1.1180436954645392 1.4393881389818501
Ni 8.042807155443159 5.442881616859352 10.823462803222133 -0.36273354798705915 0.6931305886249418 -0.9400022577446585
Ni 5.673293882172395 2.8194853521717307 2.603210704478901 1.4156002925336328 0.4174021431745328 1.5979005055298674
Ni 7.262138799694664 2.2110122961261105 4.687483838742304 -1.3242117162173066 0.03677294585397538 1.0319482492263519
Ni 5.18112599944529 5.20887332728824 7.987367681715181 0.19683080251224166 -1.3166727275277839 -1.5929143651691855
Ni 0.7530378297164836 6.906739399683012 11.723393165534588 0.5429789353367939 -1.0751378972399486 0.0653129622751972
Ni 3.5960518490478504 0.19688002888102477 6.194748669368542 -1.3415571494742895 -0.4638226394206012 1.3980509707959599
Ni 6.545150423390846 4.342139511163764 4.20016461071815 0.6399997702382333 -0.20762892156901014 0.557553233606543
Ni 4.292641294905639 5.948237987530373 12.517239892534713 1.4421585026381356 -0.6152243630657662 -2.13374617225599
Ni 0.5682592042082645 4.041618568307859 10.169675243028353 0.17671372004739244 -0.9377731113038236 -0.0833281679056952
Ni 8.345958438293456 2.939248594853503 7.114856314596028 -0.1532935413512392 -0.5651544429925686 -0.4820928984846987
Ni 7.783681878023488 1.1382566400911454 2.729216866000513 -0.45094398368572014 -1.7525927270008461 0.08399871161015857
Ni 1.5261858042991907 3.621242412840307 8.00508200990819 -2.1847347474887147 1.590933587293731 -1.3027856851330466
Ni 2.678155160934532 8.307974857255543 3.925889126750355 -0.299634048423413 0.797975033335858 1.223811680430989
Ni 1.0132051264416246 6.302717688243287 9.522496641995309 0.5768928144754193 -0.15282611479651745 0.17512297852150485
Ni 3.319728194741764 0.581143271684297 11.168743671549063 -0.7293463764238665 -0.7232155809357802 0.025186783678272748
Ni 5.0201694251730045 7.735103361064103 7.470085570237413 -1.0672384398872135 -0.38973810160036104 -1.6790113540692697
Ni 7.155324923139134 3.0578622134118523 12.263356901117856 1.0806187178488615 -1.236147833398839 0.21436315496905017
Ni 0.4000452827696308 1.9893463711440735 11.583940080566117 -0.07465146606730369 0.08287385397709598 -1.2200519562782408
Ni 3.045979698472147 4.157445497991029 12.921653746973355 -1.1068889643993003 -0.7933588747200853 0.17498748138490508
P 0.23939220926592922 0.23617877991613567 1.5323560668944298 -0.19823385350735537 -0.003021560435143183 -1.2733491250394844
Ni 7.282206638393146 7.136517072479925 4.059701695919662 -0.19428001106592993 -0.9623898814112393 -1.4236648147093223
P 3.798560437637157 2.076598243615428 12.646529380552822 0.1720415113827037 0.8974718405816158 0.6183477391860963
Ni 6.908477631357628 5.224002380752494 12.776479212667427 -0.43008668062073674 1.640140388035685 0.9548753182017491
P 8.928275246282945 5.436195402957521 4.247451869862107 -1.5755884722962283 -0.2653645857175817 -1.0974468451497938
P 6.974981087649434 8.447272513042527 11.419880440859886 2.0934706125653944 -0.1601445028348016 0.205940992343626
P 2.5645171155823605 2.070187939503218 8.671549464333685 0.7671688465882788 -3.433067810099836 2.4193962476954844
Ni 1.4452614630031597 6.2346691371296 5.10083533096609 1.2296786807347273 1.60983865172835 -1.0586553262038927
Ni 3.7708774887451173 2.7488340520426124 7.124387158428858 0.3778110111454719 -1.1604267884164403 -1.4028031407689647
Ni 1.964330550218377 6.537710056064049 2.465615412093881 -2.070353824042273 0.711932037602161 -0.8133918821115605
Ni 5.689361028921363 5.940650468315778 10.230530825926603 0.22216722439450123 -1.7892795408989184 2.122898945128841
Ni 3.3142283929353056 4.75767804831995 1.7902498669530882 0.7522104255062335 -0.14291914009545062 -0.2526977888831906
Ni 0.05363686310244951 4.205876863062617 12.476601139621339 0.9041165995916429 0.40934559141864335 0.944879640441618
Ni 6.037264879648293 0.8017276302910168 6.6148314407597955 0.10339614230016388 -1.5103436442548053 -0.31100629481609665
Ni 2.841024709748195 7.040362510796779 0.23258275565806677 -1.6843931872064732 0.24734166677759983 0.72057171555503
Ni 0.7162176682914739 4.149085431365493 5.733301502317209 -0.763568273721214 -1.0763491439392303 0.669411390631131
Ni 0.53647439644385 8.373393068374837 5.699676376256018 0.13789443318734962 0.4130202120567532 0.619220628709353
Ni 5.152137077549041 3.8005653821084073 11.487642045792368 -0.9360481581929169 1.2115953408704552 0.26033062283810005
Ni 8.207598875791184 2.523857209585116 0.952092027739727 1.2516955513254506 0.447702593930287 -1.4947347340729549
Ni 5.096973513610685 7.8213711552858065 4.831823286084976 -0.5756453152215634 2.7655801188539795 -0.2279442360875945
Ni 2.682054685961185 5.127948985992209 10.705909597955232 -1.1737512734394882 0.0699309206631828 2.8239511025937043
Ni 1.8678173058087224 5.962622084562649 7.491905436099992 -1.2429635707690916 0.5850085016040183 0.27658385147216885
Ni 2.43654095816285 -0.05941349439782819 1.7150718068755775 -1.0963119602144022 -0.7260535646052076 0.5459719565268467
Ni 8.324566232604791 0.1624731584159058 7.428747845856998 0.36262813275744643 -0.37161670940930197 -0.6076383231883923
Ni 9.069587043534169 1.5610332107284055 9.054587667671036 2.2176605516824583 0.5471852601086576 -0.4042031279857554
Ni 4.239491872431522 0.006866474964384225 8.934693827688843 -2.1188391732371703 1.9259143906475542 -0.9482179607862316
Ni 5.154896175445258 5.7256339692636224 5.372176974170907 1.6295019344852324 -1.6672827527784317 2.1958388278216767
Ni 4.698173503691547 1.2579647008149937 4.784400831144106 0.5723689584631368 2.743889521254423 -2.1433592698657216
Ni 5.762651866037862 0.9995016068904157 11.965053353271209 -0.24416686859404396 -0.33237447607922754 -0.7340520094296519
Ni 7.597507148979783 5.320699565021896 6.0161108760780015 0.490249209043246 -0.7190619637787229 1.0084380819195535
Ni 2.451697602606066 2.6634491691476985 4.984346217787827 0.9924311649683359 -1.3376259327406834 0.49017181883809124
Ni 6.105690507474463 1.6301394160356424 0.5844624664534456 -0.36692778857406483 -0.4377830208237299 1.0081904846851217
P 6.6427581099660005 3.721572409339728 9.787996355254537 -0.26754179587455856 2.5455566802753578 0.29485925274258895
Ni 1.302698874705651 1.6145413159290318 2.869288908597037 -0.3221479132552129 0.8558402810837583 0.5269828170188537
P 9.035714518361617 7.11304634637611 7.7572156913036805 -0.3269481628573337 -0.03094168388417897 -1.538823496862053
Ni 3.801806976161705 6.278823900462052 3.710073409007596 -0.4511026207507715 -0.8958163072560636 -0.8516534966959204
P 3.9851122433933446 3.8201641741645322 3.687243713315002 0.06988464080627964 -0.24171557884007402 0.3933533297554451
P 4.635597163405355 7.340938635610608 1.5871811814908499 -0.4377801926102525 0.42799714508155967 0.9511107089529942
P 6.562477558179086 9.377989809380265 4.408294401421348 0.4324497815362746 -0.9981161311682553 -0.5806476535321613
Ni 1.7113580611072698 2.277488161438954 0.13946688045795358 -0.42971052822824063 -1.0849047468187252 0.2456658217370737
Ni 5.57868441531113 7.667542250578747 13.124291093464484 1.3936736676638708 -0.05531368497064022 -1.1893966932862292
Ni 6.676897347935187 6.74939724365477 8.499225406728987 2.9989771505260285 0.5075972134033903 -0.5050639054585753
Ni 5.224324275507053 4.006412479152136 0.5307511077077982 -0.09874501668139768 0.06043660801950236 -0.4768948992235271
Ni 2.44520452555697 2.799996924031455 10.86621410542471 0.12221327500666693 -0.4883653617569718 0.14051952951502253
Ni 3.610380764122201 3.9677851086051046 9.082007582563637 0.8524099152459707 0.6036677685764185 0.12057573940324395
Ni 1.3769002141279014 1.2912762094153147 6.914669047036737 0.29730102941486214 0.11013140414146841 0.23447869477200262
Ni 8.723522591404715 6.106509039850342 2.102269810141125 -1.1478643783703972 -0.4170254765614044 -0.14952507544774246
Ni 5.8606458263184855 5.711590160971881 2.6263494191358716 -0.3105195849876652 0.8496439224650593 -1.8517779165434558
Ni 3.872697398108495 2.2074162718680412 1.4809899413605663 -2.385547160356524 -0.3008254976283529 -0.7842273447324623
Ni 8.369916605025603 4.896175565717033 8.488026228368243 -0.3499171129486812 0.3387130167027457 -0.6819686584708513
Ni 4.949610094973759 0.38829888332613827 2.581538910203419 -0.8793527623834018 -0.8092698895233869 0.21332520062283908
Ni 0.9156443445307064 4.152966562406171 1.4449018605773527 0.5786990144462227 0.05335090481731457 -1.6335105414239932
Ni 3.6716511314041833 6.424614633298133 9.351370032877568 -0.24686524136181354 2.741460857208272 -1.6150032266484249
Ni 1.7538757596879668 4.2730057148775655 3.5575228863257835 -0.09031231253301221 0.756783903809529 -0.14427436857176443
Ni 6.552213714005161 9.100185439203209 8.932243748757003 0.11291179510008297 0.10159559875631534 0.7506934746410749
Ni 8.272888329008655 7.607292749518366 13.220441056651136 -0.41054578237433165 -0.6902812921016047 0.4200264681712572
Ni 3.1442311745564173 4.877238957156 6.146088299171568 1.2771476728499682 -1.6928778276387166 -1.1276387953521418
Ni 9.164619572072853 8.162138139454523 3.3537405142077237 1.4553631742538677 0.8070790525196553 -0.7303321373759035
Ni 7.06867085521196 7.5446244393023 6.181489364578623 0.4700819900667517 1.4564222116460015 2.1109181186178807
Ni 8.666869114602402 3.3045899442845226 3.0445743979436735 -0.12413106085467009 1.5980833109646349 1.7390746379097533
Ni 8.315893468217684 0.7013700428126339 12.78271201481498 -1.5529923321632673 -0.5847143674023673 0.7955276002366299
Ni 3.8953679858224075 0.00786710780141209 0.10979094318554723 1.3374145880608257 1.0341694252473868 -0.8218508115121911
Ni 1.0910024901219435 8.94068198982293 10.25364286930391 2.3352263006147846 1.300853243997024 0.03808446557654731
Ni 7.3191969441884215 1.8284541758226998 10.23102930294652 0.04465851924963922 -1.5297271909877397 2.76618972741352
P 7.156345789360734 4.361471590423255 1.3719982168656233 0.6250498337966203 0.3376488371042895 0.5953001133380135
Ni 5.0290353264128465 8.186537761850065 10.73923858084223 -0.4616472290358372 -1.3561239915448708 0.06104467391714648
P 3.2564620799815187 7.196591830673547 6.0819475503782225 0.022300206159097075 -0.04795338795082709 -0.4703938648802157
Ni 6.395864833219557 2.2572455798737123 8.258076571802466 -0.5226939598355127 0.5287864458864958 0.1251299344328297
P 0.7425146303403137 6.012396210610395 0.22437443941682259 0.13707887926458973 0.010587545707859185 0.6950902834544739
P -0.0654320066087752 1.7920248865996542 5.365379476653928 2.2616719242664014 -0.24592113228098936 0.17265266260414136
P 2.852143874269947 7.618338338096218 11.087628952498193 -0.5850223855610892 -0.6925636603778782 0.33393976368381845
Ni 5.825035069471317 3.257105869490636 6.335157321908404 0.3549495331662661 1.4627988045963065 -1.1215460521908427
