# total energy = -340887.6732634242 ev
CRYSTAL
PRIMVEC
9.08793817165400 0.00000000000000 0.00000000000000
0.00000000000000 9.08793817165400 0.00000000000000
0.00000000000000 0.00000000000000 13.30111613708294
PRIMCOORD
 96 1
Ni 6.232262527732172 1.8642814319226948 11.295068287302882 1.133691943524757 0.44898840262124606 1.4454865385701041
Ni 4.98026274481126 0.621461375207484 6.15607561683201 -0.475559211131239 -1.6201860564009452 -1.3452896199335282
Ni 2.9412657042313985 1.538751491631423 4.6741055620219125 -0.9382770475234357 -0.10816836687782662 1.8507810998478256
Ni 3.347423830738867 4.133612261913005 4.892549602105642 -0.5105526964872884 0.9204253640539954 -0.7787195275403557
Ni 5.2576084376590835 4.559518477763103 2.778762466701072 -1.2326467622241157 -0.4589208312436096 -0.07697728598700292
Ni 7.171291900721459 6.312890713948368 2.373663993768086 0.4487675448596916 -1.474526120335564 -0.0561192115910711
Ni 4.711268867014461 4.811490647626749 11.16101938374944 -0.7529195357581162 0.17713692362774008 -0.16962827395552077
Ni 5.617690718346431 7.451064073023715 12.374653527476227 -0.10681442395309346 0.560578393586112 0.9379173501911717
Ni 1.7708119892678729 6.676989863245675 0.28213958015948304 2.4192386390716982 -0.8638706075874025 0.8390324654978002
Ni 2.8007752702011706 1.726053894462331 0.4492504022718215 0.5688609453098783 -1.0919074033888034 0.5813387660619149
Ni 0.8698265424663951 0.10649881941070151 4.557361001274404 -1.214786079893611 -0.7497761050331282 1.2553202925622318
Ni 8.68263417124963 2.250273423938083 1.3386641775776855 0.11528955130364016 0.09105047625061738 0.9074402646482372
Ni 7.039780349466434 0.7190394746463845 4.68547729888083 -0.5681682901182279 -1.7365043060794159 1.218756634505585
Ni 0.8887367239225112 7.681806819645585 2.665942986389405 0.9344391618345842 -1.6182212193650902 -0.14214678070580034
Ni 7.863320205950375 3.8902918090554257 3.920198395529756 0.3666346828136782 -0.5458601135393308 -0.8302076681173186
Ni 7.53978052408802 3.95539779711368 12.635408280653593 1.251160247647271 -0.6770809913612468 0.1965281836701583
Ni 8.363174973563455 -0.14537338313459724 6.725549442529828 -1.3438767987464018 0.18273652920270464 -0.19243498743739115
Ni 6.889883899573518 1.0244832543002536 0.6031446361048302 -0.5988592914441816 -0.8809661296171085 -1.4311076441406128
Ni 1.92198075048521 6.579458112290736 9.043547998266867 -0.8053458718786324 -0.2559803162892043 1.018774173738239
Ni 0.09199265272469011 4.591889713031597 1.3133297327270441 -0.24843464273146246 1.7229386515798393 0.8623544280531923
Ni 6.410367937275119 2.1199887443173213 7.298123163890219 0.29020504180002926 0.1687507564465739 0.22246007304457172
Ni 3.154005245612704 4.394263412596812 0.41600945133370354 0.9267705895457329 0.43840265668559986 0.09344571595567132
Ni 6.356567344128153 5.502473839982032 4.782602819005758 -1.7163288595728055 1.1133696870276373 -0.03226991577729926
Ni 4.967548719505077 2.8458605307758496 9.497901277743422 -0.02153427452735001 0.41535863038194276 -0.3945830883974882
P 0.16609297305280132 5.652633840077864 12.591395396766641 -0.7873314375790827 -1.4231788762118394 -1.0930749413343435
P 3.916819500169614 6.079757839624192 12.663646321705325 -0.23622447381851575 1.8820171750439716 0.8502882409172775
P 2.6352566548319647 8.338528485621804 1.546281757084392 0.07837930854085211 0.7056207506721526 -0.9480775785536254
P 6.49711230578657 7.888630113368332 5.644687347063048 -0.7835927964722569 -0.06697878001339433 1.0833083488658828
P 4.667146927871129 1.2143393677180356 12.609018726197485 0.2810228610801289 -1.1195711878526589 0.8326075358080629
P 3.995857297230284 6.014960841459011 8.33667363746956 -0.27145115823129373 1.155650192963403 -0.1946055127261487
P 4.869498956082337 1.19759029792583 3.9739208324096507 0.4753206127578717 -1.7982596329103417 0.003289212274233045
P 0.15964780740080328 5.602813763788731 3.3726310444570666 1.2392154165805689 0.39223258588744064 0.3530052649557017
Ni 1.5658153710894747 1.0812374273074838 2.605835364248521 0.4999312122177003 0.4077499647967494 -1.0785093848153426
Ni 2.0074618956102714 6.529801618886171 4.73088790763704 -0.5853172910936888 -0.3399039516870533 0.3594476781469358
Ni 5.902061387292667 5.882858574231934 9.39157240277391 0.08211897808894243 0.3613754912972679 -0.9054949679964082
Ni 8.482926733005613 2.8662993034088777 10.362420464399372 -0.3329666011372717 -1.8439435081007016 0.1487509162858793
Ni 2.2750289671361124 5.2186938870078485 6.975890327516805 -0.2408367757795465 -0.3510846508942212 -0.4396270160110041
Ni 0.5684532502568718 9.042207527407209 8.932989596937459 0.5625573716893537 0.5509696668517544 -0.13106506897034204
Ni 1.451852628173435 0.7877206575262632 11.59200212178398 0.3362720113614209 1.10602893039185 -1.5867144070060608
Ni 4.533281600665925 6.966431601613534 1.607399957934388 -0.7305725355214837 -1.7369799601642537 -0.8648679385036655
Ni 5.731753428580818 7.7982051299540895 7.7869651681966285 0.08024747209784244 0.5088519117460979 0.464897874762651
Ni 5.38620276080597 3.0467039612738147 5.210312990555123 0.038209421190185805 -0.6205311199906604 -0.9091073679380149
Ni 0.6305629451461136 7.1340404427300035 6.9199322578811415 1.187495105388142 0.716322967581005 -0.42875484918319057
Ni 5.139510682938674 4.486215169600361 7.277705293514663 -0.288445121686129 0.6909083841626423 -0.42335553254449027
Ni 8.346307760576838 7.273149510179431 9.48033065835316 -0.794825689073599 -0.4825608392600528 -1.4515818528345645
Ni 4.538207263079042 0.376193377229736 10.280551774641866 -0.0037139585164774743 0.26096722798083444 -0.1632856195669446
Ni 8.191667407031437 7.042352235929372 4.621539110859635 1.399736843138815 0.9795239699883647 -0.2772873052970966
Ni 7.48291729582441 6.269841151492764 6.840258305158261 -1.1847836199942499 -0.22192451225607587 0.9690557234671892
Ni 2.438557324076401 5.372616293448755 2.6220891414180056 -0.6532635772266749 -0.3450824105641993 -0.5121660637209954
Ni 2.3416435529076094 5.371425773566617 11.414924558032405 -1.1062736994128046 -0.9405666148885607 -0.12403747269959929
Ni 1.276619007048468 3.151533326468114 3.788875873385788 -0.8566710045151698 1.1385055628633167 -0.14311480104602448
Ni 3.778073950241449 2.465521236216105 2.685574750125229 -0.30680614069182 1.0701131903318473 -0.6922782679269754
Ni 0.9201082860075328 3.237477956432786 8.14101487561861 -1.1309976845220457 0.3042103549401858 0.05971824179623909
Ni 3.4592145564653585 2.904804896848691 6.90464907249343 0.05436983300013217 -0.33882434546962936 0.6647091000594552
Ni 4.043069135304353 6.824841527081485 6.238263293214426 0.5318473442000066 -0.0027677925531242654 -1.2319116838303041
Ni 0.8218831253807836 7.335101983740727 11.317706340939555 0.1745516793990671 0.8590235639077465 -0.07892746773483826
P 0.05852995609860155 5.4298975668618175 8.060515738122463 0.7157668379672188 0.013004382679467926 1.0725912195586949
P 8.401298873605942 1.6648466318196251 7.948454191842631 1.0345741168849731 -0.21469122773243027 1.4065410105448422
P 1.6852399647624954 3.1388647408520884 10.628656153003588 0.5597317293151006 0.3179127921279428 -0.36026426051096017
P 4.113028082271472 5.952608498624327 3.902586880418353 -0.29009602702599074 1.2531703360987643 0.8305750787590664
P 6.501265493467003 4.004409046918003 10.711229157958543 2.1674096259467057 -0.3754507384434114 -0.9318557173781241
P 6.301412648214481 7.911958850295403 10.29836231559616 -0.08837910006604134 0.3210348826966923 -0.4684243998586706
P 2.3291658139902474 8.351896842466262 5.979676013257591 0.3263704359769928 -0.7088955647686824 -0.7625760850112737
P 7.02424906337046 3.9984473595692847 1.8425103675742367 0.35060076927926714 -0.6018111749836539 -2.2704465851352382
Ni 5.157132194781911 2.9515532500831494 0.8430325747678815 0.7109113096471305 -0.5724736023618011 -0.8911633818650847
Ni 1.5428319758076035 1.044285871271071 6.825374080250136 -0.30075402096046916 0.5280955904670582 0.7223828006218398
Ni 7.221257384019098 0.695348128991853 9.533694121680808 -0.05404021757485532 -0.7247469299786421 -0.8271472840244398
Ni 2.538451938919552 1.6347655569350883 9.126294582838225 0.09056916573882468 -0.27036820957976015 0.5614983342972201
Ni 6.47350184278052 1.9527070689699892 2.885703868693912 0.40706862245900866 1.6277016480517001 -2.093946523760548
Ni 4.0896539056542425 7.097261557516191 10.559157055700865 -0.7628622487931249 0.0785734268295292 -1.2137272996117936
Ni 8.760717734816984 7.380905191419901 0.44047145413331323 -2.3242330348280746 0.2225058386808426 0.6791813255337014
Ni 7.194702429090815 4.251182916227584 8.337791453847442 1.866260169320031 -0.8888295915255854 1.0177357051713958
Ni 3.18694902097719 8.38186886209442 12.576112211378929 0.7144856572619501 0.5441516154886564 -0.046974826087641676
Ni 0.16171349571538188 4.9882510423410205 10.298907591878056 0.6175553251917881 0.814114876320514 -0.5359945335991608
Ni 8.445429900687305 2.245484080595439 5.775238303268135 1.2022293262745232 1.0240996997162106 0.37637942090526794
Ni 3.6194621677762466 2.9400479205351666 11.92798864357439 -0.6206766444295891 -0.12109124558708176 -1.7355838511476753
Ni 0.9487262028689849 3.130467486110907 12.869987045918593 0.9299183911460951 0.6718763072318559 -1.6253447177837492
Ni 3.116172159587228 8.328204588017927 8.016370170340249 1.050161686910585 1.1448970682119572 0.013670812618873231
Ni 5.485279461226279 7.645109725874057 3.6170256915899794 1.0017663263263328 1.0116103089999482 1.3172437695399057
Ni 3.1712995916868056 8.39491914110777 3.6051741116029934 0.6719516405544814 0.09173721790499685 0.7153094387148261
Ni 2.8919636404100655 4.297086091225105 9.07968800143706 0.6049438070753645 -0.8892389111488621 1.3144865185097427
Ni 7.363629021221863 6.171000737461276 11.270793496026725 0.3087046432661135 -1.1958815296796244 1.743736819272113
Ni 0.9284237493064305 9.3456719541578 0.45678066772479053 -0.7456078325880514 -0.4797920182656641 0.07952550633015337
Ni 4.731244154807879 0.17563076401694677 1.4184708141958273 -0.16123927856087716 1.2093764788422654 0.09544731976673239
Ni 5.789798088788533 5.246048580482912 0.21608572016453462 -0.24364467754198682 0.16181469144837293 0.5266907396997317
Ni 7.774013038914017 8.64575531871747 11.895267522691677 0.163314415922351 0.6491477552860884 -0.14480787247773128
Ni 0.12194740527058796 4.905423575121181 5.769598328925736 0.09684599988647191 -1.0055443053115263 -0.5110041822024103
Ni 7.9653413982929155 -0.46673468625078246 2.667378880598395 -1.1035953812496928 1.6413086973121733 -0.6953813323323315
P 8.643792324102648 1.6645558178026145 3.521550541011587 -0.022002729523336297 -0.5398882122266121 -0.09332898787214895
P 1.8995062797331075 3.2951500111812067 1.628722078144086 -0.7981627238666318 -0.8961618635209405 1.226138785902269
P 4.433550568707342 1.3896547802852866 7.990605866020714 -0.13609543230539786 -1.1518171923705582 2.1824865748844866
P 8.666139563722309 1.5695868653725813 12.316647036608241 -2.3728741928745456 -0.44495974107782726 0.49708140147373103
P 6.669010653653946 7.843035928263884 0.9677345340558421 -0.6000543401935472 1.0983256482103214 0.0934454588453552
P 1.5743398569630986 3.0393245555921693 5.972307513101584 -0.13671661082916453 1.0094012171637714 -0.6594455376676707
P 7.0619094785733365 4.017768315824428 6.107366995364139 0.4217413939798349 0.10099293217530994 0.7042932901099807
P 2.3992974317799667 8.559410819479409 10.122002698949082 0.09999688681062778 -0.06889296631697167 0.5995925700657803
