# total energy = -340864.4784573714 ev
CRYSTAL
PRIMVEC
9.30776013208505 0.00000000000000 0.00000000000000
0.00000000000000 9.30776013208505 0.00000000000000
0.00000000000000 0.00000000000000 13.62284779611575
PRIMCOORD
 96 1
Ni 1.5358548342701812 5.947835379742176 7.158942473492584 2.6358862191995507 -0.23454657189546058 -1.0040386673002772
Ni 5.317095034763031 5.208454862010186 4.306645558235302 -1.5620441579528905 -2.590686739844777 -1.6537114418519
Ni 4.452497224018357 1.7809188428727922 4.447423564134226 -0.9353619307591698 0.8134625874484958 -0.25902861619722484
Ni 3.356573658182313 8.840957060396242 4.996206291469383 -0.46588569259721696 0.370679028086381 0.6459814417429649
Ni 0.09227433864118283 9.266293761414644 11.325626316366181 -0.07193098181234708 0.15045170102706992 0.15034217203239916
Ni 0.7304804377811455 5.892817211378394 4.3662999217711365 -1.4332205767185575 0.6318612002914988 0.5339787887207127
Ni 4.683850902389222 4.934583336729194 10.348255687503492 -0.20930862326427824 -0.60608640532024 -0.9389545332064345
Ni 1.1591697938908407 3.2749352967005434 1.0265854089715545 -1.008370461906412 0.5051276688169752 -1.3416983030378442
Ni 8.692796139399002 3.3176299910474683 3.6615079703488482 0.10295879765242912 -0.5789725798225834 -0.8045020358210984
Ni 1.8409445860259022 1.644811470857297 10.057925250512524 -0.18539710675400328 0.09203495165107375 0.6742612625242645
Ni 8.268967295473297 4.554966352002942 11.624034958114878 -0.018555137294368047 -0.33672298285591046 -1.1761506269096003
Ni 7.487683242980055 6.532455774756419 8.666951282674976 -1.1461473956792905 -0.48358748075235425 0.5709571657172747
Ni 9.294412503865496 2.412710964712893 12.307888173020306 1.4523470131353633 0.07997776337622355 -0.5159281018665889
Ni 3.35242239729748 7.549672923457604 7.17806898917026 1.2436670245940193 -0.024093550614093993 -0.706249385395087
Ni 6.212864533183277 3.7294704403102474 1.2053893368859405 -1.2501760293571307 0.18039296867119256 0.39446250365922386
Ni 2.1993864171355737 3.2640917564968883 12.328527199670594 -0.4071059034548473 -1.9205251013111828 1.0621746522110609
Ni -0.17106731794247346 0.97750093750033 2.8830441690845405 0.5503538876446263 -0.7939078052450198 0.7632332589792985
Ni 3.3461768904505678 1.4649762431535844 0.6309432541434713 -0.8325910807478305 -0.7387201043292826 -1.0576353695798109
Ni 5.938564850950038 3.6145568374309955 12.039054938136086 0.856817557395363 -0.8537278627264459 0.058542219210266914
Ni 4.997541024229215 1.175793452949835 12.017776468385376 -0.5896853382543973 0.025542367245478592 0.08938131607831057
Ni 1.0974314229287412 7.874681281252657 5.529949540468861 -0.04126080642199991 -1.0264288620700195 -0.5801786843155428
Ni 8.533195981568891 4.9672349582179685 1.6023327165384622 -1.0867603119702252 0.6801529454183513 -0.7947758096722699
Ni 3.2077239629575436 4.741922015977724 3.043167423017179 -0.5322430369765285 0.6112718061759215 0.20718437783242383
Ni 6.241467279145365 1.3000985854990343 6.1721719379761 -1.2136532518407486 0.5677088339833062 0.3241304909028805
P 7.8991793051290715 3.488809002107919 -0.02425974522472729 1.816371254909388 1.8762622748380655 -0.36583712661304735
P 6.2053252477197915 6.376159871666478 11.148652294034664 1.2238070524452989 -1.5589572914974508 1.4035922123291633
P 8.737957390101265 7.813101142207693 3.848372418277282 1.2945177886972996 0.5781801658282752 0.7104641948073829
P 2.128535749298471 2.17608909427742 5.889470140942999 1.208677653003028 0.41060260375419605 1.535344280064201
P 7.84143396313467 1.215463125351534 4.594959003670793 -0.6528611995819337 0.3380995514884629 -0.2439220995730896
P 6.390847516680528 6.745771014573906 1.6337473367456357 -0.51356705783358 -0.11776269543448106 -1.8159521650940984
P 2.7304499620795735 0.44137955586391303 3.0824554772657873 -0.3102239081241173 -0.0678912645253347 -0.29036830685077086
P 8.152220063907246 8.704644917664455 -0.17356179757730578 1.1535614287551745 -0.654421344980202 -0.9020476328777562
Ni 5.4553245760201 0.33447155721570276 9.974349013433844 -0.07578609389237916 -2.7882173966375206 -0.0029390280236659063
Ni 6.544909557410917 4.935132494559251 6.673628429672196 -0.5597361001904747 0.14278724250327668 0.7090788844240821
Ni 1.6046112561452044 2.509837438554218 3.129195324035466 1.4243749534024697 -1.1666665986785647 0.7750626475140587
Ni 2.0190858014402884 4.049983150106704 4.970036593927239 0.27464678235045603 0.29828627614626696 1.0533742803106116
Ni 4.461702598491675 8.149297427320167 11.656157898845226 0.1758115199480972 0.2517243692263278 -0.4662646732031906
Ni 4.361802412220573 1.921251937851772 9.14206122939213 -1.7481246639271635 2.7522520342865056 -1.2805140182190398
Ni 4.326358462782359 5.839660594980904 1.170013334094496 0.5317164750490972 1.3080322782439666 -0.055351223076795
Ni 6.890218139398393 1.4988471811802813 8.55166071552255 1.3067161305357045 0.6419054719013784 -2.9276274951384487
Ni 2.6847581690669173 6.685196113590739 9.277772090838805 0.14418283729922265 -1.8459777649219111 -1.0158942810872826
Ni 8.402924574967724 2.711918212255129 6.187701935254897 0.6789692095228952 -1.2617184827790915 1.093739828611852
Ni 5.0705976311463745 7.218083979461706 9.654715886941462 -0.24853131621032684 0.3512247760165112 -2.217870610810735
Ni 3.4172323290039626 5.191542662396415 12.339057068367929 0.6263842363373278 0.4393063994467918 0.36976860045696963
Ni 6.936235704005151 4.162551197508428 9.239315219543146 -0.031199051310623685 -0.6759021405617973 0.03552518948980333
Ni 1.9819385319529164 6.014962943646693 0.7359897008253888 -1.2375071756402105 -1.1899070572637442 0.7016455680744883
Ni 5.994895413450057 8.778622992804928 7.80752672484463 0.12241459238419562 0.1462723728383997 -0.8837030689322973
Ni 5.643229631497691 9.084624905024134 4.455379837238161 1.9666424644945357 -0.21907881527716463 -0.22127659425943183
Ni 4.856239922227763 7.334058666961745 3.095056322525623 -0.025767081661774983 0.43891147800121827 -0.6494130931323332
Ni 7.405672571105028 0.2303279632374373 1.6284344674338362 0.12549863062615804 -1.4794189296514908 -0.7203292605269207
Ni 9.009492667664558 4.986539252108424 7.647798119928845 -1.9586694735913879 -0.2613114986941306 -2.4361595831967526
Ni 1.688623096383997 0.18135146178025782 7.27299324703546 0.7418514508694126 0.20302536135872776 1.1070002931661838
Ni 6.605884692066836 3.470528561798924 4.894375675809236 -1.3879683897489774 -1.932945586462723 -1.1265509616046019
Ni 8.223387195578619 6.530603530549957 12.669003192753573 0.4790649102916524 1.6653824504319255 0.48047078950024347
Ni 8.212431962256986 0.0678088919241802 6.54944243644884 -0.5648276557807691 0.41259289471134747 -0.41217791866111597
Ni 2.645116419944713 7.133383364995386 3.309833811412634 -1.935141822783093 0.6505214957051635 -0.5716876161253961
P 5.951558483674761 3.0540621558999077 7.565529623106486 -0.3245387820848927 0.69011159929296 -0.2251216790371349
P 4.066392730689575 0.3923658233674078 7.210436723984175 -0.2839374636237626 0.013250437252002985 -0.36456751587200437
P 8.400644173809015 4.571878551616712 5.296522093207547 0.029086375842995064 3.1086516696357367 0.9815284020129033
P 1.0245237401688851 8.223238271421314 9.362001732657653 1.6218960971135163 3.0405578021812927 -0.7728502132437722
P 3.291177337606448 4.618380119734705 8.259137370315289 0.13929054220392786 1.1746100218953577 0.5191910888885768
P 7.150053562853538 1.4047364215243505 10.463981857816034 2.179205075919737 -0.2265033898760099 4.542000287291725
P 4.05911406250137 2.9727961048113967 11.337423901952562 -0.8491528417612537 0.6071963505549672 -1.6754424057710888
P 1.8394460366930365 0.9595462687854363 12.405823491190985 0.08950215792689102 0.3641263145695277 -0.5534155572890856
Ni 6.995861213485507 6.596530393436216 3.6180379396079627 1.6503831488096155 0.1150175285891761 0.9397988834846008
Ni 0.37462057924872194 7.924608104988629 1.86206575463546 -0.26284516172983763 0.11207207280760699 0.4496314355218837
Ni 3.1624696346569663 9.063849985080306 9.226440726144265 0.05738188035357859 -0.15964827992467343 0.46530770860655996
Ni 5.857447724018831 8.683283608851244 -0.0638037628687013 -0.44517545663305913 -0.47314751636595287 1.535070457577524
Ni 4.765191415556385 0.4841719816890679 2.286404663799929 0.21503935510046837 -0.5671815007249263 -0.4662520747977002
Ni 6.477204912396849 1.9158906681888488 2.734854394031822 0.9113537407700305 1.2312941048509631 1.886733349572718
Ni 1.7538984160820525 3.181969391503883 8.039496576916338 0.06151132914091987 -0.15007272042109637 -0.9372666039810502
Ni 1.0082537759834864 7.824316992804607 13.193087779375942 -0.7670009535518468 0.7664409672833188 0.38321289888733356
Ni 6.138234914854601 5.501453833744834 13.304099569333843 0.5090565715577362 1.532065095092297 -0.4668850803960088
Ni 5.197387935570575 6.937129248948971 5.492241943839635 -0.5786825593859906 2.3774924083728473 1.3538675914105265
Ni 3.23014635639154 8.271675853584252 1.220206359761648 -0.6318357463702021 0.5244451381986646 0.6824833933237408
Ni 7.506224300564332 7.0115168655220295 6.151818659552639 0.6893536380810128 0.3796318664042946 -0.9041698214270816
Ni 2.0257501574796164 4.4297025201911016 10.227965922545588 -0.3011358297799201 0.00332469349785879 -0.37934621684307573
Ni 3.4521736594112777 3.729721749825697 0.9771100115874085 0.9028091936341291 -0.48002290332954745 -0.4822201680911824
Ni 7.302896287046005 1.602209854108687 12.8517536108365 0.4440883942164674 -2.593090464190263 -1.38012755354832
Ni 0.17103939466297907 6.610398955585096 10.141092876934604 -1.2827560201756811 -2.7482542259810216 1.4179950180180547
Ni 8.154965853057528 8.70538023069114 9.237747792787529 -0.5984378876360468 1.6702107250585039 0.6396179614187822
Ni 2.1554537907310647 7.5342592731767 11.257675946492565 0.22626581994390713 0.5122298270793952 0.1970891983799509
Ni 0.8062511874651598 0.7788891658886056 5.257478833042505 -1.0226051174485549 0.967871730461417 -1.9949893910683445
Ni 0.7508839781076974 0.8728305243156036 0.6355394259482482 -0.4924616433135326 -0.5724527764261947 0.07109100240955499
Ni 6.859725918190518 8.400309094455084 11.414120773739807 1.4243546416874955 0.2521943668842108 0.28571486723915956
Ni -0.019018545663630017 1.6719528985258454 8.072913296263259 -0.08358527822182378 -0.4076985427335237 1.079379703235438
Ni -0.03145557435043197 7.669482408008207 7.529688232323468 1.2554233937989991 -1.1180007580417455 0.5490202564348674
Ni 4.15531906811938 3.3435800254575896 6.471792450054853 -0.7873854307454697 0.18254601045845337 0.1739803802766294
P 9.124238730866844 4.339985023175623 9.501091310923151 0.9382973592384097 -0.9436308556361814 2.2906361727092355
P 0.9726236713486429 4.6407838976490385 2.7472653609910958 1.2716249432595261 -0.9170248230128787 -1.4498144765214966
P 1.0924052326197506 5.148922430128142 12.352503058220462 -0.44460184351777626 0.8644442207026853 0.062135335878163965
P 3.372089693821363 7.176990219805793 13.085357905534613 -0.2323202536681031 0.034622732280191984 0.6828027243363723
P 4.910439007726377 3.410577280724466 2.9639500098675735 -0.052907132411676626 0.2412026437593975 0.8098962102534761
P 3.215328402739849 5.986862816715504 5.019337936202537 -0.3855153217682651 0.44670140635928235 0.9468221088799694
P 5.604527966118464 1.78567510814667 0.3105748146244026 -2.4093622604982508 -0.619678542182378 3.2702830414287103
P 5.618014910114256 6.770436578127285 7.575434010343147 -0.2773127592183934 -1.4417561249933946 -0.17377880578878457
