# total energy = -340885.9909045144 ev
CRYSTAL
PRIMVEC
9.11321799911407 0.00000000000000 0.00000000000000
0.00000000000000 9.11321799911407 0.00000000000000
0.00000000000000 0.00000000000000 13.33811571989626
PRIMCOORD
 96 1
Ni 4.930269102317931 2.8223818054758905 10.151426651600064 1.0426802909318753 0.6234603778223133 0.28950981550521754
Ni 4.5348556914978735 0.8170583080008157 6.52368608724435 -0.25853959237594826 -1.6045573487247526 -0.4498448370842704
Ni 3.5435016235122667 2.5994451563507424 2.8995862534337666 -0.5347411208080338 0.844352592159133 1.4929010232983257
Ni 5.197614462197559 4.4800579123542885 3.416998312082723 -0.3601447042139604 0.5335486431618296 -0.3496013814804753
Ni 4.326910285793845 4.77369490583266 11.473593262783053 1.172309398786639 0.44473811198532437 1.1171790334713987
Ni 6.146218425083788 5.857940003721903 5.445485786778348 -0.33374461695387686 -1.0141186772440989 -1.2844007548679557
Ni 3.7644607043563316 2.8869307277566176 7.572821601909149 -1.433773363898234 -0.03002174317307088 -0.8707902175253712
Ni 5.541283021865566 8.127295295053555 13.068712596810427 -0.12829419109342421 0.2943887408640737 0.6952460923060478
Ni 2.147101473401968 5.828431404209691 12.048853294601765 -0.08858735942210551 -0.15184086806511268 0.12340806664571649
Ni 7.903183040821219 7.795637956558213 9.152201497327027 0.22897139180052822 1.2974637586995008 1.7876502328256116
Ni 7.945441032154796 0.0462322656533046 7.21649387127684 0.3417096374372244 0.8062814963190243 0.9273848260909642
Ni 8.649154604030478 2.3532515751826155 1.8737386557527553 0.5052747359178007 1.072196298113121 -0.18883492879095867
Ni 1.4277496196353168 1.1620993182823314 2.970611939665491 -0.19647290495219066 -0.001489954281965176 0.3540331919995838
Ni 1.6428306749434405 6.821416738196745 0.8691768010861579 0.34376189198056284 0.3165141120082033 0.040759698415865284
Ni 7.732036808937545 3.827278115238874 4.520341069372148 0.06902075014408758 1.8379682643538733 -0.2537293154714985
Ni 7.534644509544555 3.9538060323567077 12.803217220161487 0.6015458371374092 1.833090881656914 1.7736225510879522
Ni 4.408428019776777 0.6134362128615171 11.132484606018993 -0.004437724056379454 -0.2379982778894869 -0.03815645646506332
Ni 0.5091226756605972 0.2332008664292262 0.706978837843943 -0.14084271718239616 -0.15751632118333517 1.5649595318274727
Ni 3.3850501041426493 4.4698784479765425 9.33334675187432 -1.4263086800900726 -0.43462622036230303 0.7611941170620826
Ni 9.212369695770349 4.991218303534012 1.688338439774873 -0.6322887747472207 0.013316000382615777 0.5343248592062217
Ni 6.115443088285537 2.430394964580661 7.358798591197496 1.725989779701337 -1.6456006398193077 3.4958330662525148
Ni 3.0865284258778214 4.748761141698809 0.8702147966032798 1.9480495319836968 0.6719670671734492 -0.4127268491860505
Ni 0.36219846559394336 9.141833389339057 5.008142460468578 0.5024390662412185 0.41868306676948536 1.1002017821871117
Ni 6.864002805374189 0.9558125182334062 1.039651388811693 -0.03149524239480382 -0.8636906303661126 -0.7599391616090589
P -0.17162194185727916 5.927683460197183 12.928715343658295 1.4352951998593992 -2.049576996506238 -0.4523647752926467
P 4.045011116951585 6.383244109059425 13.26915782419495 -0.37571170541428195 1.3342842699619601 -1.398621241477133
P 2.489840484845687 8.561148258913299 2.059071433918287 -0.8953614791068321 0.49486176811459287 -0.471158253850066
P 6.331827333751241 8.280889469290372 6.231727748500428 -1.0193166765052701 -1.120617369728986 -0.0658930031483833
P 4.719781108823938 1.207091274981463 13.248216560816596 -0.27751356237528985 0.47653211656746963 0.3754409682513986
P 4.119302069151569 6.396157538802724 8.841142765217558 -0.24293813839326547 0.9375332273788758 -0.24449622690900472
P 4.662413402236732 1.3837145508141289 4.381063760432948 0.34300624476146085 0.21887492679647466 -0.9409453383842182
P -0.00805152800155617 5.943431100702773 4.130027415280637 0.9498218149382417 -1.57824287919994 0.3068609051891554
Ni 2.5143641541747055 1.8412527679574555 5.1776829433608835 0.35729875012473306 -0.8618844303953092 1.0979219850139996
Ni 1.8339530804314268 7.180030975196447 5.079861662581365 -1.980965823095743 -0.7903149456874389 1.532483156466322
Ni 6.466584486619392 0.8429516939779765 9.687580265036615 2.362601350193628 0.8567026290840535 0.976009786187519
Ni 8.812764204723107 2.9647576084960514 10.97035954851986 -0.24601112089163438 -0.6969453343853417 -1.1122306883271877
Ni 3.5120336821547418 4.239696790632677 5.340527945072946 -0.05573226056529757 0.7588808955478737 -1.1050403412263354
Ni 1.929614528572157 6.495163537907315 9.794311538942473 0.21677844927876216 0.529954755162984 -0.4982785071056257
Ni 1.0558847638305633 1.039927519313614 12.019122332573156 2.1467240725728964 1.685304643277149 0.2610361335455569
Ni 4.266544330522416 7.217367828872027 2.485624710252003 -0.04764562690242117 -0.7566090687945615 -2.008481769127825
Ni 5.504183111855001 8.199854735855356 8.539555400456155 -0.6379164053466433 -0.3562273714374252 -1.1275552344994
Ni 7.097200937838049 1.2205879506694142 5.409939680417204 -1.2758726627922867 -0.5341939900553123 0.13962247162204985
Ni 8.22145306224323 7.04927452497989 5.721250848662094 0.10710547283095102 1.7717397322429422 -1.9541330191736153
Ni 5.00661052854208 4.927389325466214 7.62526725951657 1.1911854097555357 -0.6076390945193405 -0.6868390991892752
Ni 0.6743334687356526 7.723889592148194 7.3014709827689845 1.154944168035314 -0.5528892524719704 0.41853959921308564
Ni 6.483644430500448 2.022988559023707 12.098310728064636 -2.3659188446026347 0.41598289422950296 -0.7920339852610747
Ni 0.350052368796576 7.6196252663238555 2.799110292284296 0.00496711419728822 0.809361935016561 0.01808359697458821
Ni 7.122727061134437 6.356688192142012 7.569087005219803 -0.2573350305448858 -0.8705613893440168 -0.12512427800587483
Ni 1.989843785575309 5.855470321675019 3.0834518035197847 0.07045593992871738 -1.5584135031788386 -0.5079052315621124
Ni 1.1839801544246478 0.9783130531919146 7.704656145801523 0.24756123898757362 0.819803699175175 0.10674577549868713
Ni 1.1759331830320343 3.564671628659539 4.362297822163787 -0.2693978752466909 1.3383119030641146 -0.8926343099836561
Ni 0.6440046796137748 7.771433249855177 12.012159834108878 -0.16764286809437579 -0.4007905027597807 -0.689817979311941
Ni 2.679905757058993 5.5383941317959655 7.1626484234022545 -1.1706492374753967 0.9951747891517442 1.0493271068244316
Ni 6.553333207668417 2.123425333336271 3.2578614787281404 -1.5549070326874768 0.8854007683496945 -0.7227748938539358
Ni 4.305749393864458 7.008793611133922 6.290788690970701 0.14539151289534313 1.8264916311728414 0.31166269745317293
Ni 8.139142478304288 7.497216523690123 0.602853032931458 -0.5075136525506485 1.2768627946196978 0.7820028262773177
P 0.0723452801814982 6.210238780727175 8.66682695615342 0.18765762065340583 -1.5524431445280165 -1.363044372813788
P 8.368996059804289 1.6675912879374732 8.723087406767576 0.33174712690787383 1.0632012937033624 -0.0818639246553429
P 1.6374994424806102 4.014737007137018 10.88761061880064 0.8602139846714218 -0.04203290870133406 -0.5517145154375788
P 3.618102425120347 6.346864143261787 4.3677256547362 2.2761734603166865 -1.5489425875739258 -0.15964493749056377
P 6.526913989019281 4.216676802254713 10.922569833929979 -0.18050069789365042 -0.04689383633806117 -0.06307481697329782
P 6.348805258671331 7.989740384294654 10.794296735587134 -0.6921520267617564 0.9091073679380149 0.22090661251452276
P 2.404923520591584 8.910922674564377 6.304460340442047 -0.2995893112284066 0.2826706810961971 -0.5285920704875027
P 6.941838799331507 3.970200711332146 2.051815489838107 0.27475579712449455 -0.27851552127724294 -0.3641473976154503
Ni 2.538432162609465 1.714815983018474 0.8334201793918672 0.7306031316491031 -0.59492113273204 -0.7524675358223621
Ni 0.8998792321413279 3.7464165329436754 8.801622384536687 0.1625662249024168 -0.05579268148958779 -0.6752544796754694
Ni 0.3943827058772436 0.2952965104552629 10.074811828839358 0.0011364275972883654 -0.3136293342612405 -2.03688808818466
Ni 2.661679321288634 2.0176573265608773 9.678176335500897 -0.5659304019266447 -1.1674574700109766 -0.45779520227959863
Ni 4.9673872387642675 3.1603090378762353 1.2033457424306544 0.9718384284186489 -1.0660978985248672 -0.9618664048076015
Ni 4.078401947282883 7.208992781635548 10.95939634740399 0.5662849570525861 0.1719885466575812 0.3362588987352983
Ni 6.984160583190282 6.383900260747157 12.117891388012731 -0.7702847665094411 -1.051377818705873 -0.18998421190405346
Ni 7.518268057004887 4.153239692555978 8.898083973207736 -0.01911692333510901 -0.8193763818297695 -0.6075776451537859
Ni 2.8425858095273338 8.56647949137613 12.987096440074334 1.2546446066514458 -0.04362519288911841 0.3896527409754063
Ni 8.76470109359667 5.473744964118501 10.5923441819644 0.3256109321031489 -0.19098437103379365 1.1022936317191339
Ni 8.831983981242953 2.666117458398716 6.512135083574885 -0.06178180919348716 -0.12810932877612774 0.8119356092810082
Ni 3.0985578734862584 2.724314467813473 11.871069906132318 0.13728431040717645 -0.13659911141469377 1.1788873091144727
Ni 1.1010043055800875 3.844228700505308 13.15558343497911 -0.8855786886884555 -0.7800762986785662 -1.4058344713961208
Ni 3.0474691740219417 8.229408901456992 8.250771195501642 -0.3238690097113777 0.520093031877556 0.846650129944058
Ni 5.856190265887948 7.884318679798897 4.06927232560551 0.20254945016357373 0.4697024952401459 1.0411111466725425
Ni 3.316801215400539 8.689644631094332 4.2034671929301455 0.7786513933065816 1.1520858726509127 -0.006977973979729918
Ni 5.554314923441374 3.1386013528737373 5.3876779117672875 -1.4495979896353166 0.16016532877040804 -1.9629513887961936
Ni 6.198327804951245 6.100934845412332 9.746508154525763 -0.7801966263065144 -0.7646303964371413 0.4722314323095867
Ni 7.810200878738731 0.2043074091242643 3.347386997266779 0.24696988526047792 -1.1371773309701962 -1.4543576158074887
Ni 4.706093055560397 0.6351630356215737 2.106168543948895 -0.3713986798612249 -0.8689297672778648 0.16539186727667002
Ni 5.68329429617032 5.470473318897722 1.024865192792989 0.26189899576648445 0.9324666114892457 -0.4203681677813922
Ni 7.821091174111521 0.18264346756761535 11.837697302236789 0.151639550687584 -1.8266458973625188 0.1119319476853169
Ni 0.1649711154446751 5.080354687668954 6.530181077631117 -0.3982188853778626 0.5116646986045446 0.44675694218756606
Ni 7.264136863058769 5.975145098943198 2.969504683692442 -0.18033897550480554 -0.07741565907600216 0.6831889040311976
P 8.768401060058054 2.0039692732973373 4.308544417789843 1.0343308905259152 -1.0245164755386549 -0.8158488282924852
P 1.8504662312393723 3.503157407934577 1.8125561561588135 -2.352513626940323 -1.2480057611786894 2.6627737876190145
P 4.677249720953804 1.2721231978101046 8.723181272911793 -1.6168762753014219 -0.7162203805648697 -0.336508295741943
P 8.472822951170139 1.9496544947016667 12.894262823443375 0.2214876818289734 0.09171742041065495 2.0236813596863987
P 6.648994655809147 7.825839160629699 2.0362364438633924 -1.4135902040821398 1.3080281644789087 -0.217447964541961
P 1.8229169735724744 3.6749233386344415 6.596085135411371 -0.16719678169589267 -1.746152113581825 0.18427816265821165
P 6.89525202950247 4.2095502658685024 6.624828224621227 2.122866035008376 1.7842008408244305 0.6111861884406505
P 2.420780519711796 8.680093978750664 10.796644300514357 -0.8690470095820194 0.30581420909219587 -0.9044984084110939
