# total energy = -340893.6675827119 ev
CRYSTAL
PRIMVEC
9.02987749323315 0.00000000000000 0.00000000000000
0.00000000000000 9.02987749323315 0.00000000000000
0.00000000000000 0.00000000000000 13.21613846535374
PRIMCOORD
 96 1
Ni 6.457373571033627 1.887298521892311 11.494273407621641 0.9931649578105669 0.2872323323249505 -0.6645016120343394
Ni 4.593354072659485 0.2613571548101121 6.0152852292912256 -0.42931894921677677 -0.21977609845450538 -0.4035678083946018
Ni 2.645329626345264 1.5397385470225224 4.701812831146326 0.8928806216665074 -0.31963543124600435 0.7342258160033548
Ni 3.4367261271906266 4.365900494925135 4.955099984669322 0.729511441246821 0.2835011474172924 -1.0099339497387898
Ni 4.8490982557787925 4.555076423049898 2.4718936772331164 0.3785602306066706 0.08486568759614416 -0.013471295013557445
Ni 7.293458934327173 6.0453944519518075 2.5209520972765063 -0.3650182302561778 1.2172700226577293 0.19914633801929574
Ni 4.949799446730934 4.149264710121262 11.431721642022316 -0.5243119550549099 1.2185188074631659 0.051460886883453315
Ni 5.6526489713857755 8.008814838955896 12.286449186872597 0.9032575940254574 -0.5503466885557747 0.3515924437685751
Ni 1.647672669641867 6.57988191551423 0.3127308353771864 1.3925148714690792 -0.9097306033443107 0.49702020921849244
Ni 2.4899254390885983 1.4417011698554323 0.4031993694438385 1.2815023502742382 0.3964198844959108 0.5163500198953559
Ni 0.6087898084108525 8.921654158767842 4.760982004732498 -0.23102955988113758 0.20907516709723348 -0.952147891968257
Ni 8.670126928318428 2.4012249549850404 1.7160622508752088 0.44188855835167123 -0.6554770399382259 -0.1481798742737577
Ni 6.874301062841574 0.5984713676916085 4.819357452109498 -0.06059035998854726 -0.027876671805610057 0.7098967523396871
Ni 0.9475140484037878 7.351241118769672 2.5527896384403386 0.1626148187521651 0.9021008547131948 -0.7788979620997489
Ni 7.649064529815537 3.8518024941648945 3.7270041728168715 0.3685486120069395 0.15109576236897204 0.7147083147957175
Ni 7.671025191257038 3.7315064696074685 12.889963741001324 0.14573681204990385 -0.16298480049707414 -0.9807655557049496
Ni 7.551758572704683 8.696006556480985 7.245311628897043 1.6376739287730633 0.10282201496424873 -0.21937629191292543
Ni 6.941158273907719 0.7376497685402844 0.5228172502207312 -0.05157015876780796 -0.010342005355956382 -0.5754182868124219
Ni 1.7248510303904274 6.786205580512926 9.402291046436956 1.4547828762703656 -0.7843389306096621 -0.831985843063664
Ni 9.213635239241073 4.772895121771878 1.5311556487083178 -0.31912660993038594 0.3016405373304805 -0.29749514770353924
Ni 6.3683028619633335 2.117289495130386 6.865334394744778 0.33058293139644357 -0.4132963485362753 0.543454846531948
Ni 3.2718766883435793 4.254652407359644 0.4126410090833254 0.3570825203488689 0.03351535814862615 -0.4738363149028614
Ni 5.879605905872065 5.555586820960331 4.656191182379513 0.31687972287773813 0.23173892724333642 0.6347066401600939
Ni 5.323744722888577 2.712241016674833 9.39898701435577 -1.769255789478824 0.6148183858765992 -0.4620884303383138
P 0.016087629286256573 5.474426284350051 12.439399053496121 1.1193930104035816 -0.5977868843156092 0.5839738896919169
P 3.7970091990879946 6.16115747813603 12.507118617838444 0.6020795981536922 -0.736013761141713 0.3382679587455271
P 2.517376265890473 8.38840378838695 1.2851754718458743 -0.06599893259862827 0.7959384625218034 0.8805982047547286
P 6.164092188238204 7.684181722392015 6.005637708450725 -0.07529295630604452 -0.9896829127992374 -1.3099066124485441
P 4.8518975177224055 0.9893133501359846 12.613733475393396 -0.11592152846068422 0.45522615600084176 1.067065147534143
P 3.820215983588264 6.139377414239278 8.385731847712387 -0.4912018027645025 -0.012480906075830118 -0.8248489749085666
P 4.953275949467355 0.8579927484593451 3.8675578239688124 -0.511897383440641 1.6094344743113962 -0.4111844443995951
P 0.15353771163168298 5.824144399879592 3.7197613082847063 -0.8241673754605097 -2.037422620531891 -0.32999234900029617
Ni 1.544199306377827 0.9106811791521935 2.714370261727426 -0.4383124109646387 0.30787803359976007 -0.4482396973806797
Ni 2.0067728276211283 6.474665785943361 4.597471696679767 -0.3842074015901189 0.23767714710464224 1.4979290726405363
Ni 5.785604883830119 5.638399825105065 9.243076250986082 0.6596514830308897 0.03649912336729843 0.4813585914218355
Ni 8.816799224286472 2.33928902701331 9.954064403995046 -1.2481129761805152 0.4537822244654636 -0.19256611369861676
Ni 2.2193722572998578 5.219576059077252 6.964045400753782 1.740920175758924 0.9661691459480134 1.155739924463732
Ni 0.690540898992462 9.074936324873706 8.948316677286886 -0.559186912555224 0.770640350076647 0.09114097908189465
Ni 1.2861073551767799 1.090195138632874 11.169090371533997 0.4708566634492471 -0.25660200903360325 1.6357725979852926
Ni 4.145779177507603 6.916506709049457 1.622228281562156 0.09270241003174357 -0.6399727736550398 -0.9616046665057826
Ni 5.419235674674703 7.934318351746861 8.081272379884712 -0.5487942564669903 -0.20846067344168615 0.511813565477583
Ni 5.380831606783791 2.95615606061307 4.753805058304167 -0.14784948751753246 -0.7618199235715396 -0.789715364430227
Ni 0.7740708753898508 7.559533297006134 6.98323569585883 -0.2060664621778967 -0.39450492686138505 -0.4712405291512271
Ni 5.151933248691448 4.517629522146156 7.128573375971176 -0.2879697247116073 0.5016548797770264 0.15678432811331708
Ni 8.466467077104783 7.16601124699768 9.412189597864657 -1.6426050475260936 -0.4214161494299322 -0.9321745341701236
Ni 4.5161576521564495 0.44354756990397554 10.410577071636567 1.3954094194080549 0.0055720947711387905 -0.5188874416052289
Ni 8.054758854340086 7.271010659514851 4.934482968960755 -0.7129535368881399 -0.5486448753733195 0.049061790523657445
Ni 7.289810863923241 6.137761066213773 7.1798125113674125 -0.6282140904572149 -0.15135030158193935 -0.6600242929892762
Ni 2.3532221275907093 5.155138855110746 2.4999910432451933 0.42758114059006364 0.17572461666124575 0.44058475193858315
Ni 2.307874084104191 5.145937410205776 11.218228254497078 0.3830547760429145 0.2806575073209102 0.8600849152927252
Ni 1.1591382513408721 3.436644858295489 3.9198534550018316 -0.6747286890789863 0.050696497913603006 -0.5654118104190133
Ni 3.811610510580966 2.3369502888088083 2.676188328816555 -0.37360468637360816 0.7670618886967693 -0.33297071490232977
Ni 0.9229708420723749 3.483356413244864 7.9786622728845735 0.49481291715452846 -1.296335815742645 -0.0721433549334693
Ni 3.772881367109505 2.654233085301398 6.748940180141658 0.04348198244303479 -0.3353667259383321 0.5286026120104639
Ni 4.049466506892868 6.654396462477741 6.101375175885433 0.5286800022156185 0.8272437003929882 0.3248570846562599
Ni 0.737424021609348 7.443454225118602 11.63493270833726 0.6606783816335073 0.24693003316147796 -1.1817160368125197
P 9.256888351208499 5.669877977154846 7.926405470323676 0.35615563765922537 -0.27603620649881494 1.2749704626929912
P 8.37504859995275 1.6323850874788495 7.799741576338394 0.7488805898020523 0.2313424631358661 0.8292057092153654
P 1.9247273630415778 3.143670491326139 10.377575579296826 -1.4378238798185237 0.41691620467704976 -0.33764240934638623
P 3.957524296861062 6.224989680327625 3.744964598642177 0.5386168017133562 -1.2590247379970123 -0.4222355600074341
P 6.733218260883518 3.891407535728389 10.354156592681475 2.4227139992148086 0.8677768846203442 0.6115232600650952
P 6.233604183212162 7.825914675511169 10.137425091178885 0.7460063535780507 -0.47915695578482637 -0.4144584871651766
P 2.4695359762864157 8.33454057066551 5.7788487296810525 0.05586467237810379 0.5655593917404712 0.3207075812642606
P 6.8614154280237205 4.136180418004184 1.669449121587723 0.035001969996481655 0.17583517409718105 -1.0663130998594668
Ni 5.433376462428564 2.9137156375970137 0.3121348634795141 -1.2040612372769393 0.39887425957367434 -0.3926485903789367
Ni 1.2912905047110812 0.9818185520288937 6.720339849967454 0.4274381872542961 1.0427461111728042 1.2413664014853008
Ni 6.78992588993476 0.8688403399847044 9.17727282659355 -0.01337719263785438 -0.5487708594282226 0.055505746376788276
Ni 2.739908560530407 1.5114298818830891 9.0877208250665 0.054517414321589984 1.629223226902549 -0.29849453550233107
Ni 6.285065453588439 2.1805708748104973 2.292432091040413 0.1386462237517096 -0.8281698117516834 2.549683300849222
Ni 4.144894249538332 7.054600621641915 10.428312653518658 -0.4626327328775581 -0.7597838669781173 -0.23788849178449994
Ni 8.050632200442568 7.342816243307124 0.3053326569565364 -0.037084049336490975 -0.588648926570083 0.1490131688083305
Ni 7.630842237550346 4.036752439742526 8.32352412043581 -0.8971918474473517 -0.6285365067936401 -0.24554652255039003
Ni 3.3334243315940983 8.418617757623489 12.33998732901349 -1.680695426639912 -0.3624209018426468 0.8054649139549999
Ni 0.2596496050245086 4.822035713698129 10.027692217013838 -0.5893387535482559 -0.08634072947977388 0.7301565310299878
Ni 8.657232263623337 2.521855085000252 5.795012209936103 -0.23271080423830245 0.48750404219794113 0.057923097569029275
Ni 3.4951765225486975 2.318448070349256 11.62614392882204 -0.2079117429167516 0.8600116388526285 -0.1798898037825289
Ni 1.1208876913629966 3.284970010337894 12.703087722608945 -0.3109052504618581 0.1688273753207802 -0.4550122402178228
Ni 3.043763929570895 8.504717637082658 7.991613825806261 0.23914293301689138 -0.9723968720252801 -0.7252398104546607
Ni 5.630715399575988 7.788693521538363 3.606842693430284 1.1020853723630697 -0.3156723328331983 -0.05542527084784003
Ni 3.347185864503985 8.352437787350153 3.697875594824277 -1.1001015091638215 0.5269020843795893 -0.30191101738304776
Ni 3.33025484468375 4.0936226065840415 9.015283149867605 0.21004987230567695 0.20693652348767586 -0.03577150117265453
Ni 7.382881808609729 6.203995215750534 11.354420474943327 -0.7720714260962187 -0.8726025881437617 -0.834643335291169
Ni 0.601148726292515 9.102387151675579 0.565586360768231 -1.2168049100958527 -0.27530858430417104 -0.4419613205711356
Ni 4.675318268343899 0.3244461981050654 1.6651671538017199 -0.698677743695416 0.07148258142101883 -0.7350226008730374
Ni 5.954084333326624 5.650346352690224 -0.06499254141660961 -0.8934467785826226 0.12182092466425472 1.709946095974913
Ni 7.957543196001605 8.730193671702004 11.11438918120492 -0.5797637082653111 0.6360541553269239 0.15864837790524935
Ni 0.3078619255707486 4.988835606028467 5.809338110173331 -1.9215681978637162 -0.21192626339278342 -1.1885934806586433
Ni 7.9969315205114 8.670452003898976 2.678211021317746 -0.38612287344527696 0.7542652511527332 -0.17492500357808582
P 8.418942833204037 1.6544721672016736 3.7970624753636955 0.8799906530777166 -0.3146336071560388 -1.2475596747802062
P 1.8595226195098877 3.0504008893404273 1.8336727899422145 0.015239956878206014 0.24131294408501666 -1.0119910893781345
P 4.726960136264925 1.1874559463575427 8.031262210780495 -0.21660310004316244 -1.1848018748266949 0.5278510785564199
P 8.504049426167086 1.3535244186316473 12.338692444617639 0.3445445357828582 1.9270857852478358 0.7104446544233571
P 6.208672692159538 7.86126664489582 1.3518791749989822 1.2829359973969712 -1.4481602287475255 0.6613548388752416
P 1.9233277320697715 3.228154022759804 5.934072319392968 -1.6341134651153146 -0.39990244372787254 0.6778659491563874
P 6.88344832848312 4.066379466958628 5.969068511614464 0.9339352256149721 0.4797722207713221 -0.3000755068362058
P 2.4971944902647523 8.668131325448948 10.212347788593528 -0.7579380720186302 -1.0796905496076372 0.28971421820653975
