# total energy = -340891.68076107034 ev
CRYSTAL
PRIMVEC
9.08685752885799 0.00000000000000 0.00000000000000

0.00000000000000 9.08685752885799 0.00000000000000

0.00000000000000 0.00000000000000 13.29953450712248

PRIMCOORD
 96 1
Ni 6.636749903299784 1.882487910843579 11.271381600032571 -0.5182711481774688 -0.13013432962595653 1.3715938050456957
Ni 4.675987802367067 0.2905559017618131 6.35829496960643 -0.7078175012131552 0.3607424856989594 -0.7486638458055559
Ni 2.8736368873902296 1.8849777097853513 4.777538886504538 -0.5789319563926352 -0.39098380108200403 0.3872299904665267
Ni 3.5313072823161096 4.70876409719543 5.168864402662975 -0.0007147666788374788 -0.9941499474316555 -0.8077357122670477
Ni 5.0325560887726635 4.7733262193899195 2.596827583581382 -0.3428182971203709 1.5392721543636974 0.8733793184087862
Ni 7.437547389947748 5.969738218913533 2.412548840517682 -1.6451003031441214 1.2281776707091687 0.05577416954682653
Ni 5.119799007166653 4.614060868833577 11.568653598136953 -0.16895721603042513 0.026510130475386598 -0.48262460261845275
Ni 5.282117541826776 7.770180893825509 12.4944335395474 0.7970396660057821 0.23374490192977165 0.5797601087208853
Ni 1.6399960328869079 6.505199467971196 0.4244534723701822 0.9274920410927898 -0.48647045872710415 -1.2957177225426717
Ni 2.997763360180761 1.7058303151246386 0.32888699255041487 -0.3521254334539097 -0.3849846460757757 0.4486320477230919
Ni 0.5387824954562666 -0.09609715229494795 4.8106413995154185 0.0395430523999448 0.09108801435677215 -0.2933538718416561
Ni 8.379709117972162 2.1867431588996094 1.369692010327749 1.4218480732155576 1.048088349321324 0.40164436611964377
Ni 6.711562000699817 0.729866386065562 4.857348755503018 0.29065344219135747 0.4541941151919017 0.16570322786950173
Ni 1.0278780543665134 7.365206917774584 2.472662945989553 -0.9797404568745449 0.567280745306952 0.968559757667377
Ni 7.64359188266556 4.023124355033147 3.900141917595788 -0.25992233165608786 -0.7004458913394325 0.49628075994930654
Ni 7.736623129256297 3.823686007682738 12.862657538006323 -0.5140931055403791 -0.280831056784297 -0.6559357247421994
Ni 8.029047288910183 8.870344899220475 6.854779960996418 0.03175723780693885 -0.6358638936929888 0.15179690220105468
Ni 7.132537932723225 0.6436775431359724 0.18291117101721602 -2.129309476640875 -1.7971095784662987 0.22136529731849616
Ni 1.822005787644913 6.579111966483508 9.304207812481916 -0.8958191354695411 -0.11890940744441456 -0.9277481229676537
Ni 0.10817540321977771 4.7208223570338665 1.3739219424715259 0.3149912476057736 -0.41567101941603896 0.2031480029795211
Ni 6.259636232195842 2.001298572024853 7.064606403785636 1.1265185657047696 1.4485659488263762 -2.1508671482069923
Ni 3.649654513767346 4.190158968710714 0.4572025066261907 -0.6933180220453995 -0.4073223903410275 -0.17746473928080406
Ni 5.842267782580767 5.946603079841448 4.9984167653265414 0.9412497569985145 -1.8423964753285558 -0.8427356253810002
Ni 5.406752878634603 3.074738129654304 9.322175255721207 -0.6858625942086188 0.03713778539256185 0.02512841963651156
P 0.04479548117975726 5.500392944674606 12.500165529227946 0.8850575260776627 0.4128068104943665 0.30109700612218465
P 3.875526529444816 6.029620609520386 12.718331889786356 -1.239585141215162 0.39446327499017225 -0.7066119109408282
P 2.5857288958898486 8.586498733001015 1.4235025627853604 -0.7040174107407746 0.6591280064272519 -0.4675301701791755
P 6.272630438351806 7.913253464402882 5.9254479670080915 -0.23971808879407103 -0.6234835177507649 0.6589927664009683
P 4.974336593079477 1.1105411966048346 12.595310378861955 -0.6693283439990215 -0.3069382953943101 -0.7401923179994349
P 3.816670953730008 6.255038282325271 8.404454448184692 1.725953784257079 0.008048067115457108 -0.5731382325289935
P 4.585355486143585 1.0733941233421922 3.8094787060569697 2.5538952820480403 -0.3535408257441976 0.06512578596505558
P 0.06183515627322761 5.570461702484839 3.579689346132062 1.9082465410541458 0.5748701276184358 0.5384121419017179
Ni 1.2503515853570397 1.037364733546112 2.5039962478545834 0.7999249579733773 0.5261451516089067 0.06824093455526957
Ni 1.706211963137611 6.653051725568175 4.781488943438802 0.9708225855596249 -0.6112075285968892 -1.549390730854938
Ni 5.807828592838739 5.760540586659974 9.535460156456553 0.41969710985629655 -0.007304504081213227 -0.8924617889615339
Ni 8.61185106529132 2.489053819460971 10.076259025581358 0.3623859348396533 -0.4160906234519608 -0.15400213738248963
Ni 2.452679129081725 5.030257113837378 7.254337261320371 -1.4355710792286052 1.1601470523924924 -0.5633284455274233
Ni 0.5436475989359189 -0.027540447564681075 8.803361129515102 0.9156441406152682 -0.9800708436307701 1.2222453643851336
Ni 1.2946772760065428 1.1541490255156517 11.150250155458126 0.9765726006695247 -0.6316069181888477 1.1824853108783764
Ni 3.934091325721169 6.791508172560073 1.5213607480544522 0.7069222430923954 0.9073718733041469 0.03071928346072774
Ni 5.7963246313048575 8.104540900619096 8.552784674483632 -0.6229965508120173 -0.7613062171599148 -0.8399166678749663
Ni 5.326261495327244 2.9412703674034018 4.732918781673599 0.05864069246134418 0.7197862435392571 0.7617325060640558
Ni 1.0216899044418903 7.261062444520391 6.847837601903302 -0.6301125930315085 0.7965426717647056 1.2502760452701047
Ni 5.179317923475437 4.537585876519878 7.379020758472692 -0.6005125107768884 0.45989347956952403 -0.6963537235479297
Ni 8.365697183781606 7.029365753216366 9.338574307364333 -0.8676434443662734 0.9341673962304363 0.1399284328982429
Ni 4.6897907388362325 0.08792079795988789 10.599808313205555 0.4365771734410868 1.2906814456703448 -0.507870521669435
Ni 8.082169057572955 7.164996187540779 4.906996618561996 0.3146696026002968 -0.23890150643004662 -0.6356052407149635
Ni 7.144150936546526 6.148522139276177 7.181708735765987 0.0270541759043147 0.7609874003679152 -0.3384181111701462
Ni 2.3870992788526424 5.054210070080119 2.4312750363541924 -0.09554116503211933 0.3225454058039477 0.9599391058779015
Ni 2.1283146654850325 5.178681843453816 11.28219496040012 0.4565590158796524 -0.06052351130635382 1.901305333849622
Ni 1.0673877105666036 3.3899612146545635 3.7627304592108373 -0.447926537015635 0.08531537353905308 -0.10955881946745002
Ni 4.201617495957336 2.708546861207332 2.5659986023049233 -2.3660186034052932 -0.29181686637183935 -0.7737202745535514
Ni 1.1612731217578023 3.165906570467438 8.366125174767582 -0.9626845298335226 0.28836361771591623 -0.6181435935950903
Ni 3.3647906195132915 2.7558712148159037 7.33324389668815 1.5435838943651738 -0.5773473855143347 -0.42593949122158253
Ni 4.096755160964457 6.969983139769359 6.032216724694344 -1.0387182209603336 0.5457274446162085 0.991059224321474
Ni 0.909249130334274 7.36312602741814 11.45829371438578 -0.3893812324815746 0.21407853384909584 0.11678876155698595
P 0.12769851645480387 5.6051280636631615 7.983803825658057 0.33152524070505485 -0.3568035556558694 0.9662992437679746
P 8.725173264571755 1.5616673216530585 7.807132599652938 -1.6347611260016426 1.6289005534558076 0.8110223534381193
P 1.7483931554285075 3.203171772876952 10.476787710966898 0.05292564435443788 -0.15462305879594015 0.20480070809159567
P 3.889883764218538 6.366152375244935 3.76912760685685 0.14107925867323445 -0.6473325564542206 0.17880376980720175
P 6.898933001354339 3.9289754249758486 10.545333511468222 1.488984976073371 0.9977340652384882 -0.21186044315185448
P 6.613514808795729 7.911317963765665 10.608852462427254 -1.0056201528547841 -0.5290376426653535 -0.8640045620621055
P 2.5102898053256464 8.5990749437142 5.645400107203451 -0.22746369690675017 0.20546919491353 1.8954450184141034
P 6.797669061912341 3.8642860867770352 1.8974712300957246 1.3563957571490188 0.7639228288471553 -1.1021151971597407
Ni 5.60422846477544 2.7658031500106364 0.5529570843952087 -0.3805047559275511 0.06664865036748523 -1.4016926813136052
Ni 1.5347702235959593 1.0608269994864599 6.879623429269428 0.6558287668506899 0.35878279086942727 -0.4867411958899875
Ni 6.890173270770878 1.0438709234815455 9.03586291638935 1.5047178134275956 -0.71190221280549 1.1390565502707801
Ni 2.840924200564028 1.4719073437449417 9.37097168023696 0.6984504581759583 0.02456920469893188 -0.5741103666342758
Ni 6.4352488393078335 1.8513109029267185 2.6344117346874527 0.34157054075619886 -0.8853688866704946 1.1401770370284687
Ni 3.858234239714188 6.862113054959958 10.584195274732005 0.6566615471646304 -0.5832375257465245 0.5812333508323022
Ni 8.22287904521288 7.343234896456318 0.39767177740272 0.021453541888085632 -1.3175451028304082 -0.5652822268196844
Ni 7.588307441929279 3.9465766678598357 8.077644711247743 0.9220276755441088 -0.6923219766807174 0.7012933269413921
Ni 2.9163905517005846 8.535894023852372 12.50063168501522 0.29295380818976 -0.19364289170256327 -0.01398988652118881
Ni 9.034071896785616 4.856516399360441 10.23384512488062 -0.28275038529419694 0.03434633869035375 -0.04655882159614562
Ni 8.732197405381935 2.5298992437064642 5.720275812605646 -0.6929418696529034 -0.7246620835743197 0.2178572841652377
Ni 3.8206237367215077 2.8263307074965613 11.435338495091239 -1.1077160882862858 -1.5512758636927928 0.030597413170882784
Ni 1.1203640895101468 3.150776952810319 12.744345745299146 -0.16889885198866395 0.8197556195460592 -0.5665207272124759
Ni 3.0801175492657236 8.359563555001692 7.975717431211769 0.13596276338227553 0.07526107462684457 0.05852704970161533
Ni 5.8163702388433585 7.980841510128795 3.596739016768729 -1.086238378028484 -0.24029453012283136 -1.0171016711318224
Ni 3.1963111955009014 8.563790676229159 3.659526475702897 -0.08482814948998939 -0.7903416851603163 -1.172003437510446
Ni 3.2951943782905477 4.249732406164208 9.3075990276829 0.8020823706360122 0.13046908725755596 0.5877521257874264
Ni 7.1660684367200815 6.068012582253914 11.651323101175489 0.5388839393318139 -0.08414809270382928 -0.44335408715360414
Ni 0.6304107312564572 -0.06343807792771149 0.3524255880933573 0.8364168822518241 0.647217371032595 -0.3327328878599108
Ni 4.768800964378961 0.35136787788597673 1.372365363790046 -0.0999835170741891 -1.1450739601094537 0.5961064112893927
Ni 5.868201673747984 5.4581572312389985 0.28578348422816835 0.6914046070727705 0.8217243132366558 1.732946156414512
Ni 8.36904114732384 9.02428535131011 10.930953389832723 -0.571397595688803 0.3530823980505403 0.4165619066614245
Ni 9.247694828618163 5.015391015046359 5.901721273515899 -0.33551919235579636 -0.5514445496056438 -0.6665872909187746
Ni 7.87980474212309 8.793315608602223 2.4965750113737615 0.5366563355528757 -0.5472253693179737 -0.1739724098568294
P 8.544153977275988 1.4123611668638032 3.677307638364428 -0.6672591201748186 1.113329063597689 0.05130764913504067
P 1.762759477059681 3.156810626158263 1.5165992347497494 0.8285775887130633 -0.528568930559051 0.97533564293863
P 4.840605311962474 1.203817788346768 8.373652727480588 -1.5432931025976326 -1.040320532450447 0.4121182690677741
P 8.685627260941857 1.5615219319338307 12.506469990927952 0.3365046961975172 0.5740406897386049 -1.0092772899913973
P 6.26743275588942 7.64966190344331 1.1985101549092168 0.05440505711344179 -0.13703054252515753 1.2681231007538547
P 1.689764751149993 3.300728274478647 6.073910861425827 0.8703952960797977 -0.10230213790503673 -1.1955814819407022
P 6.881131847606414 4.037517937236676 6.00239911065226 -0.5945804615631696 0.39830013223775923 -0.10010153070929212
P 2.5398947869033592 8.52332689999664 10.206182004740342 -1.7828515258853879 0.8504898154051223 0.4149094586596661
