# total energy = -340876.1563105141 ev
CRYSTAL
PRIMVEC
9.22326822024356 0.00000000000000 0.00000000000000
0.00000000000000 9.22326822024356 0.00000000000000
0.00000000000000 0.00000000000000 13.49918534256440
PRIMCOORD
 96 1
Ni 1.389144096918118 8.591400563871986 1.0720038637130818 0.6669130496893095 0.02712462413093393 -1.146808426302057
Ni 3.148039793640704 7.403379053831472 2.263070896920935 0.166403596370636 0.5783429166583847 1.6614964851139578
Ni 7.53756838321248 1.3872533269323382 12.780786077651474 -2.8539615329128654 1.9102206340613812 1.004806398704237
Ni 3.5937357839959474 0.5929593024427994 5.462688128793238 -0.841995404780866 -0.39244958699425314 0.04209152985341138
Ni 7.960529017397251 8.356834406416644 4.305092335967795 -1.0077978772323934 0.5259731448074167 0.520231100117317
Ni 1.853913805959176 8.487279088898985 12.071862623836937 -1.4918970075138434 1.3152105411599606 0.024595944171809252
Ni 0.4991485190166418 5.487475662143398 9.823397694474442 0.1851932182733133 0.07430359580958172 -0.12163606234695824
Ni 4.860597790809358 5.619165485835886 2.907765355481952 -0.5810325476754058 0.17387187972322315 -0.18562593493535773
Ni 0.40585331628416754 1.6249553955836085 5.576594569024354 0.19245247093888793 -0.3703005617010397 -0.27929739374859
Ni 6.266251537847209 4.16436094243599 13.1015934823021 0.572525281535343 -0.9651209071891572 -2.0678747663741612
Ni 2.6276630004812813 6.510031740257643 11.149045123635972 0.0032236491436202545 -0.67631968771519 -0.5719776365619892
Ni 7.982996898789246 7.586599277087621 10.504552654649046 0.7442212366531699 -0.721705572049157 0.178936181620008
Ni 6.524844309024287 7.386030086303417 2.423697802337252 0.7986435201577923 0.6546275474537372 0.7423227340788764
Ni 4.248117441171912 4.355669971923986 0.7894877794183697 -1.0434040564717773 0.8744018461360296 -0.9679542628728943
Ni 8.330935469245576 2.663486174260636 2.43190558872918 0.5789134444498739 -0.3051652626542874 -0.6614661676421253
Ni 6.215892493347909 3.5916328788410317 3.3812621209159106 0.9977829161985526 -0.13435222436204605 1.33560787386939
Ni 2.592319436649539 6.707215991603891 8.491703490665708 -0.6304321811544562 0.9982526567461195 0.8951318795945293
Ni 6.0973089338007505 8.571422964900286 0.0912282683236294 0.7343937090397868 0.3990413812791579 -0.5631615809322559
Ni 0.19986453309194324 6.103045806635652 0.6623708521109998 0.3900731163422766 0.3453513479548697 -1.4039187424306465
Ni 6.234680290718803 9.035325686728353 6.3740724657045815 -0.8740238939713206 0.01246059436085596 -0.26002080490716506
Ni 1.1050213192989042 4.750508861295871 5.3345806224786845 -2.836575219115618 0.9917860751851694 0.8210041472411795
Ni 0.550804355028139 6.8669445506952576 4.157776451251365 1.9776974367571167 0.7672462367934335 0.32835018541118294
Ni 0.6193636747125051 3.271364113054647 7.356921451790635 1.8825545356046804 0.4686802246232186 0.11552506435321394
Ni 3.34460608601599 8.873060728875576 10.034902914391033 -0.1501197716089479 0.08735040169121085 -0.18813070363508244
P 8.783779492473888 0.5723203951394877 1.304330611643804 -0.6446964043829542 0.738013050959929 0.11010826421301681
P 0.05526859017456951 5.340705794905788 7.5650242080596435 -0.4772772222636103 -0.04697302631542878 0.08663023569573468
P 6.562069419573586 1.7566636658125443 7.515266520648504 1.195919324896095 0.3532369213505336 0.540360009656708
P 6.092918658126454 4.909545675270489 10.953562565276926 0.27195175201679617 -0.2331700032629081 -0.8730175641939933
P 6.702890278807156 9.043792646957357 11.45289739431168 -1.0675099483810453 0.2815183126593087 0.40478676840336736
P 1.997105045126139 4.833426042623472 0.40539307519982415 0.17876417481851795 -1.424084161634928 0.2172844423809032
P 8.447462239978934 3.366160863853877 4.528841444450834 0.7857211556691693 -0.19530305301380557 -0.6206779299811698
P 8.791656163536599 2.743433463220329 11.51538595885146 0.2771417808581679 1.5754735439849188 -1.5139149065458315
Ni 0.6971702431175667 0.15393173501301302 3.187657419967131 -0.2100673558071737 -0.36382883793376697 0.9754832242600878
Ni 8.47874756579242 8.57513071872606 12.773483093872255 0.5891250948755531 -1.9729393532468407 0.734609938815651
Ni 5.67371189410857 3.2322666790560155 9.308350105694453 -0.03592036804569297 -0.09793203386179909 -0.44151806238613
Ni 4.681970755128419 4.748276830385829 5.22031078547957 -0.6017700373330733 -0.3538619565290422 -1.5317622191398974
Ni 1.8982223865039805 2.4860673867169516 0.9339665868293073 0.5882257229897353 0.7561676103817687 0.6221951379566446
Ni 6.188978996672277 6.000021900581226 6.517811567004009 -0.257773146523569 -0.630187926354134 2.8506882614782327
Ni 0.14986888536064283 1.0298609065471116 8.161458837968988 0.7955201440374622 -1.7158004978731611 -0.7848518656903386
Ni 7.65718494880065 3.7366411018479875 6.5514783406727535 -0.8811062547393987 0.060020346417690176 0.34667880851704164
Ni 3.1629261485531344 3.2083691910894068 8.404876565938245 0.7374052421726011 -0.5106061754330432 -0.9776547779901098
Ni 7.2215792138817125 0.6390839445007745 9.445231707069844 -1.3477869324340852 0.013663099309389371 -0.7811533337928289
Ni 7.36088745712666 5.368984335278471 9.048814716504952 -0.3781761077943745 -0.3944905286836819 0.1091602984774507
Ni 0.7370221404568654 4.880501603635271 2.6845696430923116 0.16085618418984554 -1.3222941874796195 -0.4308682959817676
Ni 1.8868224269799634 4.139633360329283 11.730049225807711 -1.4984774889448387 0.041696865518154 0.07616815982214624
Ni 1.3253006342763327 2.4867683551019235 9.743077785478528 0.9176483155294907 0.8759236820971947 0.8996696195638828
Ni 1.8221304236616331 7.171008034213278 6.185759153735518 -1.8262442910487255 -0.6448272735338637 0.7570795806730768
Ni 8.293525893331811 6.808625825719238 6.233140927252331 1.5096224498180646 0.9017437284840921 0.05260348512832876
Ni 7.235727707336278 1.5826021479021466 4.8865834267017245 -0.13806772554042027 -0.16347999496593782 0.022984890930947514
Ni 8.235225614892236 5.166081657633768 11.736151340064257 0.6461097397907131 -1.4893181910430737 -1.2068141174317282
Ni 2.679894368429913 3.173246985695024 5.5507168453702 1.358043834275403 -1.7440834039782545 -0.1786029666503053
Ni 7.851703675630359 5.49930911527391 4.331078894186985 -0.5031342925360301 -1.3179595646600077 -0.3668210877928715
Ni 4.952184844266874 1.9522430684879355 0.06437656754509292 0.4540426772157019 0.7300338894091943 0.41543190682203934
Ni 4.165384725208778 3.891038611906278 11.720775229609169 0.8341136880399442 -0.5451754287674805 -0.4269869586494905
Ni 2.4877829146064885 8.877700032791902 7.718199635078345 0.03204957223637706 0.5459447028333371 -0.24512511874225523
Ni 4.586417696334877 5.501043089699894 9.195023809034582 1.1353747305438189 0.17950439541865215 -0.12545749297557748
P 5.043144715485204 1.7494510700619124 3.940884842692361 -0.07873900587311601 -1.675721370464088 -0.8024790918537986
P 6.435387830526356 2.9670516012945973 1.3697217386934617 -0.38948124839454856 -0.8128951449808001 -0.4614163439719537
P 1.2236417719189565 8.449334563428268 9.654928244087841 1.8395826600288447 1.3479712805307495 1.3276107145965266
P 2.569482624528611 4.9000641555369215 9.569775342542911 -0.8903881942619569 -1.5069832124230047 1.6834614194208233
P 2.4284404068576806 8.024427819648377 4.3905698965541875 1.1913774711616836 1.578970244284268 -1.5314580576359174
P 4.583521590112756 7.709296414262378 8.026062182777547 0.32365689370057166 0.4031199222239058 -0.2869356270201381
P 5.017688495188855 4.155718740110744 7.273374321243382 0.1900286919887437 0.869002272387013 0.5307109166027182
P 2.2616652708437015 1.622105405702604 6.945142185672988 -0.724004909606295 -0.05198590614898788 0.8565748452569376
Ni 7.070382177896913 7.662377648810376 8.17138122992363 -1.1141955253630424 0.295295311838743 -0.04638630057402334
Ni 8.322228704042766 2.866850015316505 9.099017887771275 -1.5731163566066522 0.8500920657460714 0.9019597011496402
Ni 4.1369770590809685 7.294618274942143 5.816906822582823 0.6176586835388717 0.22702249560427357 0.32987304981361254
Ni 5.554602608272683 7.696273159531058 10.024792367764636 -0.1875069540081545 -0.2808637097944453 0.593823528792487
Ni 7.0460143032509155 6.4536775714131895 13.075675176267763 0.008226501674850348 0.8799214904026781 0.8193434717093051
Ni 3.1362801266559783 6.714594606182543 0.0799380656914697 -1.67181355076925 -0.4995725433267009 0.3972210402409675
Ni 4.85451043378197 6.191192581045873 12.220339718022682 1.117221970894192 -0.6368411700045935 -0.8826280907005638
Ni 9.221967742495353 0.7429739154413705 10.612317320570257 0.20571653503764573 -0.710832376780079 0.10652748884029396
Ni 3.9629893273163574 3.3341468998507513 2.8390003569162054 -1.2837407526864537 -0.4865627613305943 0.48127220235561635
Ni 5.54243711748613 1.8164765602407411 11.341313373019196 0.48925316367856386 -0.5478702019908241 -0.4241975688298113
Ni 0.49334062701642045 1.3314986705224001 12.844893325764446 2.1897291153795124 -0.041793796107334476 1.6137981505967305
Ni 4.732680283820204 0.15070082415438585 1.6714019297025773 -1.3680793641345341 -0.31782100374508493 -0.1420130833414135
Ni 5.131143917603851 2.3773527241687398 5.952641049391235 0.037298479340142215 0.5191149842350028 1.1142775435538874
Ni 4.6197044713528195 0.8928289658996784 8.09965925156549 -0.08573086380991687 -0.2614215419094337 0.1392802577912827
Ni 4.907885486990293 8.598041316992774 3.82021590219991 0.5202755802020073 -0.4408297780698537 0.924309272489434
Ni 1.3639645746684683 2.432507868144163 3.353805373741925 -0.8548622334412053 2.13245445002776 0.8274043943405686
Ni 4.109657738603509 8.33125828363339 12.213117899003826 1.2087969521897117 1.9556821088282903 0.20900549020156264
Ni 2.9981893548165086 5.1732389137750605 6.799944885667454 0.2013790840045564 -0.48276549907169114 0.6805149567434603
Ni 0.10560365417648791 7.449762869726523 8.364391952398828 -0.15512185280922963 -0.6199094272462614 -1.7712645923787367
Ni 6.810267567462988 0.643509268594321 2.568463453389935 0.9297528121025084 0.4675540814385754 -0.2560669624657397
Ni 9.111076388646438 3.6396676597480555 -0.03535463175361044 -0.013686239237840946 0.5058023262864966 0.8314988761249164
Ni 7.197635609573988 5.035756877638329 1.5207509111965973 0.6588793807515555 0.6225255247128698 1.217253310487181
Ni 2.5868131455202197 1.7226851456778525 12.011615313475422 1.3956379904790932 0.43790334845167805 -1.5918324449589165
Ni 3.0436047275481104 1.0464443428126318 3.0757219921553376 0.5166135579693877 -1.409571826951366 -0.22408989533851084
P 8.577879252656608 6.572122781936999 2.516396259615678 -1.1928450568461455 0.8842383726104772 -0.2708160957504562
P 5.968164732137897 6.573165011246233 4.594380143792065 -1.0673443693374587 1.266432086204677 -1.7491821586574003
P 3.906247781206524 1.7877737495297854 9.996673389932214 -1.095859960278648 0.4804803025819403 0.5617325617952132
P 3.1670950657900727 0.770852165973162 13.81007145226145 -0.7350809649147985 -1.1329522371452554 0.49120540230892823
P 8.40334734806682 9.108198728960764 6.520646799655856 0.052165626259961774 -0.9085782349074223 -0.6585693057103046
P 5.2229338829622804 6.667851082826783 0.9616723622453227 -1.116104055239665 -0.6174905333921237 -1.1154049722901114
P 2.5505011385250294 4.625487460528839 3.876155946301137 1.7227972409059684 0.04689872143406761 -1.2898309247445916
P 0.40418390473574756 6.874535300443045 12.128748052931053 0.002273883635841245 -0.8526755102025315 -1.1030109695011328
