# total energy = -340855.92011754727 ev
CRYSTAL
PRIMVEC
9.44784635811667 0.00000000000000 0.00000000000000

0.00000000000000 9.44784635811667 0.00000000000000

0.00000000000000 0.00000000000000 13.82787814804433

PRIMCOORD
 96 1
Ni 1.4179516635857525 6.598508103380684 10.996979387392127 -1.4777952780051389 1.3458262091632887 0.5250064100187732
Ni 6.112218008123277 6.187602373495212 10.625590219306961 0.09633666435022119 0.5796171553851179 0.4933633291921955
Ni 3.8428925737941775 4.307679370945742 0.5163880991132008 0.5266143779358415 0.7582460901773522 0.771352031431691
Ni 0.35139658059756645 1.3668860545075088 12.909167729731255 0.6519278891343869 -0.24650811513271095 0.22719630217797648
Ni 1.1866778347927218 3.0626138462171184 8.475866960453033 0.06281847798811763 -1.2131652564607365 -0.17882099619838235
Ni 2.452783713160059 9.214068759891171 6.870712836560333 -0.42506531614674536 0.026244021298193514 0.6002926814565985
Ni 7.085582369878331 4.491326606702061 5.555267470627906 -0.9500059059245897 0.2953449341297559 0.7640578117631228
Ni 8.685896362127963 6.669499220238024 2.5821483481838987 -2.686560091405334 0.15340178479432937 -0.28663017996457735
Ni 6.274862681625954 7.3374997427668225 8.471151540380701 -2.430657422431601 1.8511731930799213 0.012593777504610567
Ni 6.981032503077249 1.3577972263977456 3.0186813610711734 0.531933990376542 0.5590922959588888 0.5391569904875424
Ni 2.00121445293735 1.7886662554473867 10.966060365695649 1.0110202408244329 0.6899761021563601 -2.536752965940799
Ni 5.7863995817269185 -0.1047010323413688 1.8617576285300912 -0.0066020786975499205 -0.8448416159804094 -0.7318719710591977
Ni 1.3505601761564994 6.185051455002866 2.756504571920321 3.083439174925851 -1.0887626871122347 -0.49554902398960454
Ni 2.7169454948118075 2.684888952424669 12.97984234373862 0.02212511403381351 0.6485792843771282 1.3904101664212505
Ni 8.280328665383879 3.3968975428695556 9.783901435772885 -0.6122333987582425 0.46307444840066697 0.0895486948941103
Ni 8.925493743483052 4.408147768159071 7.595957859626612 -2.1893653042821906 -1.4995820348629272 -4.0603498756610845
Ni 0.6440247230546334 3.0872443814376513 3.1049118539587095 -1.689903575501741 -0.40314100526982827 1.8367673020672366
Ni 8.007418178088013 5.5231920325482315 13.20677110803302 -5.410419690592076 -1.4235845962906903 1.0612665385744948
Ni 0.5066643757342316 5.879649824391537 13.08178082583124 4.854272336194123 0.43279610913209976 -0.3519529124317874
Ni 3.3666927783509353 1.6707760297159664 8.726760186806079 -0.4651853240960827 -1.4967898168297706 1.4884468441817138
Ni 5.343286143914019 3.208252396437494 3.1510967056549326 0.24438618369370171 1.6236449614838229 -0.26038281623227416
Ni 1.6705776249443396 7.696385631100989 0.31605596684769066 0.1613243820755157 -1.5671228580273786 0.6837098095316742
Ni 9.193576381335998 5.356909938232397 4.865421637958366 -0.2613312961884725 -1.276923215543988 -1.6122205216969652
Ni 3.815550506694744 8.21139717901295 0.1790036193156239 1.9970879254685863 0.11544330327268505 -0.3096361539414474
P 0.8630012351453067 8.577142203737646 12.387510566754422 -2.184495377784399 -1.3362023129202794 -1.2118555365103774
P 4.248989349929266 5.32976627590459 3.2393046327663493 -0.419046106535859 -0.9918583231840015 -1.1138782512329397
P 0.4491628937782635 7.363065614767882 4.252142096228879 0.36616802758990485 0.4874611047751476 1.632262270839189
P 3.09028658793593 7.876896181896351 8.649987932817382 -1.2339451693205652 2.960865688366288 -2.569673113707587
P 0.9415288989705869 3.413412378145924 11.851874370439536 -1.9834456520948038 -0.22450178606494883 1.2450196819671717
P 1.7297778296592843 1.8028002334642328 1.047170936800243 -0.6016437961678541 0.3869124592261078 0.3107309296675229
P 3.651838226563789 1.3083471990313202 5.925978283351033 0.33047417373272114 1.0996237981964545 -0.04406279464716928
P 3.9480659984489432 4.254261248146779 9.257543024493122 -0.47568648073772263 1.0034848516793362 -1.0876172606538819
Ni 8.265514442435741 2.3292720188992115 4.828142326154308 0.04231675849034003 -0.0009340817784951655 -0.4123663805228382
Ni 4.654311402670384 8.081668801907794 6.392157693042493 -0.3119696871706305 0.688394359491537 0.5529069930837832
Ni 8.28546829375364 7.068510111672154 9.292278976081848 2.510356221114825 -2.916440111063061 0.9578868513345633
Ni 4.175324492578097 5.537581102414313 5.322198551043966 0.8219875942003715 0.4042946592582972 -0.21289505506395595
Ni 2.5394771505147244 3.6375530830066563 2.272238205333507 1.6533615147116492 0.35404964705981606 0.22293161336435155
Ni 7.893042551168269 1.6231588845255227 8.296629979334591 0.9129848486155502 0.42290224705715557 -0.46370514000613045
Ni 1.870711352438223 0.5413379715375906 4.104528946138504 -1.6477518818343557 0.2978129360542742 0.6540950719890348
Ni 6.772584670867575 1.3900427257102426 11.28524923836579 0.09831641378441132 0.42686817368343904 -1.4410570420438407
Ni 4.610237199830419 0.13729232282727258 10.351162407900462 -0.5537567426785882 -0.2723014220467311 0.04689177945553215
Ni 1.8410829065419467 4.4309926604349625 10.28278362053621 1.719923004681967 -0.13920543868928928 -0.2384531060387184
Ni 0.48473025583857005 1.5583561069736864 6.406801854757808 0.5989639353428459 0.023707885139901103 1.4401774676523649
Ni 6.329849146905394 6.164795272604391 3.8443853335045124 0.8415722012005185 -3.2081515622052876 1.3319419949820286
Ni 7.009102054339315 1.1534781030071626 13.59830780828458 -0.3010748946349976 0.49859012480877357 1.0868688125236314
Ni 5.796801660467926 2.3139476122526044 5.4714282276307875 -0.7115553709890327 -0.6292229913377033 0.674058145374523
Ni 5.449574414428404 0.6930864439394461 7.851898125455994 -0.3117022924418567 -1.2848581541203485 -1.43073791950602
Ni 9.280080861765304 1.3507491330818584 10.497890294795532 -1.5068472010657725 -0.6297495532651348 -0.10917726775831518
Ni 6.84129885677434 9.43312652345975 5.754292020969933 -0.5914593994356846 1.0066023142623957 1.0654852046415328
Ni 7.151783428677823 8.180332660483947 3.9812950185579337 0.2261290372557267 1.417297477730398 -1.84532367627768
Ni 5.427154675234569 3.5938945854024813 12.919925992276564 1.3010360494317916 0.12836026844466927 -1.8996659984739865
Ni 7.293104313153748 3.6823358743167165 0.7956796617784363 -1.666445344478801 0.1149679062981633 0.27496071404644906
Ni 3.369168114073137 3.3701884814700747 7.41076117708235 0.0985681247839012 1.384362417565274 -1.7937609737090396
Ni 2.8261625976692537 8.571454600284342 2.364415172662087 0.21556231748347393 0.15869697175499767 -0.07197211946292766
Ni 9.292325270528561 9.110605395410904 5.307540217559249 -0.11122232321280201 -0.08429644535623547 -0.5968669436045012
Ni 6.720810473319235 5.04442242292011 8.544647281283675 -0.35438543313268 -0.6547681867966595 -0.16190108051459212
P 7.581726568793206 4.250378183330654 3.0928535677669307 0.4708080695994989 -0.27631337141960155 0.7747307180959366
P 5.761901316354136 6.308789897574145 6.772217149647752 0.8133965100972507 -2.035187046333153 -1.6244222059694797
P 0.6255589075239345 0.8398738522660035 8.528274163701326 0.6912860792170352 -0.19294175187048063 -0.5769866597408063
P 6.687006079372527 4.2180665490942815 11.22271961262602 0.37427523007807156 -0.5533088565078922 -0.5215950703443791
P 4.320405619868664 1.2093243222969865 12.786735924298835 3.4416622366370664 0.42902610056670626 -0.6627028682627039
P 4.850713230888428 8.608055556726361 4.3079788676724355 0.43286989979282875 0.4346437038637998 -1.6130358185094091
P 0.465699459101048 5.3439852845378475 8.937620998952587 0.994160746064933 2.819025897377945 2.667047989514336
P 9.100533991289273 0.6579149466377665 2.961129805529985 0.07934372933665045 0.6584929439464143 1.5396069119952969
Ni 2.618971329013215 9.663635076705075 12.441162996140829 -0.2481968156890435 -1.2801129261258792 -0.07796047583587863
Ni 4.182665469128291 3.0929697762760266 10.92320776937813 0.10725202571114432 -1.118283579389487 0.5805612644659421
Ni 3.5891517665759727 5.993515267612813 7.46921122280362 0.40425866381403924 0.1444126939218416 1.8959152731823026
Ni 3.409472626252191 6.4655391150056225 9.955020827377908 2.3032173518083563 -2.3369669374549753 1.9794031065943134
Ni 9.193349633025568 4.68729383399178 1.2783814650232783 1.8681123920374212 0.45165617926139634 1.008851001087256
Ni 2.6945918905418487 7.76171748804383 4.681441838013415 -0.04162693151216702 -0.5822957306585456 0.29614686120576095
Ni 3.8705747633592567 1.3925841963563197 3.5649926788842103 1.34340937219168 -0.4381303768608196 1.3749056430277482
Ni 8.145167776674654 7.10779425645427 5.8363049952834585 -1.1273744859471615 0.09160686297471965 1.420303354436257
Ni 0.1963130184631263 9.270944794424201 0.9730355767049306 -0.27047876701569545 0.7017455839874625 0.3351353266538164
Ni 0.7154494960556723 7.449570095197188 7.773853246575006 0.7968951700081179 -0.36849307617865573 0.1453100089251304
Ni 5.881539393645126 2.3219215945027503 9.24632843097307 -1.0541857204683136 1.7583255157195654 1.4128849504849987
Ni 3.482287177439245 5.286173913224291 12.235763983921819 -0.456260253692311 0.3775713843308401 -0.402554536638739
Ni 5.175558529119189 7.0788743990280905 2.2521605872294965 -1.3096615863172734 1.0313674370222174 -1.5017430470699877
Ni 8.204991539243283 3.025257062073663 12.296164065112793 0.2645230636528928 1.0124214920473338 0.3793660143374176
Ni 1.4435553269718842 8.896687260212088 10.134009330139504 0.4163451626649281 -0.037704970749941516 -0.771046327265814
Ni 1.8032064908537544 5.5904701458222705 5.9803364668536565 -0.12755139939012872 -0.08985825571472911 0.07500627830356114
Ni 2.8487901894809826 3.547515108073138 5.07196856349893 -0.4241859988655856 -1.1963476706827654 -0.8467599160490449
Ni 7.960689130446757 8.868409856332129 7.990370484282133 0.677459200636272 0.3188106213518638 -1.692512216769182
Ni 5.623679325454098 6.616921955756909 13.101403057745136 2.1618362456239866 -2.204585463666055 2.9297864504629803
Ni 3.934668952440997 1.2174872614724912 1.31871621031039 -1.2807780705137037 0.007950365195328244 -1.4552698432091131
Ni 8.876657826124044 2.1632922556639502 1.3238133233719465 0.6546316612187951 -1.1456298326129237 -0.5189036395551451
Ni 6.238327860107809 8.737472154904676 11.979090565222045 -0.7006523509232836 -0.056934508403514855 0.8375039446684157
Ni 8.122672454710678 7.462182969964895 11.860641026991562 1.5489377024779196 1.321783052171156 0.6168667837651958
Ni 8.696808624567439 5.393416416211737 11.097439281543814 0.5996095393466447 -1.4922199380709011 -1.9895327388291477
P 5.405386837433223 2.7236156742769766 0.9783018062146832 0.23883388641690476 -0.731546726509295 1.6742080191433553
P 4.453450191013869 7.375839102922144 11.771091505710096 -2.764498455754026 1.459260709536061 -2.2879629967524466
P 7.075482622217898 6.453124645009543 1.0607711115029501 -0.49001241044209165 0.5967417308805465 0.67545168328794
P 2.1394742352224605 5.556448451411399 0.7425166308287086 -1.026268168122439 -0.1659420833531852 0.20012335722058436
P 7.601926064114073 8.61345027694536 14.240363600176973 -0.9539852022873118 0.11160953134889165 -0.041060003265103485
P 6.658038982715007 3.1241382211139777 7.434489442984294 0.2279234101519881 0.35322535138630784 -1.6603191769764052
P 7.490857183388109 8.785401079021963 10.12013989181816 -1.018242726714801 1.9751610434885079 1.2054146659810403
P 0.6258404533427192 3.4945126905099655 5.54496553905734 0.9734615658443686 0.8731618030813414 -0.23041120957084835
