# total energy = -340871.30082587304 ev
CRYSTAL
PRIMVEC
9.28023577971297 0.00000000000000 0.00000000000000

0.00000000000000 9.28023577971297 0.00000000000000

0.00000000000000 0.00000000000000 13.58256312422083

PRIMCOORD
 96 1
Ni 4.491049442014199 9.219496594424927 1.0527694305372786 0.015075149165567587 -1.6902910407481468 -0.36790223667219224
Ni 0.1798416883536352 1.8773174477750951 7.681129548696342 -1.0303161129395675 3.2655190443811635 -2.2001824495023525
Ni 0.834999418725193 1.6205054842160804 10.279976044812775 -0.24001582254014794 0.9431336042847887 -0.9716239984149976
Ni 6.007941094223038 0.5612148320261833 2.9908807746040207 0.31126906155918005 1.010826122535756 -2.0029094172463697
Ni 7.572310432464035 8.255447145560055 4.1408476821597535 -0.33291389352246537 -0.1655708160566955 -0.628620324756698
Ni 5.882388784932758 6.788715167511462 5.030722990846901 0.787104152059625 0.818815624230293 0.08835621724790589
Ni 6.923009458866303 3.1507606758866684 10.41619598508311 -0.2394524938375102 0.4292449014457317 0.8215661903922367
Ni 0.8368452576133472 6.520330749988003 11.598748584383316 -0.6280564818334281 -0.3110106656914708 -0.8244103447092512
Ni 5.516747496882124 0.12427627687639743 4.992406753534631 -0.362909154332975 -1.4425724502471027 2.7696815426168624
Ni 3.5085044833248378 3.2428020539294646 4.890293535646115 -2.2391416043743697 0.3663660025333239 1.1906138535227817
Ni 1.267773004076067 0.24676703639693337 8.361330923228646 3.3229531181289156 -2.6085715905449978 0.11720142361437234
Ni 3.660820992481565 7.35266581303301 5.48575243754303 -0.16668796038027422 0.8556505336704553 1.2085616962504542
Ni 7.755789973226702 0.576428850493955 -0.02176864896904495 -1.1865162864146404 1.4385941823256452 0.7386802522302827
Ni 5.482308542060909 3.2073515534128805 3.9893070007106672 2.861294833349485 -0.7761337690910504 -2.0746524514176268
Ni 4.600825350551024 3.2768976400283996 7.457764482758224 -0.9249474202940652 -0.6995699164923823 0.8507692943187541
Ni 0.1854914958705191 2.0869022916668594 1.0618492131826778 0.799886391425958 0.0890352455928015 0.0004509714944895459
Ni 6.3215945016731725 7.890538996132671 13.236479114151447 1.581517950406786 2.6833950634137915 2.438493116425936
Ni 5.448844011992112 4.558804443132414 5.847918277310035 1.0054427467366556 0.8448650130191772 -0.5625044069642312
Ni 7.180471038926931 1.9786854627339039 5.197354263628453 0.12036516605433464 -1.2795737657929576 1.5582651505264324
Ni 2.2198416686040505 5.137111613339603 1.8202402858962472 -0.5839222105183749 -1.1901140310682279 0.04655187961761015
Ni 6.69631186027491 4.836599019693522 2.1506630793237296 -1.8151345542888093 0.2124026888085697 1.4995429540948755
Ni 1.8385910240432348 3.5558708065281484 6.875099313848785 0.39121648591810043 -0.6012208496978226 0.5712268744388938
Ni 2.270660239501646 0.41144574757935204 0.8302915551356477 -0.4372631437645179 0.8812810897543661 0.9200564107503509
Ni 3.0795348666026934 8.379403254303515 9.942490063965614 -0.9184846953878568 -0.1471151804546692 1.062278524778777
P 1.3009127258940572 1.0742058470669271 2.9387230656895293 0.3844827667386927 -0.8298009195972033 -0.8400071707062436
P 1.5179960002615804 6.719716614804446 9.409483436486605 0.4335800384859758 0.356958850286811 1.735352966083792
P 9.551125818498262 2.4533880811695896 5.2700890392433175 0.32877853119785316 -0.7203827394726755 0.0162452582142688
P 7.389526909381667 2.9847001376029616 1.6891272593521618 0.2587727914326769 -2.228614736701117 -0.6917085114664345
P 8.3237311201153 2.07728796744299 12.12409437726116 -0.8487131831206738 -1.3465857130371324 -0.6338759167286825
P 1.5749488069815485 4.808247899515992 12.911787794315337 0.35929238351599413 -0.2013024651303501 0.6755468141049076
P 8.374902339970912 0.6982653533950095 9.038992297239647 -0.7942248222648063 -0.44056315467202833 1.4054099822641926
P 8.497429292410825 4.780750561026296 7.944861784044681 -1.3227832113008962 -1.6267513683232888 0.568250565419389
Ni 1.929416691204442 8.566771213840122 4.234201285535808 0.0015102659969393345 -0.33593262574413113 -0.6560758498644895
Ni 9.03039323080544 0.1825626534718191 5.387972161720271 1.6209288481042408 0.9024399832201683 0.3362840955462789
Ni 2.243710434920452 5.522297077853045 5.440685756755429 -0.33235904946025985 -0.4635076792833437 -0.3580777943826027
Ni 6.860098740802972 3.4935725840234806 13.063219897006297 1.022177542992833 -0.16497534856454169 0.9062531863186714
Ni 4.957000798149586 8.217936432709784 11.436368587593034 -1.0684545716825018 0.7899778740629942 -0.4123797502592769
Ni 0.7035476635766954 8.36228121936815 2.0368001549681853 -1.3312061452572688 0.08805154152329352 0.7620181556252748
Ni 8.950239834742158 7.895949373567532 8.662347433675267 -0.36950094861787974 -1.1249702473810435 -0.03718406524946499
Ni 4.268936279877044 5.676256188735279 3.7713615924431463 -0.74580914996558 -1.0903423728945287 -0.9577683234788279
Ni 5.527883779766915 1.9062346623326023 1.0479270035295418 0.3134899804698988 1.921321114849917 -0.6744342977670191
Ni 8.193807819792738 3.4712907380181615 3.791246353557514 -0.21433127328985024 2.0694896762697645 -0.41622637769887666
Ni 6.783360471491026 7.650032406764137 9.890509607553705 1.3694178804402994 -1.0581261931733001 0.16822702273261997
Ni 6.268205305476338 4.975616951038661 8.454317029269504 -0.08108359484589261 -0.13184796988295358 0.1325136284914105
Ni 9.21559889541525 6.763751333378056 5.120204879873343 0.7029362618614539 0.737905321737471 0.3564546569568829
Ni 9.0038795973039 4.401365243848683 5.808474491355679 -0.23449155028780905 1.085894364425504 1.2126232679143374
Ni 5.533025030365393 7.893248824967969 7.268477370471137 1.0286988890511188 -0.9214957143000388 0.35143149271067864
Ni 3.695046501880822 1.1780331244961273 3.2178586363146806 -1.3382170293574631 0.426364237463827 -0.058038797211287144
Ni 8.336732730383291 1.429119182605212 3.0077225464201196 0.03982561663737012 -2.680592046747358 -0.23563183453983935
Ni 5.677490460088343 6.043178149317663 12.31439953140863 -1.0560112037128264 -3.7388118280757294 -2.0432281714700746
Ni 8.17034738384878 5.392373777530485 10.024488370893476 -0.38607453670584474 1.4987178870904188 0.10868541572356119
Ni 5.697869857767511 7.056088039339554 2.1576575929989517 0.36701674874344536 0.7510112629918099 0.04093659031336175
Ni 8.340778913164765 6.383799921820466 2.6539785205847375 0.306982261258368 1.4293076148173964 0.5017821493835101
Ni 4.708782332883335 6.42622915961152 9.3938360310099 -0.48797224008361123 0.9912512857276219 0.35416586092270613
Ni 1.5794126003712023 6.973865150706848 0.31741747106519413 1.2978946755893326 -0.7190231401209874 -0.6110494057524702
Ni 3.3351682402230676 1.1119300053391563 11.240086961630725 -0.5614551397641104 -0.15599011434679586 0.894755212981401
P 5.025442536712363 1.9787597046198027 5.858254603874268 -0.2947911185088149 0.586509254519261 0.30806186747579206
P 4.4618631006203096 5.871837156899418 7.204408478987789 -0.2760601177582149 -0.05631950052733526 0.40214778811862345
P 4.318000886220285 7.18328295035534 0.03169664516083601 -1.277515340602032 -0.2909267504574022 0.5164958014446008
P 4.219472623397099 8.233220980969161 3.6160039500352976 0.14212518343924557 0.19294226609111284 -0.34142578764821846
P 7.71620048757127 6.761171427843079 11.95963653568929 1.2352564319328212 0.294515496249925 -2.2107643387832567
P 1.1019723123930056 5.785308238884594 3.5830526170027754 0.2986580576633889 -0.15706354991663274 -1.1458715163100845
P 7.324555978984649 8.583206511330927 1.9841273929702719 1.8057929651729092 -0.8381505771134792 -1.714848418372537
P 3.9622059282869553 3.6459540548303693 2.5864592374542505 -1.3558733089866455 0.17175303360800742 -0.8942021686914084
Ni 1.5896858213324219 3.1998902438800703 3.288813462715126 0.0007996130831599132 -0.18315947567273616 0.23137743013885956
Ni 7.263473467361572 2.8555378166108625 8.103383986838958 0.7758468339782508 1.5846099590685483 -0.4261048131548532
Ni 6.313529976817437 0.9315407830770187 8.127900513609825 -0.567638642867003 -1.6102837096855684 -0.24529301177868723
Ni 0.7862818931985278 3.993266877299784 9.357828716349077 0.10937755669457938 -0.31628734070937786 -0.07617484469036558
Ni 8.848389247525008 7.94953345471485 13.398899943978973 0.3035745211283998 -0.5592663596429078 0.06254979770776325
Ni 1.1417102818202345 1.7240357941016862 12.491571295940638 0.5686213184952466 -0.07707010281112534 0.9727825374994731
Ni 3.1430673604604253 4.589132253521994 9.112446291124153 0.11725284567759806 0.2076464050705069 -0.8192488551129699
Ni 9.039849791021775 4.416454907157575 1.6554567080499967 1.6521680086241801 0.22409452332420116 -0.5631608096013075
Ni 7.573628225938735 5.623980620826923 0.14175281681692922 0.6927868321322779 0.3877493533051064 0.5640943771591704
Ni 4.726748869270797 2.3367076772441933 9.63570124689038 -0.6662293933587236 0.15934746085480297 0.43772491389228485
Ni 0.9643092954655159 5.8470589274807585 7.579681723710192 0.5733827444396319 0.6209088150450531 -0.8552304154139013
Ni 3.2514605138723898 6.1381520818534545 11.81162791196183 0.2973164560338299 0.15462203035467567 -0.032130819096273695
Ni 2.9036279982016846 7.572078426570601 7.819454246431904 0.08961297247314244 -1.4518759870362155 -0.7173573223827904
Ni 6.8580756494122355 0.5470105032066325 11.035615527630227 0.6028740690305295 1.019089648096129 -0.08691768502916644
Ni 4.017924463653858 0.28104822721061457 7.003793910959724 -0.9671731617324955 1.8323969409136827 0.4042486365117103
Ni 8.90449755279288 3.9655560933881295 11.70744984162176 2.0058965248991516 1.487073617983271 0.6411585664330248
Ni 2.6520779283057334 3.7203908256794582 11.299089772425068 -0.5135886551001348 -0.8395204608778122 0.5361814527989862
Ni 3.176281324164314 7.213063226836418 2.034871721981969 0.2318155461175427 1.1142927130625389 -0.1370061170451253
Ni 9.260793643456026 8.745926164749195 11.025578024656737 -0.47919655077351025 0.12395853983254781 0.06630746497798258
Ni 4.5813832566813275 5.163866532970313 0.9021187236954014 0.0067378329444658155 -0.5478740586455662 0.0052864452099199285
Ni 2.9605065630357537 3.0460053748837352 0.624265681649148 -0.22766475717396273 0.06259890577814381 -0.3035614085022772
Ni 2.000790984260214 1.2152097488598543 5.759373692093063 0.18446919562309522 0.23394621930730036 0.07341733654988647
Ni 7.68184505487169 6.569785126232212 7.082844815017411 -0.5739689559604051 0.4730068770230305 -0.9750535929218368
Ni 4.862973449659002 3.0625520352033875 12.194913712219842 -0.9901505964642754 -0.3151025763726573 -0.0688860243384362
P 2.3764363664356845 2.1683827614405793 8.75784662755379 0.9121710944650032 1.2028219655531993 -0.12809647326032134
P 1.4158855664437857 8.247753830133812 6.432497958852084 0.033912850697360955 0.08155693493788535 -0.6127856717172866
P 5.214137569959407 0.8802312877089187 12.534668710704779 -0.19399281884281427 0.324623371378899 0.9683725813572356
P 7.30231125392228 8.95998408226635 6.440919772783706 -1.1841097338556767 -0.7778486948996282 -0.11116267361946017
P 7.302682463351773 5.329871389839596 4.571470108866716 0.450221760807715 -0.06524148560731344 -0.29026366295210654
P 5.094218363761684 8.790313532280825 9.221732203214048 -1.3957768300498028 0.37635113877049375 0.4969811284504409
P 1.7437377345720289 8.836742551674664 12.57642141931058 -0.6804571069223314 -0.4479193379267834 -1.7452437428349428
P 4.860189378937804 4.598950742932085 10.634427224611342 -0.19994595110245564 -0.3789656935752054 -0.33713795890614195
