# total energy = -340892.18504706206 ev
CRYSTAL
PRIMVEC
9.08475181914872 0.00000000000000 0.00000000000000

0.00000000000000 9.08475181914872 0.00000000000000

0.00000000000000 0.00000000000000 13.29645258811312

PRIMCOORD
 96 1
Ni 6.187215675022899 2.1592365667859683 11.645365478030076 1.5649667309163242 0.04083348907659419 -0.36673701271949743
Ni 4.778434120021503 0.13467508693312868 5.9643367323236465 -1.1178922574883392 0.7170886421024361 0.2555522276128502
Ni 2.693129263836494 1.656831619666989 4.843551804372148 0.7217279406466602 -1.471673738488433 -0.7005394794945032
Ni 3.419827649518644 4.412654756059052 4.930457449098105 0.8573680305821944 -0.7479472793545054 -0.37375561012917563
Ni 4.989400227612492 4.390687826072185 2.760716183741495 1.4606758447160328 1.2523552963966367 0.27340751062671625
Ni 7.609588018800289 6.171744342612794 2.6298258044314133 -1.3821443268680325 0.7874867322100244 0.15327117275373606
Ni 5.235215443321605 4.561145025139008 11.721394857834495 0.03906842675637142 -0.4637426781122852 -0.6058210674739953
Ni 5.285299680301587 7.871392397775276 12.573178466390992 0.2972321238501397 0.13914347510310232 0.07659599138818421
Ni 2.0454591345463005 6.552259174085045 0.5262006376543801 -0.7108305770078661 0.04941197477422458 -0.13833640582077467
Ni 2.7282054907510065 1.6634725732734403 0.1490517067446325 0.4642859522102649 -0.5816910071950112 0.4369386705455636
Ni 0.20845962455402714 8.862547909974252 4.763985730670339 0.2767131779611815 1.5139856118827668 -0.5407744714863074
Ni 8.596301087341871 2.449358117294894 1.2004227711929665 -0.055917122882594025 0.6516052156876455 -0.008854879287468621
Ni 6.888958247357686 0.6145698359042758 4.897482525287796 0.7030167373904022 0.5442182070605337 -0.505339270607149
Ni 0.869751430776523 7.52323745241271 2.7101095735298157 0.8522885591767579 -0.7949197914493019 -0.3358588350834022
Ni 7.5913912608335 3.9798480929059057 3.761407051488119 1.4531810790008846 -0.38495687816163376 0.4088858781734055
Ni 7.762021070185579 4.143291863540196 12.733174573696077 -0.001568887149016653 -0.8163375950034457 -0.3858588211506129
Ni 7.980990844161362 8.649365122930492 7.202129630274667 -0.4334895356546986 1.1393028619536316 -0.6155226110324753
Ni 6.9449021492845375 0.626199226754643 0.43804129717234896 -0.4679667434959618 -0.0998359357527313 -0.2363016069133543
Ni 1.8699598981996144 6.227615566524799 9.54075007330078 -0.06509467561680403 0.6195510154655781 -1.8677910041422605
Ni 0.16969862228687882 5.025866421560914 1.417268530184908 0.6958518442108468 -0.9887089789217425 -0.1900960548915694
Ni 6.311140775085283 1.8949247962988323 6.998136069732858 1.9640978436958108 0.5556138504919851 0.32206538084373565
Ni 3.3662912068335307 4.229851379220454 0.36791700607407607 -0.023952397050539392 -0.9551969632072258 0.5032996144693009
Ni 6.103717720717982 5.543760870593709 4.809739266440752 -0.906666105486374 1.1729043520581606 0.24924479733758365
Ni 5.537646832594883 2.9157692775619437 9.379117802186498 0.14773815875064877 -0.10178791727277955 -0.5292405027047788
P 0.27220006052336243 5.758369963678799 12.46979853265007 -0.0012927506694945478 -0.39383541159818625 0.9277679204619957
P 3.9714810364468884 5.972597497185953 12.692407658219212 0.5857893456341009 2.45936430344799 0.25830176533352933
P 2.4626127702522296 8.59100467701005 1.3897853388713146 -0.6401818043420523 0.3399664294938725 -0.20047919789810634
P 6.352340124750478 7.716679073674227 5.975731736576139 -0.5608149350769502 0.0006661728290891753 -0.4332180271608668
P 4.64628731952979 0.9700879726458145 12.576077410708118 -0.1258822392178219 0.0036257696780453686 0.9366947906379803
P 3.9623054370727218 6.0069651134557285 8.036801200235935 0.7449586290398267 0.9691179441636922 0.7380426186462837
P 4.808495563911718 1.201549280423062 3.886859298337432 -0.04377688797563428 -0.6125401313653838 -0.6380063939572883
P 0.3117832328334435 5.566536343495725 3.7346015826629544 0.21625420134417597 -0.14223136999980665 -0.6852403872435876
Ni 1.3273549241195581 1.2508340592397498 2.473911476135053 0.5975230891312612 -1.5638516434752745 0.12693356330047173
Ni 2.0274440716166247 6.41239941926792 4.803981350714666 -1.0405853560760594 0.839274149194961 0.03117154050679793
Ni 6.070040545589233 5.495929652073919 9.085492262886865 -1.3577329879032036 1.265006409501744 0.8577971476998129
Ni 8.60497702536398 2.447432149901504 10.08059964214303 0.09520229363546186 0.5997846314719284 1.0307598853452056
Ni 2.280499834554659 5.054910373243302 7.081930186948268 0.5116960660631122 0.829564892326997 0.4441225898885125
Ni 0.2964381784741316 9.216299062479875 9.060269357834947 1.174050806957778 -0.18320421286774255 0.9973049481208695
Ni 1.4243709891856242 1.2726647179487822 11.175083304997349 0.00852140720744984 -0.5216552341583532 0.10308452459701602
Ni 4.115719641658418 7.054546019429902 1.6606072425381808 0.7648635954938698 -0.5164569777868654 0.1416698410693818
Ni 5.240121209323635 7.968517479863609 8.38113964134396 1.2661389804442904 -0.2745771054547852 -1.0074705757999618
Ni 5.484237576435748 2.9561328300564216 5.061454120004897 -0.3393203112694414 -0.5033842037633073 -1.975692747622262
Ni 0.7925328569542036 7.1513349656995775 6.931427645332295 0.3215074514577366 0.8675280018343318 0.0001977178331028853
Ni 4.928550559683613 4.362143535741857 6.806041717171528 1.0931335624864205 1.5866940952910868 1.5858034651560171
Ni 8.287428609002966 7.210340429001769 9.447102634222777 -1.1266712892325499 -0.6178998530154003 0.14370538344217185
Ni 4.7209276407754865 0.42616661802188033 10.413435878926666 -0.4667166731389446 -0.5933165072490815 0.04540131095293471
Ni 8.188659186828767 6.930993394193597 5.134718101344469 0.13669321379039684 -0.34430645163012313 -1.120269499471264
Ni 7.3906727533356396 6.3027464643707 7.294899482323421 -0.6024755480405302 -1.1084511666800974 -0.34550509992391465
Ni 2.6702175196566436 5.002936507877352 2.624281380373934 -1.814319771696998 0.821272827521534 -0.7554479586069247
Ni 2.2313967507750836 5.252494641350976 11.701077718784608 0.5969615602008365 0.2903497949080096 -1.6141305942354844
Ni 1.3460150044309824 3.3002813998506637 3.7751422878186167 -1.8932495534246814 1.1848077883639658 -0.30758929871474766
Ni 3.5371208807264325 2.747764961496136 2.5933269053763124 -0.20754690337816514 -2.1839780718283484 0.10455339583305864
Ni 1.2993738884042774 3.147003466542801 8.170550550954978 -1.265146534624034 0.730171186318007 0.24656853605700113
Ni 3.7618594721305283 2.3675771810906867 6.831704324213257 -0.5938767506279257 0.20067048797330603 0.39731154307224475
Ni 4.141520336928353 6.880682038417225 5.884757031494054 0.514658491125546 0.05264770810270288 0.7878803681040173
Ni 0.7139252245731615 7.594280211923585 11.349772181478516 -0.6905551145882818 0.019690279340075768 0.7733868024735325
P 0.19697286430779307 5.505132505703653 8.126153368636608 0.8398392776698117 -0.01408656000005316 0.8772837956695149
P 8.477072803988836 1.8016425642454224 8.02335849291519 -0.48735851775901223 -0.7352056634181209 -1.272750572223537
P 2.0687251840485192 3.2170832423569817 10.187795171663309 -1.4081124687970201 0.29716013296162375 0.5867064581317315
P 3.941855660645742 6.250736259997328 3.791550258145035 1.6123362213392232 0.4950245189447023 -0.5835501718909369
P 7.013582873312953 4.140203047909289 10.536401629193097 0.20697303315256613 0.032023089873815816 -0.029162737606885262
P 6.162132675149557 7.786549900195729 10.368707103165567 1.1946502283756846 -0.40286923966568045 0.12225929775325396
P 2.0871036370524196 8.594038984129824 5.649117646338411 1.543688024043206 -0.44306226694479817 0.943030245937705
P 6.84155401217511 4.127157344244632 1.6639177261143654 0.9515850774862514 -0.6405589851758129 -0.5187434598281969
Ni 5.252612743125099 2.7287142368549206 0.6484868484820125 0.029861306335806637 0.18917328596698388 -0.316451634201384
Ni 1.3273004156084247 1.0739085168517328 7.010076159096687 0.09555864853361606 -0.751653524561499 -0.9131997928398337
Ni 6.896080692812485 0.7394161298048194 9.238933721728127 -0.17472188642834424 -0.3951153067518744 -0.08166852081508515
Ni 2.7563137129922657 1.3250110581408108 8.894608907747887 -0.047717617790937174 -0.06041732474579272 1.5123794437379114
Ni 6.57338122214934 2.100394629017178 2.6411008899594113 -0.8462765486547232 -0.8825877243809317 0.06912256582927451
Ni 3.9907407103807824 6.941313672301571 10.37169871195162 0.6184775798957413 0.12397319512056713 0.5936918883106292
Ni 8.359198148662289 7.274333421072689 0.43156205214892746 0.6813791045159685 0.9522427656749084 0.78698228176978
Ni 7.664269140219209 3.9836727734371173 8.199363749940233 0.5705792135525658 -0.8955741093382705 -0.2608096193570476
Ni 2.8389395311190446 8.435201182686328 12.325465446019242 0.48929481554977666 0.3449895937400768 0.14308754735251486
Ni 0.017044811431496668 4.958148681229192 10.34574357590014 -0.4980681908670326 -0.7636618618762848 0.31238054945580396
Ni 8.772481680077728 2.2393459086487426 5.667613292641248 -0.4560285972974791 0.6128422359868348 -0.2242816996343428
Ni 3.7781484322076384 2.5936058072582795 11.203883785330007 -0.08960731604618762 0.010986580918490757 1.0540036863644944
Ni 1.173413803926236 3.3979061432910553 12.507893622606202 -1.3619933058414542 -0.8523464089978869 0.28514511077861865
Ni 2.9625284953627715 8.175013889541638 7.870183217303294 -0.9387622146899703 -0.2641199146772032 -0.39521789376800964
Ni 5.722294414060169 8.01136116961467 3.6212756625905103 -0.6281125318823441 -0.6817457438267679 -0.25468756561970973
Ni 3.0558379816717482 8.706880686928363 3.6317667340333695 0.5813055988311344 -0.8753351565835763 -0.262064060589439
Ni 3.77690382120342 4.450192950726435 9.53842346835056 -0.8417586061797117 0.2521501439098367 -0.09223626902860244
Ni 7.256218425872603 6.438999572701148 11.842870708796607 0.09466801839854665 -0.20508327232902096 -2.4783475294187123
Ni 0.5898520430555305 0.3815986423686257 0.1956292295083482 -0.11027332903597137 -0.7749418056654783 -0.20192338654380065
Ni 4.686214803935199 0.35706617845773475 1.6076213358155174 -0.16326247963849302 0.4935890720497564 0.06367285556861293
Ni 6.1235860730262015 5.68733628891978 0.4103010073812419 -1.3052639714702101 0.7438468840328868 1.1549467391384753
Ni 7.815393987337292 9.04389772651595 11.456875046529866 -0.07532355243366382 -0.5978678740651897 -0.4124188310273284
Ni 0.24559990709013452 4.771647810385361 5.866554822676152 -1.1349895792902582 -0.13133092103721897 -0.2501230861774789
Ni 8.103880282512208 8.835021111851752 2.5497273642708658 -1.0228979660986255 0.7027382869180349 -0.07352069489697015
P 8.576323718011382 1.8129530803056575 3.428397295944041 -0.8061763381997277 -1.070352302925847 1.4786126317001116
P 1.677717464183038 3.1133717151733302 1.4765846920005608 0.20670872374758595 1.482790160116569 -0.8345235218838531
P 4.803526204646699 1.1439519536584908 8.25492972618989 -0.07915552458524432 -1.4223882619897439 0.2864509740742357
P 8.31844395183802 1.8474297135977 12.327274220113695 0.8825848961674542 0.2994263032879811 0.43169002055211464
P 6.401543140800465 7.723719756362325 1.3890803621273191 -0.2420040566147703 0.3989087123560356 0.5503603154025295
P 1.8557695158011507 3.2494885522259445 5.893759112107778 -0.521349015771844 -0.38819209726947984 1.5727098651968527
P 7.135036920870612 4.015378557413199 6.017907697065811 -0.4058460629058172 0.005463851328048655 0.35639757846670234
P 2.211219516903772 8.430468026969555 10.0978979181513 0.8550735781210629 0.533949478144674 -0.5990768067716263
