# total energy = -340864.8755974507 ev
CRYSTAL
PRIMVEC
9.29537165396474 0.00000000000000 0.00000000000000
0.00000000000000 9.29537165396474 0.00000000000000
0.00000000000000 0.00000000000000 13.60471600614728
PRIMCOORD
 96 1
Ni 0.4967344437098165 0.7876451879555912 8.30927134681695 -0.9445847349090184 0.6669372180590256 0.4920921757892558
Ni 3.8063896816376066 7.169622513043163 6.639101251940091 -2.447530544037856 -1.7946523751750576 -0.7654174111148109
Ni 8.723288136015073 3.2867319215490327 8.692339195630225 2.0748527403538914 -3.8822305335154166 -1.1895352757466222
Ni 4.302418606628333 0.8965953112043555 8.714106167757931 0.8015288121253873 -1.9458293844039267 0.04926413634245064
Ni 7.7145729797805345 0.15613064185857686 0.20713434688685708 2.0388814644656046 0.44225802587594804 -0.9255153769823932
Ni 0.8222453503807357 7.545434394634811 8.997274796837303 0.30502693730421016 1.231737620146285 -1.5330603691260307
Ni 2.3826826517038575 9.238846637142926 7.2440486959154855 0.7351781526142951 -0.06273825956948549 -0.6485656575303734
Ni 7.285870432686624 7.1313906488584875 9.398383103226465 0.3383152670436948 -1.277141245092065 2.215962852265061
Ni 8.869829672331974 3.3553131746379066 11.406820143485799 0.7588536418543641 0.939733063243672 0.3469603443132025
Ni 6.928091572373428 3.0351062071120825 0.5483432774418221 -0.20667272830332795 -1.5037834745387844 -0.7261787773291623
Ni 2.9074063894196254 0.3994332803920603 2.796490295036638 -0.17218549315973572 0.19362000888442785 -0.2669391292935532
Ni 3.784285287513814 0.7952125501322858 12.11831950478736 1.2233866770784285 2.1116701662925568 0.11554511895787198
Ni 5.395870372128007 5.970370825795377 10.256895276194832 0.2748172464900493 -0.7200011877635406 -0.8336442046026933
Ni 0.4757231853088826 -0.024331565205399357 3.823972806921276 7.242408340323746 1.0672561804990264 -1.090364998602348
Ni 5.282550494599347 8.547391815575827 13.289481508013829 -0.055761314031020096 -0.5223759143744616 -0.3922706382142277
Ni 1.7543619953549237 4.20567237700662 2.200454323999208 0.25894891199922504 0.2370153451509273 0.8071957806031775
Ni 8.70928930609479 0.8179862110251757 10.862182001240672 1.3790610599570186 -0.8319207941536835 1.0603339994578964
Ni 2.317503504691228 5.249087156144488 8.48493528296137 0.5233490769210084 0.17054821466662884 -0.16370033850686
Ni 4.91666607008264 8.305591309124093 10.807137598093968 0.3392809733910737 -0.05030800422593272 -1.2434253408968587
Ni 7.885031507720867 9.10341307011868 3.891996337702569 -7.225492281294698 -0.00036226843542518257 0.7050203980839922
Ni 4.106453578487964 2.1722261389381763 6.964539654711024 -0.9201903652250539 -0.022509236846109622 -2.0950898933363726
Ni 1.0752886090161209 1.93534288416495 5.7960993363455495 -0.07344021936802192 -1.0875848647540496 -0.07362533879563449
Ni 6.424115104499673 1.7579221227516488 12.251904222361976 0.052846711487386414 -0.7888044225801834 0.23706291055941112
Ni 2.5833790240868715 4.433483348909863 11.44608286440232 0.7605192024822451 0.4540586180553019 -0.3623465969612856
P 8.202477749824165 8.391843063991493 8.170434744179278 0.8227730662161443 2.5221740396853596 -2.31822565229173
P 5.984880901164276 0.9147203566635579 0.9043541580399862 -1.6436484011889434 2.4708805316177056 1.831393439349833
P 4.440938237087861 2.9516523591543824 12.123883714342659 -0.9402012611293421 0.607877692892708 -0.2925609436267155
P 8.18394277846889 5.570112116388097 10.779112052138023 -0.5500052460559559 -0.775029223172962 0.8723025404048396
P 8.86359247785886 2.241160616155185 13.317561896663351 0.18556320001822235 0.6742257813006389 0.3393797037524671
P 7.2145935217777755 3.032419844663901 6.969560085016433 -1.3727824260371584 -1.5299902148411393 0.06554384733908065
P 4.831418215368888 5.345740432048271 8.216296249531663 0.25367172276068567 -0.2242099658561429 0.05218619508525206
P 2.1568701847361136 8.348498745320658 5.226170346525985 0.2574530441799889 -0.5059362807611996 -0.5374083832275519
Ni 3.4796201816259127 4.44382909771549 0.20161196650462615 1.0762175034573722 0.015880161565366202 0.5709139711841651
Ni 1.8146703675480131 7.563402348310711 2.981133560333113 0.8038381769848544 -1.3197583084316433 -0.5829942993874669
Ni 1.55110939572883 3.9734089220145226 6.546548164534208 -0.5220082466223979 1.3519840012345685 0.8242295961570126
Ni 0.39254633943061445 4.1768660198200624 4.405261670609086 -0.3567734737488823 -0.17435781822070617 -0.32743564401671355
Ni 9.265477877329918 5.330756292717929 8.909225317065136 -0.20135234453167905 1.0717268146758703 1.285590918521315
Ni 2.1231651666146365 2.2117035829431164 11.169417277429341 -0.4656959451839141 0.913699872404704 -1.083590655992992
Ni 3.2711807645393165 3.2916305824839522 4.7267002748974845 1.3191746680140315 0.9765036951048022 0.3054177449847256
Ni 7.274734577278591 6.708042235917355 3.4202116014223876 -1.4886813287900234 -0.7397616582199195 0.8140380003359917
Ni 6.505849308675665 8.435893830918596 2.099751984142387 -0.2994910950876455 1.903825272057999 0.24909438780264845
Ni 6.476829157937868 4.2063509391475105 11.9174455908031 -0.6987463921498224 0.15663931789502056 -0.8893651523140812
Ni 4.991986467721451 0.31712741085079776 3.7820841434732277 1.9363990922289618 -0.21013497582031554 -1.242280685769454
Ni 6.9266693804890975 2.118136370474615 2.9445228089891393 -1.0596508573479426 -1.0744503842546205 -1.2944414269334095
Ni 8.684219688369025 3.946461639186569 1.7547905119945817 0.5113060297135452 0.8697226954928055 1.6218624156621035
Ni 1.270974776002699 3.8325096763759823 13.406767720686569 -1.203108900665999 -0.979932261170377 -0.034830734525940016
Ni 4.851096517454704 9.149945701314518 6.1240270396826535 0.03751522333663861 0.4629307237339511 0.4022411191633782
Ni 6.312672892073201 4.615616863822223 1.9574333352310533 -0.4132608673126496 0.836948843495894 1.9415083884310693
Ni 5.736527157598467 2.0813917657768215 5.26705232120885 -0.48999981203660126 0.010343290907537026 0.01953009961312766
Ni 5.363866407044653 2.1963941056000187 10.187837170532978 -0.1387305559353998 0.9746792403015535 1.1115282629435244
Ni 6.906266039403426 0.9034422820670913 6.971505606332711 0.5818997807717076 -0.6182240691240386 0.7939227176433552
Ni 2.3853969002674185 0.1600216844911335 9.765111547501977 -0.47272534122686977 -0.41980895284381253 0.8765769994104775
Ni 3.0017265270033615 8.036908587446959 12.105286463996372 -1.6155776110946565 -1.4807661877080045 1.464063787351659
Ni 3.0501461186731826 6.546163336141976 10.420029051162267 1.4729238088454502 0.5559509221164296 -2.568054604267558
Ni 7.243464946566885 6.975721057440844 12.222354235431975 -1.1844074676017537 -0.6308926657306425 -1.2753360735625263
Ni 1.655663737656677 0.8718119909298155 0.6363090988678521 -0.1351621218578511 -0.5840425381463231 -1.1981178752093107
P 0.37275091566020707 8.480362889576385 1.437460462038696 -0.013058375845854928 0.12691839379182013 0.3173026693477697
P 3.981124080602726 8.50552546102008 1.4387395051974152 -0.2002051183011133 -0.06612131710910547 0.5294091670721591
P 6.834394224699825 8.986412225359985 11.65298389745717 0.78504238443459 -0.2952968545006398 -0.6894953058651996
P 6.3465359315151595 7.998862630698143 4.959762202326602 -0.9849775369037682 0.29553082488831683 0.5736876772745604
P 3.499075394788696 1.2608985929790693 4.999011909722613 -0.4485510579735114 -0.6198911724138163 -0.045064496438806265
P 1.6760484879987616 2.7194539717648363 8.358520085650708 0.6028617277353553 -0.03290549247876914 0.24852643111432035
P 0.6160600609539455 6.140132200851233 7.123021096096056 0.723207096295348 0.08484049078516356 -1.5524871103920745
P 9.090529684813559 5.867619785995377 3.0510756558524847 2.018103865598621 -1.1189569513074276 -0.5557262077001333
Ni 0.5825493161029426 6.908747903672162 4.958279590525616 -1.0092497791875714 -0.9512919717258648 0.22480106247292253
Ni 9.237108402617633 8.097151892037497 12.614878265970288 2.344712899948981 0.553040433337854 -0.2288181540521156
Ni 4.354323962720536 6.077658007030371 12.334933271828733 1.0305860787715027 0.4981247551365809 0.9175945794734197
Ni 2.40438734484055 5.417686609726218 4.751242845042586 0.40757461556114966 1.523107628788693 -0.6273908232249711
Ni 6.899443236507353 4.444117254241073 8.961467165616245 -2.2142834076801092 0.7325473998596673 0.1079955887453882
Ni 4.360477498847513 3.017900473923209 2.621397094720308 0.6838483919920674 -0.9485938560684114 -0.21449068168584995
Ni 3.978605034846819 3.3535470539972336 8.8266173479406 -1.5152431384389515 1.4741561385906548 0.6719495836719525
Ni 5.619907423083286 7.472540089033977 7.806549754135251 1.3680863061130697 0.28860787251623843 0.9444806052309863
Ni 5.838348660219167 5.376080525580676 6.0670092291042925 1.9362183436767237 1.4910197471152127 -0.08001118771732027
Ni 4.234311417500903 7.265299774908679 4.28582543844062 0.2538807534476983 -0.09737256181390327 -0.4033487504052602
Ni 9.057456751974007 1.6402891927110281 1.9031093233983076 0.422333519037879 -1.1537216084821227 -0.2098621817749031
Ni 3.8526434516796555 4.5809358316624795 6.411439935522716 -1.237432099427901 0.3672383778359482 1.9527363959364044
Ni 6.691700972305232 0.31206793998385907 9.517437295614236 0.1572016181563938 -0.43545951489687584 -0.9196946565355579
Ni 8.293423667447035 5.04936679779974 13.393122114894423 0.010207279550305003 -0.4139049286545517 -1.5104390321820889
Ni 3.7871668527696487 5.366589950980006 2.5844740188840887 -0.32944521824757456 0.03771525516258666 0.8508685389007797
Ni 0.8695783130879537 6.122257200893263 1.0848805031693343 0.4397517145143265 0.17937429759869106 -0.15903532893102287
Ni 8.019907352437533 7.102528519441172 0.8136778061991126 -0.631971243506802 -0.09532827769036487 1.9024520458595557
Ni 8.150116920514105 4.726603603030837 6.528182368945566 2.1614112422714262 1.0668178074100272 0.08954149580525869
Ni 5.184558685157369 6.742146955025932 1.4937978514018089 -0.545240477677461 -0.3575157512315456 0.02910077402069827
Ni 7.251998097872874 3.5977364709997706 4.611509239026889 0.6068489945178774 1.7209637872416554 0.11197205689463298
Ni 7.877381416735214 7.030907679775981 6.255299068755168 -0.7576467660304564 1.0713264939136582 0.47727953625645536
Ni 0.07923560823802918 9.084115878276377 6.120666762779478 -0.6269632487692492 -0.629342033414071 0.9880114386340856
Ni 0.9628239056924172 6.43479548668985 10.954681175490155 -1.8675529199895256 -1.0362898140244994 1.791273688510812
Ni 1.820321953598167 2.2501120591918595 3.545130243874375 -1.860979637647382 -0.7019741550585007 -1.5289525176052443
P 8.84257564223485 1.9842551305398015 4.0644496524296825 0.08126999982508584 0.916759485166634 0.47431813963528635
P 6.107440378255196 5.598500181843969 0.005816114130890272 0.5971903883821909 -0.734897902369715 -0.3177397568851883
P 2.799710211825739 2.620235173246181 1.1662084995979713 -0.2627407749414895 -0.21657224680522702 0.48285908722676185
P 1.6452993981074637 0.3219517088113732 11.862850154113996 -1.7205760648849333 -0.4260639326145888 0.4210112006820298
P 3.5989541647046557 7.973588514792932 8.669687304107823 -0.11764211069621675 0.2870803801281185 0.7931107632650212
P 2.109026906117459 6.119096774483637 12.868156697512035 0.08572983536865235 -0.48180930580600895 -0.19337806807695085
P 5.179706501081415 4.73286868361933 4.119780353027612 -0.5176096033340699 -0.5366506791259209 -0.2895717790914045
P 7.47587712750767 2.354852308555567 10.166287710105228 -0.922821632200314 0.5015006135873493 -0.8912184034727361
