# total energy = -340863.74852247565 ev
CRYSTAL
PRIMVEC
9.33323797439134 0.00000000000000 0.00000000000000
0.00000000000000 9.33323797439134 0.00000000000000
0.00000000000000 0.00000000000000 13.66013719367744
PRIMCOORD
 96 1
Ni 5.1441821917146955 1.343724959550533 12.093059840696096 0.5813503360261407 1.9305472614338752 0.14511717618803394
Ni 0.28298844661498024 6.018967934836639 0.612454552452377 -0.428945625037758 -0.6546463165068145 -0.2117038629693322
Ni 2.8275604898563005 1.032125471458723 5.13428522600534 0.231436308401253 -0.11802546217756449 0.13049711228201397
Ni 2.463461537302847 8.231104035868706 7.01161194237258 -1.8773210551198831 0.35329142873755287 0.45218994027767934
Ni 6.582303521676796 3.213993881246503 8.673258725521825 -0.5589693972277793 -0.9186065656777018 -0.006978231090046046
Ni 3.0695246882861866 1.8104708650193921 10.467135093152274 1.2518230780422506 0.3009586807721075 -0.734903815906986
Ni 1.680486857631426 0.290200239715338 3.1923603685930555 -0.2643430864316028 -1.2103606971324057 -0.8077519102169637
Ni 4.402637756086873 7.789772537818345 12.424837789617431 -1.2560764540019658 2.0306328513035674 1.0798795256899918
Ni 6.967952921064371 6.706594253807588 5.6206682644923855 0.3522071945344386 -0.18995155889390514 -1.483944071215354
Ni 8.299582004002941 3.550653113708005 10.464812983506397 -3.3361881287619513 1.860891191698634 0.84515837588988
Ni 0.5571065837145213 4.714843904656907 11.876328051541241 0.006505405218685571 -0.1724490312337675 -0.15816192518713404
Ni 2.065828260160827 1.737111613344989 7.714863035291128 0.4931879799565958 0.4244729339783851 0.4342189576215554
Ni 0.6360536450552686 9.232551153605575 13.217863433427295 -0.15834601617348212 -0.12992581315957624 -0.07183739365727627
Ni 5.839639097473791 7.573540076903259 3.352293803805194 2.0151262710275364 -0.7016998183511916 0.7958510450143197
Ni 4.741546298936864 1.6182621590419546 1.0552317690885347 0.6579985208084991 -0.29548685902425886 0.5605040887047509
Ni 4.485964906080394 4.430264140941356 9.37217919594967 0.030493026382534587 -0.219783297543357 0.2077867873031131
Ni 4.813925560607983 5.892586557365507 5.170567255898352 -0.7271182584242961 -0.29759362095461644 -0.22574542866406286
Ni 8.02975808976541 1.447342569231096 10.034955768408773 -0.4283218754108301 -1.8308200833448662 -1.1808871131533212
Ni 8.043048620857567 8.918226359980823 5.502740934116251 0.6940456442400434 -0.19533519180332165 -0.13655051756494546
Ni 6.956435705216252 3.0401996540926786 2.9174498395765736 1.1306367016382013 0.41134513834717545 -0.07884544954399325
Ni 0.610732570018035 1.3139332634506988 5.961283856595716 -1.9998796292811103 -0.912424605236706 -0.9672322971052052
Ni 0.9034611839418457 2.6050934258727025 10.249665978185426 0.9601471081236497 -1.044295200827479 -0.5907022095546859
Ni 7.191418641527506 5.3539093856556015 13.027987103657672 1.0457812984547024 1.0790783699449351 0.6045853952946814
Ni 5.899913149294822 6.88877906203715 9.073828239378447 0.11131205471313088 0.1323382792558108 1.0967279647058983
P 6.642036245686488 6.902816252179427 1.3800564556056156 -1.3492120949163862 -0.5571171745103889 -0.356900743355366
P 7.369664823267677 8.63696922903831 9.841896804438012 1.0924504203764671 -1.126535277875318 -1.2606661302551772
P 6.36764837800509 4.77652727543504 4.097071273120042 -0.27255518992874994 0.7734384816470744 0.7939566562050843
P 0.24271365745144524 0.7900567407618198 1.47958424033914 1.0957167498325644 -0.3171052086249829 1.0899520794346456
P 2.515998334716996 4.10180882479306 10.41681120649792 0.4343904502024132 0.600341789526979 1.1207127576562699
P 3.1170962030170304 0.9571795693028121 12.359077660425637 -0.6888610147153104 -1.5921846860920128 1.9858568326394572
P 4.248172665093059 2.3000552041838325 8.701097908205591 0.994164859829991 0.11199699659529744 0.36427235322908874
P 1.700151990363992 0.4680730919304496 9.420166973100955 0.24507266823776502 -0.384335442527551 2.2783213598976246
Ni 0.19966036329764691 9.289605238272959 8.203049255384217 -1.2827027983402426 1.3715578096014378 -1.4701549878510616
Ni 2.2642995689211554 8.309269905178263 11.534579404329353 -0.9675102333569403 0.7053826665194175 -0.39754139969486374
Ni 1.459643777081842 3.7252033331500773 1.4276345036031481 -0.6472443676157885 -0.19894759174492835 -2.6020772410699053
Ni 1.171816046498264 2.6238159015544906 3.2205411477922534 0.31428368001578777 -1.7384537164963028 1.6654503275553834
Ni 7.959413474005871 6.160170494452675 10.751320060895074 1.7080797321901355 -0.08495156244173112 -0.36027840157834723
Ni 7.713678647372873 5.11003187340978 7.925966881855693 -0.14016368883750055 1.6210286069068987 -0.5851100601788891
Ni 7.7885592168618984 3.1559131403852043 12.740892032267027 -1.2075563949143915 0.15307294070000088 0.20655471466822492
Ni 3.60957384600069 7.083489075832493 3.155081548868132 0.5151470007261902 -0.27613956484589863 -0.41011537970513234
Ni 8.44538585001535 8.096378743512469 1.4106144105556364 0.5026270138823086 0.716376703637076 0.15766544516668976
Ni 3.0871365086309193 4.738167666735065 4.108983284940912 -0.5687023082448269 -0.3752183107176312 0.27677334177515556
Ni 6.389348156649237 3.7197527220841926 6.134727153995985 0.31248236514099087 -0.19266407272906172 -0.6017075595262541
Ni 8.91678904130934 3.15721046048479 7.506027165591304 0.40121370634012843 -1.0289426296308086 -0.2177320714412831
Ni 4.395217831776294 4.3090533773923125 12.068868087472172 -1.7698692546931067 -0.6743445662666903 -0.04381905406747937
Ni 3.6385722168597705 9.043543748305531 8.896123385449611 0.5953831599701229 -0.4429247129256695 0.7110825451176721
Ni 3.593315345184302 4.254733931495999 6.791191657510128 0.41452173630294414 2.446509301862193 -0.3466687812147127
Ni 2.5000664972350366 7.728649161327802 0.32456895579241457 -0.45902958890733203 1.5719534466468026 1.8450701655059771
Ni 8.516943786731336 0.8155924802759632 3.710680814625221 -0.1028595530704035 1.0710976657323037 -1.6372005886810708
Ni 1.7556287577879937 4.244542035461845 8.242294588382396 0.08227324427861961 -0.2580240861921105 0.4641332286824845
Ni 5.864521510319078 6.414277235685156 11.464297321265262 -1.258054403663943 -0.7286388088338805 -1.0512847447714346
Ni 5.389842352442682 7.43229085109659 6.918490492289095 -2.6628411505218397 1.3460578655581206 0.44073336170130545
Ni 4.663436429056065 8.31353519500208 1.4964130020050581 0.5736198001511024 0.5326837240583729 -2.285388294046735
Ni 4.172750767792697 2.2566463136574137 6.641353985979439 1.1228460019491886 -2.1219165266109132 -1.3515967930984787
Ni 1.7463421858521118 6.235041730703573 9.833331691809308 -0.3479093384900331 -0.29211639989012916 0.7462454661720503
Ni 7.6515192814502875 7.850802581927622 12.751492724131124 0.4270008426065614 -3.4124802157564718 0.28447893794952944
P 6.249162919988991 3.951021029621093 11.33270986356716 1.4841057936041988 0.6282336308412406 -1.3123671581738947
P 3.6757465043176776 4.054143977680951 0.540773416993121 0.43895647230654083 0.06104698790999164 0.15908572255298406
P 1.03127614678921 6.987580720844432 2.427064708580878 0.8165844209069292 0.3593252936364586 0.5080618117446347
P 3.681346447193586 7.229862249370619 10.370721809981568 1.9567216058363976 -0.3878789369044352 -1.5434908204307352
P 8.13094905753308 4.239726084588564 1.065785794761997 0.4678423021029556 -0.8586792931944501 0.22082639409589067
P 6.105673717031958 9.244143035358706 13.324193282107423 -2.1743968558978164 -0.6580946800667311 1.4187298393015502
P 9.313955656545033 4.8654637015425966 9.317170023755805 0.6506389951196343 1.629064846947814 -0.9107035087805412
P 7.523299256068232 1.3627460988523694 7.421607093413169 2.476627975624444 1.0955095189177648 -1.3174723406109439
Ni 2.2123507655089765 2.9772002967387063 12.749511277676863 -0.26855352496852464 0.1047706540501873 -0.39621522468427245
Ni 1.4475665669461326 5.670604821764488 6.3999245820942035 3.1470346402893092 0.7005435932595612 0.5888183622684118
Ni 2.5415154077548867 5.812414041858749 13.093296437447957 0.19206166325837246 -2.6544228445511577 -1.4937299469575243
Ni 8.969092507770325 7.1544310188321285 8.723117816917478 0.043391993832389786 -1.4765575489432958 0.13604940955881087
Ni 4.5597628199467435 0.26881499119605545 3.559285425651218 -0.6168207610186086 0.2138023973695737 0.497267292232292
Ni 0.44021710941805475 4.853031828358079 3.618857617965134 0.32404821560171937 0.45079228859920434 -0.498936709514915
Ni 3.4141171731552253 6.307962320186031 8.043553549040212 0.4654874287175338 0.22467533552833563 0.7315711519893272
Ni 2.1830350645535948 7.579158686255421 4.674252718720883 -1.3325114943322536 0.22634603836253922 1.1881684773060828
Ni 4.997538354270902 6.059259523828802 -0.03601043266353056 0.07799569994918826 -0.6554708692906389 2.3214454447806085
Ni 5.204129580201298 4.8940140769716045 2.228050205361586 -0.6926582769742136 1.059789439808336 1.0113897083487096
Ni 5.528692936050836 8.873445483449807 10.705763592275744 -0.30001868545634136 -0.03312660735063972 -0.6460932847304809
Ni -0.08379101192840845 8.846220427834764 10.950908558259147 1.1118501650593173 -1.2977663775415842 -1.761200780384831
Ni 6.033705117838405 3.55952902316632 0.524570915605492 -1.4104267187524937 0.05870548426100857 -0.34895834857983776
Ni 2.522251604261761 0.7787457894762969 0.8090116140729579 -0.5250760869144441 0.8146977454071775 0.19592885952326256
Ni 8.771918519109583 7.3987565265080235 3.714260111446739 -0.2340125537688615 -0.025142303593582504 0.9721438754742097
Ni 7.316194702040876 8.401276966629442 7.528456803456944 0.36696018447389706 0.1406460277905578 1.4216979207909386
Ni 4.960802729004941 2.9330820801146724 4.123708334733114 -1.3517004085558786 -0.25793486891241385 0.38844303693802135
Ni 1.7329396559024373 3.2580374319655245 5.635106783874103 0.06487973139252053 1.133967051563015 0.0179306163364917
Ni 7.760279505338559 0.598064565908917 12.303739958249718 -0.28274447175692596 3.4774093123296885 -0.029418562371433202
Ni 2.5501486530219126 5.534152880354847 1.9057529597291654 0.7908803312726056 0.7466786970547269 -0.15477038300708185
Ni 7.753680905983114 1.8123281794065687 1.0583537372418537 -0.37461127326125154 -0.4487996836492077 -0.09673312845769147
Ni 8.87408014364241 5.74404807258203 5.598730488276013 -1.1175423303480883 -0.7973309719939558 -0.3819983097539421
Ni 6.082676618288226 0.9929445378036154 5.490227861760032 -0.2670697413341465 -0.007346413062742187 0.24097484401930758
Ni 5.75288664908784 0.8316391165868795 8.125459246867063 -2.1045574665071753 -0.879867240125975 1.1272281901772843
P 4.0767957466140015 8.617649426116426 5.7558490188691955 0.24161736269931294 0.6878379727674349 -1.8354460121526517
P 0.037920946508028054 2.097402604742825 12.277703957171996 3.0574838885126696 -1.4914588915351605 -1.0063688580953507
P 3.2691719850504564 1.9354242570571674 2.7778843299279274 -0.05341389684476608 -0.04232961400614645 0.616411441395332
P 0.6349299231848363 6.818742443135785 12.222216923186053 -0.3744819467722389 1.5567463998890607 -0.264037639376042
P 5.61262674652258 5.262816981540821 7.432658580678774 -1.4777577398989838 0.3052732489870613 0.37013009756144644
P 6.471620650734462 0.8616828101161293 2.7439664092523617 -0.025192954325859836 0.048145192246659016 0.47606520423338006
P 0.21059611841048387 7.731299800955733 6.531389774372847 0.5973670231693712 -0.6985173068581518 -0.3840958157129192
P 8.85771897720663 2.9467179410175097 4.653448930936882 0.578267840446075 0.09610886461013127 0.6233791309624168
