# total energy = -381166.9157487782 ev
CRYSTAL
PRIMVEC
9.25974525322027 0.00000000000000 0.00000000000000
0.00000000000000 9.25974525322027 0.00000000000000
0.00000000000000 0.00000000000000 13.55257316748720
PRIMCOORD
 96 1
Ni 8.871623235406805 6.357620860704689 0.255484711195547 -0.5596491969036232 1.0083982298205536 0.6374993724138827
Ni 2.694511852828817 0.5128084078407689 9.261490002686982 0.37035404064679445 1.7934907507667885 -0.6397557725482274
Ni 2.2806660486882278 5.409552561357177 2.7920336401343877 -1.510834982068927 2.2467574690484144 -0.38011883334304214
Ni 6.904482908473578 6.392326386713661 12.20578626740208 -0.03838245643294035 -0.10833163192856826 -0.35387378360358407
Ni 7.288530851702516 5.405154182260523 5.946516867196773 -1.8416580545006347 -0.4596515387620471 0.40072545384980024
Ni 5.684705897898417 3.103125900780754 1.3271928359118372 2.382075399757839 -1.746547806358347 -0.6458796260577779
Ni 4.315634011164602 6.827108475354325 2.479375556529612 -1.3205620352798613 -0.17314477174921147 0.8786531652132158
Ni 6.977968248496841 8.356818426443429 5.575339044191919 -0.5220470702801332 1.9548693831190076 2.569113898770008
Ni 3.653386275135899 2.4413041130435174 5.834789704370828 1.0619954463207195 -0.6234778613238101 -1.711449419993317
Ni 3.443069676352081 4.304513056859166 9.179917200973154 0.6104277130080712 1.9693233537608084 0.03267126498077599
Ni 5.82945423903295 5.02883812649623 8.804903991396017 -1.7420422051785094 0.8439412156533271 -0.7334071767568014
Ni 5.060793508101609 0.8673742474784687 10.436890609087811 -1.1456894822062655 0.32618685921127694 2.3941683263666316
Ni 5.860400308382464 3.507684180218302 6.974100452815425 -0.5557532042833268 0.102482629346959 -0.1509610365633207
Ni 5.869243365303106 9.350583569668816 8.635144151781539 1.1868564433628785 -0.44590487859991595 -1.2431414911078527
Ni 8.879512538544384 2.881799464637099 10.805480333234739 -0.3507210969072153 1.4590100269778357 -0.900083824283166
Ni 2.0980175693587326 4.948463535845786 0.4255399366904102 -1.3311413534576042 0.08645925733550917 -0.015451815778695968
Ni 7.875719090978626 2.1184075288762765 1.7796832617829064 -0.4723314482225608 0.015496552973702343 -0.6020639144244083
Ni 8.936441453673293 1.226814417129808 5.67492297681291 -0.5066477050059275 -0.001855822261816159 -0.012129436273682336
Ni 2.4045707027773524 3.3219799848848157 3.71711832525915 0.08216525794584559 -1.024850718949622 2.5149620953179523
Ni 7.2341946653042655 7.16278350826553 3.9079931624612088 1.3393169472898612 -1.3532279009439985 -2.52498656943349
Ni 9.289469249588983 5.138075343766195 11.981599495883781 0.7737400720478932 -1.5030764211694307 -0.7726568662860435
Ni 8.375745346177244 8.353308982911571 9.627368473361278 -1.588336001769884 0.7729186045878624 0.3033948010174259
Ni 1.920165638180958 7.022544663173251 11.864125735021238 0.6529097934316821 0.4141692380595319 1.6550769547408595
Ni 9.032585390853427 8.602923941455815 12.828608785157465 -0.19828656112216173 -0.28302755021498355 2.3628234935067627
P 1.191294033519773 7.299142520007287 3.427621642990083 0.887181257288885 -0.576050263969466 0.3452253638999668
Ni 0.6912825939139021 4.059000165556644 8.68322908401526 -2.4068371800835515 0.17144347278738858 -0.39016284784260546
P 7.613260865472151 1.1668946042151738 10.17466202526891 -1.4513715365959714 0.007060249280891067 0.11261508979527056
Ni 2.4847415790275305 3.7939306918285776 7.256915302755763 -3.2332388441912183 -2.474863941745486 0.5380838120280217
P 5.284221906466191 5.1936523360569735 1.3127494849329706 -0.7981935771045672 1.9787510748326111 -1.7183212074124858
P 7.631798875896367 3.7922268986627152 8.157537592306753 1.3060214184615249 1.8399981502997085 0.3582796259807636
P 3.0425208667015884 1.3820262706416457 11.258326333331727 0.265287195512427 -0.09626210235854389 1.4500780145955285
Ni 1.5178296976554038 5.6438796801359965 10.117484022986948 -0.9433986850207172 -0.21702578940287787 -0.2692749765155814
Ni 3.504082139231779 6.721269584670618 -0.08817314828244956 1.4750287710035952 0.025875325104865114 0.4128600323298051
Ni 1.9948177061330183 0.6535361674936864 5.290043508441068 0.8317894107821416 -0.30939215625144134 -0.45801991669589504
Ni 3.6906660103845965 3.8612583011165245 1.8218864036962163 -2.0108865219145757 0.6702583120124586 -1.4725409715847348
Ni 8.396264942131321 8.171447581946742 1.9230694943592965 -0.7327949970940992 0.36159403506597726 -0.5353486724850457
Ni 4.678023409747066 2.6984472446521393 3.4056130799649713 0.85180493467212 -1.7910656862650638 1.038598664663334
Ni 0.2609322194535719 0.714701416173584 11.170396716355048 1.4703187671224356 0.10731990283460227 0.26238930513934167
Ni 3.8075054786826734 7.71834971677306 8.67248129745213 -1.4772728298427653 0.7056752580591718 0.390287803456244
Ni 9.411975682112645 3.3874649048249013 6.3543679121222585 -0.38818772639410565 0.992579260510426 0.2451364315961649
Ni 7.211387912219928 3.9585226674981224 12.11772145814159 -0.8926821325024561 0.10481359147298078 0.5616137768291618
Ni 6.934215951166962 7.17959920603295 8.037028486880248 -0.2898435446955524 -0.051317419327053554 -1.297454245617804
Ni 2.6798629355005907 4.580981277256668 11.735945856450167 0.26990772500357385 0.9700826220698067 0.7782454161174146
Ni 7.4163708976149625 1.7683335917644443 7.694202152545154 0.42495115916638426 -1.2865895349891583 0.2882196359388842
Ni 1.603232330094234 2.771488116893004 12.892779747215835 1.4554521344232483 -0.19557456150763736 -0.2507180394490005
Ni 5.430711079748452 8.242377232221212 13.109905962815821 -2.6041618915130766 -0.2866450923629128 0.8989674512905357
Ni 8.756830170856857 2.46682397154958 13.066212001882382 -2.1778254219633912 0.07239455171232692 0.3515883300035171
Ni 1.4137408988648914 8.091869329406428 9.760929190023013 0.06495789292862361 -1.261133299699583 -0.005277960569487685
Ni 2.2436641058035303 0.0896917465389787 12.906617510841183 0.17468434832218946 0.23765734961030038 -0.17203996872080696
Ni 0.7034008228060953 9.413086851568641 3.164715245803024 -0.37755158683649814 -2.5562923215253073 -1.8713082732669
Ni 8.398033553515448 3.419179533048147 3.6917077317495934 -0.43056876246347786 0.14854702780518933 1.339700812991841
Ni 0.9866721781979387 3.4337358529217066 2.055694976728903 -2.0452775977999353 0.4961612036523068 -2.0336986347130845
Ni 7.596324791013664 0.7136004324376004 3.705693651302408 -0.018018548064607676 -0.4225721174112464 -0.18768461723659932
Ni 3.880990818705937 2.2612668819356148 13.317734467992754 -0.08474304597535083 -1.1624271066759206 -0.45150191307171916
Ni 0.6181444943456377 1.102733827876818 0.9546130874433341 -0.39255165978975615 -1.4832856116957487 -0.40431857051769726
Ni 3.7496505890071 8.370180239151791 10.904604056506038 -1.0481744812772271 -1.1582395509571344 2.0916672408080688
P 2.1425662047987433 1.376192630997662 7.287476166693866 0.16418396301149787 1.0367248446793889 0.345691762013424
Ni 3.94617942679109 4.852782585938983 4.210811840533132 2.04438671055455 0.9323581109358393 0.9154682771590362
P 8.514632268431393 4.362080894425273 0.7301179664009948 0.3185059456272515 -1.5538580225976724 0.28356311100347936
Ni 4.790640434112355 0.0011232071251035612 6.583664211189052 -1.0653070271924556 -0.7643516888544578 -0.02439796922839024
P 8.36119828604915 8.95199782605725 7.1601907795348705 0.5202640102377813 -1.1505339547827604 0.9734430539016073
P 7.145171472387979 0.06112913567257766 0.32550968433792676 0.25299732240148043 0.28832479405818084 0.9089590152856089
P 9.200816446491363 7.16741338099885 11.279901540269 -1.782906033272407 -0.48351960362889634 -0.8063447454567919
Ni 6.208418582000702 1.6478920824798442 12.580013324589098 0.14332048929892738 0.7609133525968702 0.5196040080562793
Ni 2.13030630180091 6.0078432354477895 8.034941340252065 1.0969313389659558 0.7720588276907284 -1.7112041367517303
Ni 0.1688347910423599 1.4386403544246893 8.934208929041286 1.7042639579884713 -0.2732162205515165 -1.7641025274126587
Ni 4.073297212557138 5.057274804824285 6.6239015091397935 2.1423891926429683 0.9217281420258191 -0.31873914468398007
Ni 1.6530960594320963 8.490112462435727 7.267811245246359 -0.26116880246867924 -0.3552140996815624 0.29136332377418855
Ni 3.0851897738118703 8.843001362169419 3.347431321274425 -0.10525453566514131 -0.425948232972331 0.5520857827340686
Ni 5.2128107494274545 0.4506366248286474 4.29066325556471 -1.4605809710093813 -1.7307494058735098 -0.37391450430454315
Ni 5.941589756633973 2.6366662228987106 9.572440589227707 2.7217618361174485 1.2026399314493803 -1.8178570954262954
Ni 1.4068516482377105 7.592102347080877 1.2029955738659672 1.1236720973949101 0.3397005774269956 0.07263109320316523
Ni 5.1710863363547706 6.94221637125014 4.912387567507753 -0.4982813353191032 0.02188960098423972 0.7431447157595396
Ni 5.721430048419116 7.398832939701144 10.010107088581233 0.1663190070766297 -1.468379641118194 0.9075477367603789
Ni 5.64014800271294 0.6576261970663018 2.1179963961775576 0.8844286342444123 0.2724078657176083 -1.3748426510002967
Ni 9.080319378733963 5.79447092065998 2.638442242079212 -0.8060752938454891 -0.6919157423812342 -0.06338334935265214
Ni 0.055072336162847735 5.72458762162324 5.197885891684322 1.6971597428435223 -0.05603642206927769 -0.9249669606780908
Ni 3.9870704627717766 2.2991855396215097 8.115308523106137 1.3031091299107365 -1.3129554265771968 1.110291562322946
Ni 9.28057989394101 6.833590297180973 8.219351023169317 -0.16382375145860173 -0.7354766576913204 -0.9972334714529858
Ni 2.541300104337774 1.695413096214646 1.8644543795809119 1.7619250601453655 -0.9163781905678154 0.3312110518987457
Ni 6.801810850739462 8.759672912715116 11.626387326012509 2.6269076698500244 1.3349807818083526 -2.2515721168282385
Ni 4.53819199345532 3.524323942821856 10.957499426509678 0.33229708587407286 -1.3118153994354826 0.4325287144033261
Ni 5.033421700502217 4.281354433447096 12.969691193061756 -0.44925965400476175 1.863105168630817 0.08774763712962952
Ni 2.741903230127086 6.865814211404885 5.415404720492095 -0.44201351396530975 1.5828402687626353 -0.4749184922234466
Ni 6.194436366346074 7.2438248005895725 1.4584062070977812 1.6925433271174335 -0.06090737700833382 -0.25881367197294136
Ni 7.63678061895742 5.134047354488207 10.038770630673218 1.884952860633528 0.22520241167639926 0.2091785254443172
Ni 6.28393180628116 5.055098764639624 3.0294470320772375 1.4485726336945957 -0.1741107352069066 2.5983645681050094
Ni 6.350824207532176 1.6553183983440902 5.652290306943346 1.0018069497562812 -0.2756238015517447 0.03888279310812659
P 0.8813925761404166 1.916239506103102 3.876415578470869 -1.1269615667794592 3.6878178535263646 1.1056214105407862
Ni 1.9723720831218803 2.9076619337254277 10.194408432476521 -0.20905305561004642 -1.206578347271838 0.7174771357901063
P 2.1418161654159453 4.892164283408608 5.5472440504715825 -1.6348485435091262 -0.9458188644264356 -1.2585786515985293
Ni 3.761845673786666 8.930765229702242 1.1820352140276786 -0.2081598543718157 -0.32864586227473075 -0.7909919171498054
P 6.109913409726574 3.540269224515412 4.776523026173914 0.6121392963825393 1.6173329032228663 -0.18539427854052584
P 4.363775427845669 6.056697652529788 11.344886433953887 0.4753676639457232 0.254346123119891 0.48894951639521594
P 4.886062111146091 6.839683209698024 7.2535679047695725 1.9685489374886291 0.6502679849334607 -1.7018327228391594
Ni 0.20759515959117272 8.131084351457654 5.184929655827398 -0.32462311426858287 -0.3744876031991937 0.4563188748443883
