# total energy = -340891.82226720534 ev
CRYSTAL
PRIMVEC
9.04925079153979 0.00000000000000 0.00000000000000
0.00000000000000 9.04925079153979 0.00000000000000
0.00000000000000 0.00000000000000 13.24449324570415
PRIMCOORD
 96 1
Ni 6.301835012807822 2.0616274978681814 11.208946984434851 0.21181801994969326 -0.02852356136098959 1.2396123949086715
Ni 4.853565743939809 0.27847531408219056 5.900302554835373 -0.2725451626264209 -0.11998772811025786 0.22299589094338368
Ni 2.5945921814797765 1.5411145835558522 4.576012548528835 0.44211995763618694 -0.08315564688357292 0.939335570694937
Ni 3.409332440992924 4.060335553921105 4.430018268270229 -0.25101628741570964 0.7890337649821701 1.3121187896085142
Ni 5.108465044536986 4.622846041865624 2.7386173447329183 -0.02227089558305842 0.463444430145576 -0.24801041070985028
Ni 7.443832383468241 6.134170491313058 2.6681698310571527 -0.49571460303319137 0.06208494225620275 0.2989876730886657
Ni 5.054594853665963 5.031293032484561 11.368450891428106 0.7678841274877485 -1.4600374398010854 0.2804847291884718
Ni 5.652696045574153 8.060249259287561 12.3587285207575 -0.9359257736824397 0.3754527953259405 0.6126707434059772
Ni 1.879447977858866 6.754170870506294 0.754199865771129 0.13682536849288693 -1.8896569509774166 -3.116743445504935
Ni 2.744873091910667 1.7561881307474572 0.2887787912072952 0.39033973974010194 -0.9504044269145892 -0.05173008138443994
Ni 0.6630295674330677 9.006095066480768 4.561483071212773 -0.6094998018771632 0.4439217867316161 -0.2578168552773108
Ni 8.465637603087346 2.2595346160185747 1.3288996947375304 0.5093486488768583 0.9497909617003062 0.3627240349053624
Ni 7.300799923043681 0.40177497789775407 5.073382908476381 -0.6090812262825058 -1.5667785873140823 -1.11468249230179
Ni 0.7547609193296715 7.365882135834611 2.567126799938932 -0.8004551194452343 0.025333079448149918 1.3057272842598737
Ni 7.475803387054219 3.8094812684959996 3.8730875484579244 0.338431738016901 0.12919459142050654 -0.20672569302845042
Ni 7.415996887563778 3.9036568230726405 12.659603445701954 0.8462955748181167 -0.35505083463082077 0.21775058338404432
Ni 8.145321267414303 8.462624202522917 7.416452969811368 -1.4990950679241795 -0.3219247415008133 -1.3292284527056075
Ni 6.837731653725348 0.8029101737537508 0.5210504398184168 -0.3917517895962802 -1.7365055916309966 -1.0379664303959735
Ni 1.7967468734795133 6.447880873796812 9.280165205203307 0.026579036040109066 0.24812353924894687 -0.3232144068465143
Ni 8.97624158761574 4.733228804883387 1.415518219850642 0.7411022314082139 0.32892791229152385 -0.5218776345818044
Ni 6.725882912054619 1.725574514803114 6.772889246084442 -0.7810782575805194 1.1280080057661026 1.8028878757109728
Ni 3.689967811275503 4.3227004865472765 0.3799038432906353 -0.084871344023099 0.10817196642225242 0.7804745625582494
Ni 6.087078189399264 5.757975031059369 4.755078221288239 -0.2582053489649811 0.6489739487123856 0.6786912732711602
Ni 5.312923820371005 3.2592325155809174 8.998136250275314 0.6265917243624435 -1.022558837591652 0.29014204977257774
P 0.1616467696168487 5.732465192647574 12.48912008253806 0.38945322337009053 -0.6721113060607973 1.106826743702797
P 3.988810274457881 6.276135140126198 12.69856861534273 -0.2481587633622565 0.8761465967412781 0.5416455612373511
P 2.2790628995562314 8.62532973450024 1.5259380847972774 1.0352570018846108 0.7066684752103766 -0.733598209721685
P 6.464486249279481 7.631902965842253 6.0946388385631725 -0.5134266756009739 0.10763974806786623 -0.4680436194804843
P 4.612376058523145 1.177696665635422 12.514509565912297 0.6069276702746128 -1.0837541781540498 -0.31370543891481456
P 3.793672227096423 6.103484481361161 8.227068580744135 -0.7584993438387388 1.8388869195134008 -0.1222767812547507
P 4.584169543329968 0.968595624067011 3.76556887336401 0.426774071307736 -0.024891363925041002 -0.06740789713101294
P 0.24364927182330673 5.467005416198475 3.672287384780659 -0.5790080610462094 -0.828246944846522 -0.47278396237894704
Ni 1.3885261141341814 1.261375089116752 2.41862949686915 -0.2459815532052796 0.45504746433113247 0.38463317627362786
Ni 1.6432353804615307 6.632919957104504 4.688776169470027 1.7897114862300143 -0.8597031064732743 -0.03408794282264452
Ni 5.708919041690677 5.660677484906968 9.153083859418148 0.5151860814942417 -0.22914725525676022 1.1445114027377643
Ni 8.449113670863175 2.326779599785177 10.169943663396229 0.9217188860544384 0.6892348531149614 -0.1322629459331851
Ni 2.1602824316622184 5.268292914714045 6.639901454207981 0.6631597532944643 -0.7113172868362976 1.328809362890318
Ni 0.40601998151569413 8.812205815749614 9.25607338441447 1.2998867663186968 0.5647289254193758 0.285421761478773
Ni 1.331778261462891 1.0469349894912432 11.1602737783811 0.007311960280380956 0.410246505966358 0.9024772642160069
Ni 4.254984941731574 6.97296365983598 1.52502411045191 -0.5098502711036251 -0.08797055177371302 0.17091922485280242
Ni 5.4303107036196065 7.880522086284133 8.157508798585996 0.6496239235915586 0.40522822681616016 -0.18417094765638606
Ni 5.311973649021861 2.7304938321602794 5.002299232459236 -0.001729066875964764 -0.48847360520006206 -0.7967486171279246
Ni 1.04502559754201 7.388966774993352 6.874196515330233 -0.5615014196210136 -0.5316683954199811 1.465073459563096
Ni 4.776882391438371 4.999457767662746 6.777988498991517 0.574824619092481 -1.4554246236194224 -0.6760396945809259
Ni 8.271241594303316 6.792385857243793 9.51966539546868 -0.41685706930434013 0.43253822748502285 -0.33645327413429155
Ni 4.81032842292826 0.5907839675946825 10.15034117600083 -0.7578372847747077 -2.0044135125957223 1.3010553327055012
Ni 8.408111514834854 7.0165177046305764 5.0500322213398805 -1.5253123497494956 0.35077329030138943 0.06806764220219891
Ni 7.126230823078467 5.9808309340630155 7.4153272429939046 0.9259984872663988 0.5072891952446682 -1.8339894822117835
Ni 2.3878801421606433 5.146698129776375 2.497766101301569 -0.12209371870966715 0.7690071853485982 0.41046119308032536
Ni 2.5290394076397464 5.013583648386695 11.61671890093335 -1.5585168615259224 -0.0922763782379185 -0.3794534318449013
Ni 1.0950679552636229 3.350150339817635 3.673307235362074 -0.8255609133739266 0.23188059502752323 0.09122016905926225
Ni 3.8379683104684474 2.643105215791814 2.484839246327731 -1.368058795309244 -0.11865178290765373 0.4259145515209181
Ni 1.171742258514116 3.3755244394652664 8.216062881745756 -0.7446732365889239 -0.011607759442257427 -0.05743484507870108
Ni 3.6270845664640223 2.7677857953014677 6.801762691072208 1.3466502477264806 -0.36584921079790544 1.175628178747227
Ni 3.716002506242064 7.060868083508266 6.000722092563536 1.2646130307180672 -0.4372330618575308 -0.3009993042020558
Ni 0.998702481958477 7.455551163441024 11.451758295620722 0.6376574952583017 -1.149961370108742 0.44561460105300676
P 0.2728810671484652 5.506831169604048 8.086968077625505 -0.6972628656257605 -0.7642686422223482 -0.9630447413864189
P 8.536438942475034 1.4777698269462154 8.055115619226896 0.8217101721692687 1.203816982476617 -0.4319928965045141
P 1.7894079309637396 3.0585925236453657 10.433495857746284 0.025484774534665786 0.6521387195936124 0.15829870787531447
P 3.977290578005871 6.1919952048467115 3.898066195839293 0.16418370590118175 -0.48126551748739693 -0.2048811836205439
P 6.923989113725785 4.054580230320572 10.527319396461193 -0.28977541046177835 0.7889769436023056 -1.5923299534206252
P 6.508918071415669 7.918927107291461 10.373550904716396 -1.51520740010501 -0.6760584636340035 -1.7816778172922605
P 2.3356931119652464 8.625465473264406 5.792757636913721 1.0783726021271622 1.5565993327882353 -0.3330355067019942
P 6.828338531245234 3.9586129240569727 1.6476016440421235 1.2055967000848593 0.5738661118339536 0.06788560809837986
Ni 5.404701323447425 2.6910933935490857 0.6906315926631698 -0.9629339268401673 0.7636029836138913 -2.0642880774641674
Ni 1.458748301461436 1.0452065825608945 7.1917464949896255 -0.24165772901894508 0.6065864848851101 -0.5543977186966969
Ni 6.894271373624922 0.6513705125165169 9.146487860404894 0.08768567354344253 0.16816480203611683 0.05512933687397602
Ni 3.031399524557943 1.666464807635379 9.181268656409058 -1.4588413626104555 0.31112945065752223 -0.06687027945998807
Ni 6.312938443716397 1.892641785735559 2.6027283630037368 0.7039024824294652 -0.4549343357920358 2.054714317732803
Ni 3.8452077112238343 6.7885489748434376 10.450024314595927 0.3114994324024313 1.4840024352571153 -0.030994905719617584
Ni 8.296416610430175 7.312772082042903 0.5324099645287135 0.009498426408738481 -0.7307802806569156 -0.42340104107044496
Ni 7.604465636979336 3.7574390263157107 8.152395971802505 0.6254568394270519 -0.372938513544519 0.23316074729152747
Ni 3.051144990118261 8.34287546477787 12.467571101264555 0.7398832713994483 0.6622177010961692 0.3140957323746978
Ni 0.17844941877010206 4.8200473184423664 10.531690184667259 -0.07564391188756005 -1.0611904339209208 -0.3167992473487899
Ni 8.718491772971129 2.282411122405598 5.58618314620894 1.405311251902799 0.10721988692162825 1.1735566409301788
Ni 3.927863569348466 2.9283738025578407 11.446235537769455 -0.7914336326729144 -0.45082237050619134 -0.28027081340545285
Ni 0.9717176156427717 2.993329325835551 12.611843309068476 -0.6699868035186267 1.4559301025009312 -0.7203611422061207
Ni 3.085993655504505 8.408491583374511 8.020202704158947 -0.07628411657472024 0.00013729690881266677 0.7781554275067695
Ni 5.642379899497727 7.833104011336348 3.398616318024762 -0.4645775153087547 0.8171094401724638 1.4136359697184107
Ni 3.082835466924968 8.194223419516943 3.5544507537601295 0.39068426756371427 0.886131732978448 0.29225009725451606
Ni 3.246436874745771 4.298421346263897 9.27166162409101 -0.1763463094056447 0.12558321992016436 0.1018686499120439
Ni 7.171069861507145 6.223387056372259 11.644823159590855 0.6895585550029673 -0.5707838733642041 -0.5016651641896714
Ni 0.5489212278015625 0.16557776422702386 0.20450945163930662 0.6114841792970437 0.42217102531808587 0.26154135531674955
Ni 4.45186949452527 0.47384411734272663 1.5677112370060498 0.1274722094127611 -1.2014749646070018 -0.3445694754835227
Ni 6.1322610993638245 5.768454063652792 0.4897165034989127 -0.49788358566005225 -0.2609489731483893 0.07224414217739171
Ni 8.174369362945294 8.604471211073783 11.434408166785342 -1.039402905732184 1.7123788737861219 0.6274646138857001
Ni 8.969382255400012 4.632275361349516 5.836742426053264 -0.25082422600956156 0.5891096682565855 0.3701043865298336
Ni 7.944961802258022 8.74480699471696 2.6775864815897226 -0.30865784918857814 0.7645008128378125 -0.18361893180765798
P 8.346802839687669 1.6638586233634396 3.620408934042461 0.6970787746394124 -0.1359851319797787 -1.326374013975948
P 1.8350071064717337 3.4062828434247168 1.362646161358767 -0.10356686355007323 -0.5986680013689819 0.6966311455790325
P 4.8377295547873995 1.3227109120167688 8.033143133009203 0.7161062235845086 -1.120749010210844 -0.5152408459915772
P 8.309655664561589 1.6432896759671962 12.330782623991517 -0.2106463682390953 -0.39482991430097164 0.09446104459406313
P 6.393078610078532 7.774401520461103 1.4076381321284033 -0.3900944564985153 0.5327487729683534 -0.5186251890827778
P 1.8760183117510014 3.2445817783022033 5.952962860855153 -2.509786207543968 -0.25298549532693854 -1.5333120801255204
P 6.652303452627054 4.0197044171814955 6.057567677145024 1.2143667329680052 -0.11657613132554762 0.9633283340651088
P 2.469486287175744 8.553225302976585 10.290229926647362 0.7619626197969909 0.1026464086183329 -1.5162067879038017
