# total energy = -381166.73981860996 ev
CRYSTAL
PRIMVEC
9.29895736998303 0.00000000000000 0.00000000000000

0.00000000000000 9.29895736998303 0.00000000000000

0.00000000000000 0.00000000000000 13.60996406398485

PRIMCOORD
 96 1
Ni 5.7339324712386395 2.385526659608004 5.785841111782747 -0.2573124048370665 -0.00372578559101939 -1.4261667551955697
Ni 1.9253863457453528 6.634564401771133 12.275860658416887 -2.0170993355935067 -3.996083866593163 1.6671824797551416
Ni 1.7173407696475198 2.7541466337775034 3.780222430850799 0.5094846602340903 -0.43593516898171375 -0.10043088902425283
Ni 6.347821748369586 1.2963955616380118 13.71190331427781 -0.9640878379389525 0.2230390854764933 -0.5898203211703649
Ni 7.447646647462025 3.486718505452617 13.599648159156109 -0.3730873804175575 -0.20477962504567312 -1.277492972004529
Ni 4.969260598281189 3.395170268886972 7.737645795779294 0.5806736216740903 0.22635272323075853 0.688194327665589
Ni 8.439231681280305 4.179193272397302 4.365844736979993 -0.8277556070324003 0.11398111690486176 -1.1631819825640741
Ni 3.7890276137054464 0.48884619565829784 7.620804394819687 -1.0320246109902418 0.17818541949691247 0.6293291778982646
Ni 2.932370453179956 8.59206004775632 5.085308798166236 -1.1231874444490078 -0.422833084382117 -0.6668590565229224
Ni 3.0435952838109035 3.6180941769812534 6.595770080986144 -0.6686565147429775 0.04478707440770351 0.49763084621929776
Ni 4.31982140663623 5.9662762232781725 1.5788234987605878 -1.3974699014815095 -0.5776888280141534 0.17710041396284984
Ni -0.20205797736501277 6.914900073456708 8.21359991676267 -0.732642530676635 0.4647654629498447 0.47430297012663475
Ni 8.089962837663686 8.224714030764016 6.362699150470284 -0.46748594720480136 -0.7868686390100513 0.43804475912554885
Ni 9.08424456915632 7.363323700872155 10.9163205258902 -0.0836618970960301 0.4157813197416581 0.24512434741130687
Ni 2.4931434947298126 6.652939141786746 3.1553473653319744 -0.8383495804981627 1.9017097683768924 -0.5969039674900236
Ni 5.569936056807791 8.243023678077144 1.15930196114399 1.2959030990806004 0.028302446489118997 -2.2200426787613896
Ni 5.0141373671654765 1.9153341726902526 9.518196229017974 0.5134721841269286 0.5245662371575611 0.18419254492294082
Ni 9.264858220635704 1.2643699520156573 3.0566482304505374 -0.8209630095905991 -0.31290145495628047 0.7940908677901034
Ni 1.196599149771836 8.701248406695253 7.67721745037572 0.5446594083630103 2.134749930930156 0.9812939174045938
Ni 2.188528245017533 0.7636024928452053 13.295043138297078 0.5010910368537563 0.9630398562904126 0.15388926595370916
Ni 6.42931781188013 1.0296177699841997 3.3425660663220302 -0.8452735613115056 1.3802643362365004 0.19116049160034174
Ni 6.567230650529707 5.349829732835337 7.5614779758796 -1.5100536238182123 0.844610730916526 0.011951515934921352
Ni 8.41905294351012 5.456749146144812 6.194303399247235 0.5457814377825955 0.8356352668907931 0.396370262204898
Ni 0.996029935502218 4.715994191871651 2.6943106319665375 0.28233489502333314 -0.27656431108814306 -1.6017255357029125
P 7.593658878092167 8.729015093783625 8.992988319856106 0.2894265117627919 -0.7747561720172335 -0.20768420028697782
Ni 3.5309815431420497 4.766450335254606 3.8197727568803566 -0.1284998793463271 0.20721343129814634 0.2602786865542421
P 4.279157065498437 0.46312341942793867 3.98237060810354 1.1314831087988966 0.052160226943323076 -2.4775116637809784
Ni 4.578174342797054 1.7707632804722662 11.938402420718198 1.5702655174214184 0.1305055969224462 0.14631711003340606
P 6.5819509002486924 3.5000811073769262 3.60918577569838 -1.258353937182233 -0.4489464936397171 -0.1508633346431918
P 2.6221293341815195 5.992536479251903 5.331920870590362 1.644983317950283 0.9696455345323881 0.5054503422637165
P 0.8874618170283864 8.57388058584816 4.011468905905593 0.38799052278163504 0.04675576809830012 0.689750102188483
Ni 0.6676205133446191 8.357214876149884 13.215751857609257 -0.3310483010686363 -0.08299752403915382 0.03456051158368887
Ni 8.621472650321797 1.1496859091955358 8.007721927657569 0.3487819709029735 -0.6143373324751226 -0.36579624607278294
Ni 7.325616428218657 6.243803609799419 9.651342422054189 -1.6391741674676736 2.035352882487056 -0.6252647780209039
Ni 4.120805118268741 6.728809336011133 12.710835203603294 0.7314495388097983 1.6012033446508553 0.039073054742061734
Ni 3.986769944895739 9.313742840201533 10.356461911404354 2.1568215660182144 1.8468015463747869 -3.1100053554501534
Ni 4.025593092448971 5.50634978543797 8.68698194610216 -0.1370156301268221 -0.2602552895154744 -0.5409241096902943
Ni 3.1171221407458503 3.5923825594998915 1.8140582966861802 -0.6639663083561597 -0.6618667455146537 -0.6504726447450991
Ni 3.4944645370482674 1.616577266201575 5.5379894883241665 -1.2653429669055565 0.11880142111164055 0.796513618298983
Ni 8.6985331111059 0.8264615857386991 10.616017202769642 0.175447194630143 -0.46355498758151137 -0.825845534493881
Ni 2.8275898000949704 3.1752871198944645 9.312781327996262 1.547185752783819 0.4583911839923847 -1.774454560070944
Ni 1.773562266679098 5.569220037080462 7.390877441833828 -0.05907418045433697 -1.1980476840930077 0.2064557271965154
Ni 5.5412115770971475 9.128963255763145 5.755858483122656 -1.0726804368383913 -1.7152937334400715 -1.4420638860418005
Ni 8.250481441990365 3.4598817141140232 2.114294667312755 -0.2962895574312123 -0.5853082922326243 0.13395576025457573
Ni 4.12763985202961 0.7385817879059287 1.4275629365186984 1.472519117207864 2.232665252621407 0.21279992424698835
Ni 3.55024898307745 4.716449840789044 10.959818259377567 -1.9255217831948257 0.4467849672120241 0.5194703106918924
Ni 5.087143482480548 4.690840511840157 5.581622986591001 0.11753618124597176 0.3214087210963432 1.0031539507024787
Ni 1.7289458686047492 0.6513240903297596 9.864189049908124 -0.7032496793368147 -0.12045386911339899 -1.741617716046581
Ni 7.342819499589551 3.076932046440445 7.308782525460426 -0.12743312864470957 -0.47983778390193493 -0.22870142596859322
Ni 0.6854856704893542 2.6327952384314735 9.452868262908819 -1.9645714408981199 1.3788947095824833 0.8950593744853811
Ni 4.902084929317226 7.602325506480098 3.122507167032815 -2.0021386005186166 2.5273712676155826 1.3314434580790555
Ni 7.786193793083704 8.944248764027241 12.381256902488227 0.6888453309860266 0.2678906945735451 1.541246761591565
Ni 8.180032539987183 5.020200287454029 11.2371754749766 0.9202808680563312 -1.2717902651927968 0.8055996397606513
Ni 2.219828535955061 0.8006560487866096 2.63218057734087 0.022428247096529113 -1.0774655169318603 0.6085528645828616
Ni 0.03713631666313445 2.8574115567903506 11.96436975953075 0.015992775883830523 -0.2331386358043404 0.427697868673586
Ni 7.897753386184571 0.2231628913019744 1.3749875607219995 -0.44356286073030055 0.29503305931629187 -0.3330396204670522
P 2.816812308355043 8.198918722665175 8.966312400482225 0.2755854921146415 -1.7274126281907927 -0.299240155419104
Ni 6.097986657276729 0.773883420254751 7.660586264890941 1.6311906350415648 0.8396096781575089 1.782902176617665
P 7.139460598070598 3.456561986287316 9.425118313943944 -0.6783338899317414 -1.0957913118242417 0.8634260638508163
Ni 7.35199757063986 8.321200013760983 3.0108508647739702 0.011892123451895649 -2.94005852181295 2.1243863283076445
P 1.4672825035747161 6.331185913406058 0.9743968407793826 0.13162274124602494 0.4811099657461391 0.07209193287024358
P 1.4606802437512922 1.9492846665146477 7.578939558268932 0.7589384882586866 -0.1335713803319635 -0.9756169216244746
P 3.4020793943078225 2.7910355981711965 13.306652886733056 0.5415200914030802 -0.5997267816507995 1.7238020280213988
Ni 0.9941515460876665 2.5191805757235963 1.08268878021553 0.18169986040807418 -0.08815592831164172 0.6502497301010156
Ni 6.314596573230018 9.222250397380876 10.704944993112411 -0.3599865813695413 -0.46926386504083056 -0.7380297631304774
Ni 9.378463584386083 6.441397157669747 3.8372073722929443 0.2025929018069995 1.119043597483963 1.890023847398532
Ni 6.480582964565391 6.802652357501005 12.187518702396478 1.0504535071193908 -0.04645469191811354 -0.3875812031583583
Ni 1.2683685037397026 4.407901132055203 5.208696665204279 -0.2888696108180574 1.1828352380186276 0.2692423235054331
Ni 0.5253018286325949 0.5812322682944925 5.633558594111851 1.7512259285603067 -1.1064199951826816 0.11646634522056071
Ni 5.405725766354492 3.745062142655942 1.6553939044845583 1.841842659707615 0.03346085076160689 0.3479337639700653
Ni 8.644822332598723 4.589193607431922 8.556190249104382 1.8227961845991254 0.39390637404543777 -0.0451691403374706
Ni 3.0089473681741747 8.214503775431453 0.8644775837811235 -1.2324356746545742 -2.170944378572842 0.07459901556281347
Ni 7.60537556453937 1.0216857592385933 5.6826096650168925 -0.5815372552259662 0.7353969534933206 -0.9630398562904126
Ni -0.0821200235586455 2.670344428807509 5.87660544623133 0.4870898374786579 0.8360646411187279 1.425587485653332
Ni 6.045187176604334 6.08797168005162 3.984929681206929 1.3879313658634547 -1.6123488197447138 0.7431395735532169
Ni 2.379184770594518 8.358219163559644 11.269962669218025 -1.6053793304054158 0.3024301231113114 0.9629480679075546
Ni 3.643740701760131 7.398817821641182 6.911466898348527 -0.8487648622942155 -1.2429131771471302 -0.015125285677212663
Ni 0.36751525801876317 8.150424659314252 2.074634613584723 1.1475378482689138 -0.6982033751621588 -1.0311820604842887
Ni 2.4340300219164246 2.1500119630617283 11.357705772375576 -1.104757262768278 1.4557331559987767 0.377001370759983
Ni 4.4140105471312445 2.7162812788465427 3.631383317141331 0.9197404221718289 -1.0318713732418294 -0.3240451302779258
Ni 4.851461404699312 4.586124951457656 12.951894868505498 0.7921982787530808 -1.4644713072027231 0.4687267615904379
Ni 5.360514235000285 7.727489474400219 8.315565775413077 1.6865166613073792 0.443643593369565 -0.08673179427060546
Ni 1.6642809181651865 6.122098854068472 9.577005625921183 0.4846190073406621 0.37258755796300347 1.2451610926410428
Ni 1.9753310464659297 4.250711554512729 13.356505527774406 -0.09978965589582814 1.6417005334339532 -0.9845864721129366
Ni 4.9517692592278655 6.885254996953785 10.392568833472485 -0.762664530960022 0.008426019280166133 0.6683011882860878
Ni 6.812202386851225 2.179657039564651 11.308069797043927 0.9431372038292144 1.4196883465600778 -0.06988746901975706
Ni 0.9909899005384212 7.222258515630831 6.110125516394331 -0.48495376497226156 0.17876880280420823 -2.715678863148162
Ni 8.020053275195375 7.324388965828951 0.6024943346131667 -1.163491800495009 -0.8513778744370306 -0.5149423409145519
P 4.55988329339892 8.94178454029033 12.285021061447951 0.5190525064281835 -1.5975449219626616 2.460774039311323
Ni 7.760751845369778 5.867400408204277 2.441028417329254 -0.6342420418188496 -1.1623566584493012 -1.460008900555995
P 6.096238453267147 6.066240016379307 0.5547042023448255 1.3746554746901551 -0.44969931264534163 0.0746568653839424
Ni 5.797230474926028 4.596084134937778 10.603550090452368 0.2563603253364424 -0.10469172118313583 -0.03174181118797114
P 8.740062255290987 1.474684473742949 13.702239837646118 0.03053879201880547 1.5504446260407492 -2.4019947643895856
P 1.1527359672548076 4.71684039700395 11.218788646316243 -0.09776182683252195 -0.4062900924217713 0.21407956229036032
P 6.3006016421958595 6.982782463190501 5.993243200021735 -0.18629313620571142 -0.8135834292970763 0.43767683426316883
Ni 9.143320846139718 5.1773898649965036 -0.14268692342893638 -0.11928144607185262 0.6070824506849222 0.4810590579035457
