# total energy = -340888.590745028 ev
CRYSTAL
PRIMVEC
9.11066405334782 0.00000000000000 0.00000000000000

0.00000000000000 9.11066405334782 0.00000000000000

0.00000000000000 0.00000000000000 13.33437776211026

PRIMCOORD
 96 1
Ni 6.884455087680151 2.233433744904176 11.179155625245638 -1.0120545956262184 -0.0824863887306902 0.03646724168809849
Ni 4.767993158847381 0.4505168721583738 5.991176340624871 -0.12507388438391362 -0.12871739467377186 0.06521268925190704
Ni 2.6744809928219846 1.8306239541132223 5.003711548352192 0.8275548038755038 -1.0862887716504452 -0.7462945742424307
Ni 3.359657595319541 4.523262500438619 4.532768567335489 0.29702926381071426 0.4794202367485421 -0.24011378157059296
Ni 3.8039482396483955 2.7888016056472824 2.6223124192565606 -0.48649719819998155 -1.0612680812363917 0.7678352765276841
Ni 5.317211321339205 4.424539344511386 3.067533262387572 0.4819671715401119 1.7940121704878977 -0.9117278362799974
Ni 5.430383990490931 4.583465768652642 11.42368129371269 -0.3986269194495586 0.2384420502951248 -0.026673138415812127
Ni 6.041235795456707 8.11933271786556 12.26816059077784 -0.3035182139691676 0.056835263821489214 0.23991092153116747
Ni 1.885196831928295 7.077819822028583 0.19046663210586476 -0.6095584230292406 -1.8418560294440538 0.056900826952102
Ni 2.9922245131355867 2.0508651474857715 0.3837712360713948 -0.9370683719273152 -1.2549490252657418 -0.9300975970364368
Ni 8.127468540885403 -0.09719985289373095 7.027497069004951 -1.4486955324257051 -0.20271605764842507 -0.737802991831652
Ni 8.850481731290472 2.763009315648205 1.3207101075115486 -0.10423612170295597 -0.8320069261095865 -0.05578471106978779
Ni 6.9812285614951275 0.9399289913898877 4.855340739609356 0.1255140572451258 -0.47466189612795034 -0.8741262238771398
Ni 1.1438620960664467 7.800286372589094 2.5593467976947024 -1.5683449033599377 0.05322723475525672 -0.49302240091300903
Ni 7.780780440802436 3.921466695564359 3.4535502771536937 1.1567722223829884 1.2030363955568506 0.46479554485683183
Ni 7.6401937834461116 4.0854039849474 12.669446167468884 0.6872342777451648 0.2115038311433841 -0.021911969581742907
Ni 8.725428756183678 7.144737649666599 8.900457368012809 -1.7975245545165301 -0.2882435471982842 1.0645742627914891
Ni 7.081546083635656 0.7045741173817086 0.38287383565991157 0.266588945042986 0.759941218491588 -0.09772480294699944
Ni 1.8263510526615914 6.474721192191459 8.979676414286201 1.7765191559094564 0.5582435748053483 -0.1619113649272373
Ni 0.14333898897367636 5.128401919028761 1.108910855471795 0.20952999524646493 0.23136277485084028 -0.008964665392455528
Ni 6.499356427852888 2.0532976947940558 6.957865174538704 -0.018800934756586975 -0.027717006299294203 0.07047882274685281
Ni 3.996629674191129 4.263699680914175 0.7708414436046991 -0.11327843441088234 1.852958052894486 -0.6961884016146591
Ni 6.552990907268135 5.993951448902412 4.391104118418976 -0.34908664662758593 -0.30989172159567924 1.6645995495193138
Ni 5.495087926758486 3.226149923950246 9.241964233435768 0.1352384836217413 -1.261765276856627 0.5088758230054978
P 0.17966958410943024 5.961043730260002 12.418652362117562 0.7900190117135749 -1.4425639656066704 0.4740731135040158
P 3.8039482396483955 6.182988617814757 12.62068224906865 0.8397284631235602 -1.0066272539630599 0.523824216785214
P 2.483448588477002 8.969248348184843 1.1580628881616644 0.5154012828288413 0.15420319764970217 0.5075583897456549
P 6.516921788191362 7.957791533134499 5.7539975116686835 -0.1789588073278273 0.25728746513640205 -0.15633412794977594
P 4.81185189570911 1.0502500226858338 12.2951500220365 0.7382254240810512 0.6102137972250523 -0.5098194178656897
P 4.358860567187703 6.2033145093682505 8.104208104433038 -0.5395809653988384 1.282619751708133 0.3749833118886897
P 4.7215743253803035 1.0721976124448505 3.7391859951307556 0.5289569100260889 0.18717990968603893 -0.501428365588517
P 0.06691691657160734 5.908493419869795 3.284644031583617 0.5382589041533051 0.18331914117905201 0.2421531805981249
Ni 0.7403981595948383 0.21743237563792692 4.5116464037417545 0.03123196143108815 -0.2344337004666801 0.30970660216806656
Ni 1.866957282448199 6.7270683657677335 4.810750416422326 0.6969013685212837 -0.20568208225528448 -0.6621341402434273
Ni 6.262132956642726 5.6720899084264715 9.074350791098071 0.30796108023186963 1.928622019386704 1.6059665703674535
Ni -0.06199898010339761 2.3590515811836794 9.972714199774153 -0.16892944811628327 -0.3161677844123781 0.5054004628623876
Ni 2.978440078388641 5.061602530023733 6.881126051026792 -0.9173323269509687 0.6346055958058554 0.25888669130272185
Ni 0.4934818528742506 0.12960830714477883 8.965955754187787 0.001044639214430459 -0.22370577252621474 1.6478197589578136
Ni 1.6423611916473353 1.2062701449868556 11.552611767450214 -0.06943444064273847 -0.385517121540478 -0.3480612906868651
Ni 4.121491325352326 7.104113198551838 1.3606667469495393 0.06794422925045718 0.5304172966216995 0.4797441957468641
Ni 5.856371310691158 7.921695082065497 8.012747969907169 -0.3999615791005821 -0.21847794846837212 -0.3828094928013278
Ni 5.132720373800772 2.848585783313811 4.812510596721803 -0.13751288147821478 -0.2633172162702497 1.0747365480364717
Ni 0.8057744628711988 7.670477630834643 6.75894293510393 1.0726171877006236 -2.18373690235182 0.41291891059219854
Ni 5.426293302320819 4.529266428064685 7.3469752597586195 -1.3482870119989552 -0.4889145493922225 -3.341335477290846
Ni 0.8501780174446716 7.576355360265776 11.147446869995623 -0.39089047003724936 0.38374845967582943 -0.1790894193684206
Ni 5.013097354483258 -0.21591545006927756 10.482901366298105 -1.668838527301326 1.558456183491316 -2.4767213066691993
Ni 8.443900125572066 7.474889894451675 4.78346762178042 -0.2268306913084416 0.3070624796770002 -0.6444351803017675
Ni 7.474051713356684 6.371132941647656 6.978333192451783 -0.13513281128181243 -0.38400119911658387 -1.0682797366675345
Ni 2.1963715634431216 5.6505067452304925 2.4274170933433656 0.6118749869775592 -0.8562213185722609 -0.1131442228258632
Ni 2.0976028541955083 5.375237140839072 11.367490361957724 0.4913614682708182 0.4677314875567042 0.1368816756521191
Ni 1.1939251951639134 3.4806654355766025 3.6193898731957987 -0.3665611492632655 0.7825607556633167 -0.12259379827453726
Ni 1.6426254009055385 1.3834178972800568 2.5760548445436275 -0.3689813286689839 -0.10271274307989407 -1.0537422051729917
Ni 1.257371859788983 3.15491364154022 7.9240611215260275 -0.38628305317222505 0.7052368849701726 -0.2973794480612814
Ni 3.7423510398307482 2.6990888964911854 7.263075154282992 -0.1736618205949461 0.009045398031719904 -0.5078527810576221
Ni 4.389973485007148 6.866015103590384 5.729808698546977 0.28976358338723646 0.418130536700125 0.13869867425619983
Ni 0.5569157625696138 -0.04406099360421618 0.23912395573640882 -0.753001039728329 1.3182274736094135 -0.13829475394956184
P 0.3289924572482051 5.487061431707554 7.657732722858766 0.2847527604362064 0.33652603635375594 -0.5849411387011927
P 8.532346452421601 1.7875760663542541 7.923287626145977 -0.0706127772215558 0.6472945041274336 -0.5935630760422488
P 1.981469219219092 3.311270858412053 10.230254451873732 -0.29197884587100037 -1.060313430632606 0.6029049222684649
P 4.082087703223747 6.44244210937029 3.5388506916977978 -0.2823210110662622 -0.9233350815016228 -0.010401140728665957
P 7.3434776758198534 4.131695269117415 10.12220653126474 -0.19085607298604548 -0.866860800563978 0.8060832642652892
P 6.989801696390617 7.944052651707933 10.078349616535826 -0.12829779063785 -2.3354263324407327 0.9670345792721022
P 2.695244196251125 8.585452513320442 5.745636655246163 -0.8742699485438556 0.07000625398580847 -0.767899039886084
P 6.835120841708763 4.111451373540605 1.378561002261156 -0.29356881606593954 1.3024900082694988 -0.3202928623243452
Ni 5.620213787177885 2.7201436411707567 13.316109259718084 0.3093124520534415 0.8931372177620037 0.051154925607260295
Ni 1.363082895062487 0.7596116390646559 6.905447879844006 1.0633745860564332 1.6576951090899967 -0.1381805969692007
Ni 6.870907530199181 0.6109256013447915 9.127754770712198 0.9051740943218798 3.1690425120189682 -0.33865490977130064
Ni 2.5419481625088185 1.354937961378568 9.068430681581505 1.3825587886976318 0.40016572469158823 0.2575142364352275
Ni 6.493343389562746 2.290949367215788 2.4604195628921675 -0.845292330364583 -2.0249869658716997 -0.12490984800222357
Ni 3.948425150565161 6.704264373585576 10.519211006906486 0.15955957686560907 0.5064623284679988 -0.7122007178825154
Ni 7.936144595289989 7.442966127529468 0.005238631843683947 2.4980318952215175 0.4023141384931587 0.07776250089245963
Ni 7.5834981209013375 4.0307764431478725 7.719898428114754 2.7304673343112458 -0.470984447276363 0.26427803752162227
Ni 3.483280196166406 8.484387916725684 12.537742407586633 -0.10685041939735147 0.2999106991235674 -0.9459206801116224
Ni 0.35226018223183014 4.708172538524549 9.76653804960209 -0.9829841606228231 0.9342293598166233 0.16904694753075403
Ni 9.163232607690441 2.3227091421846264 5.534620009250536 -1.1354492925354962 0.7317308174956431 0.49952112126347514
Ni 3.6397376303430744 2.9184281341202127 11.622617199143576 0.2513312475529671 0.11281383606963796 -0.6879153629725894
Ni 1.1869646478098708 3.477513145806316 12.402691389722866 -0.957308353123274 -0.40732804676798234 0.9675873664517788
Ni 3.4404145216889574 8.26114931487214 7.697389621448657 -0.5719742941278795 0.05813572780046763 1.7135191580381521
Ni 5.601063171290193 8.149898995840447 3.664940460376436 -0.45341815625782556 -0.14423708757592577 -0.46474052324918025
Ni 3.022143933961079 8.776922229541073 3.5009539734073845 1.3910298022831205 -0.5550854887923408 0.2799517395031372
Ni 3.485858514099906 4.544617897032698 9.34722520190392 0.44910898735951044 -0.11132336756704053 0.03130626631244931
Ni 7.481968880438704 6.0889027899021935 11.242027406967512 0.13041997918717538 0.6502795548976865 -0.6499987904324741
Ni 7.795539716605512 8.932842134537259 2.607043857331639 0.5734701619471155 -0.127981802059328 0.2865113949985259
Ni 4.708983387627311 0.8311330852602595 1.2077478946999782 0.4885630795900748 -2.130628966783247 1.1685617588187487
Ni 6.109939313253613 6.06004931677359 0.09706683719822176 -1.7754979137337938 -2.18530887482463 0.34342610590769884
Ni 8.231676316586372 0.19327271664126416 11.39725307936111 0.3056727984183252 -0.8236652390131105 -0.48295190405088434
Ni -0.02279852578371254 5.112804462130697 5.348365237146992 -0.15480380734817856 -0.7726044157815534 0.8793345075509567
Ni 7.296184218601482 6.3870310504602275 2.1964389823572836 0.650954469477524 -1.2121239596804156 0.5895498411177975
P 8.590463378562228 1.750368114267984 3.328940991387401 0.10384042892643407 -0.1519280284622803 0.7434586474555325
P 1.9769229978451819 3.4371073506293794 1.5269600540626274 -0.8806794516146252 1.891469835816439 -0.15638734978521454
P 4.881830906476653 1.2428312399237316 8.367561871279495 -0.35926384427090385 -0.9015604088286925 -0.13498214463656108
P 8.590581817195215 1.9340299913755055 12.547982794008023 1.0437583544874025 0.2433772828132131 0.24625280458879523
P 6.232887724958856 7.985141746690568 1.322206078552823 -0.6021582739104275 0.8413117484502801 -0.10997019597325577
P 1.8643151898661672 3.5819213561169554 5.798320892398286 -0.4709700490986598 0.07571513144512768 0.18644508840254342
P 6.820115577975637 3.9735250300944642 5.492310085281721 0.5044617530982022 0.633624977060141 0.9110853175999922
P 2.505942818080577 8.634276562103578 10.218987293610978 0.22001675371040172 -0.6450527592811084 0.054416884187983704
