# total energy = -340862.4209085812 ev
CRYSTAL
PRIMVEC
9.33497120426617 0.00000000000000 0.00000000000000

0.00000000000000 9.33497120426617 0.00000000000000

0.00000000000000 0.00000000000000 13.66267395079307

PRIMCOORD
 96 1
Ni 5.745385378335438 8.378668729087282 9.196441143029913 0.489185543665422 -3.582992692089158 -1.6942166010547983
Ni 0.30549533340081747 3.706244938396186 3.2998777733982982 -0.3943858847850175 -0.744931375346317 0.1962908708483716
Ni 8.517423740734625 8.01454884316719 2.8483256138916793 0.06763312576794159 -0.39897890347233866 0.609379474249215
Ni 1.5385246053978323 7.427621865078186 3.1982274052046606 0.918542802319302 -0.501794233568368 0.7796736639235089
Ni 0.7038120192514586 8.332236582428653 7.841240435690152 0.7524130284353429 2.4640830490798984 -0.21090887787186258
Ni 5.00448738557264 2.7631327998916806 8.62643473370517 -1.7528549795232973 -1.642619445703797 -1.4131777991350694
Ni 3.669418477083702 1.0769102804542732 2.5397273360700074 -0.049324557266740864 -1.508475480697815 -1.1746249342936932
Ni 2.4252628529350138 1.4109622241975546 11.212560610537551 -0.501148115343937 -0.30579518292880237 -0.05395742805306191
Ni 1.0264454262450744 0.4327543280376844 3.5566398897441545 -0.40251519876037123 0.52200876084303 -1.5527743026151901
Ni 3.7558883151413798 7.953442121810659 12.92984898057111 -0.9934624344463278 0.3833967327633655 -1.1796799802190974
Ni 4.788756201559582 3.3429278599977366 2.7169181580615884 -0.37544971000214694 2.3387808507352625 1.6232510684795138
Ni 6.7309623007462775 1.2801606079971675 13.55897376239065 -0.6199397662635646 -0.9716857048908686 -0.7931968952209243
Ni 7.090218666680613 8.57110916000157 11.312229164349278 0.7780921783690018 1.3361431775475696 0.19192436634955978
Ni 5.074770383600951 0.91575600545603 9.795468110764862 -1.063546335747607 0.965048402080009 0.6784053665996251
Ni 0.532576908873912 4.257895060388899 6.258570751573247 0.09620605230962785 -0.9390380940591765 -0.5290453559748372
Ni 2.76716550744225 3.2035474052812094 7.7641699801155 -0.5899455338943195 0.49178132941705627 1.0621291436851064
Ni 7.404452466604781 6.339089545502483 1.4991777018662429 1.9509237682076983 -0.3322603190988665 -1.1307359462202267
Ni 4.000557909818239 1.539056698755199 6.626929647907025 0.8140493131899013 0.37039646384895564 0.5676862082754868
Ni 2.7151417130456776 2.7416250262886486 3.678360445978817 -0.7211643548337064 1.4316123516911732 0.3418855008934564
Ni 8.7998812987557 4.121707165816571 8.338138151209831 1.0965909249074015 -0.009881520779770078 0.8997729779109666
Ni 8.388339759231702 3.935773209816049 10.661202673142832 0.3031253494061231 0.48103771774730697 0.9728604419252599
Ni 8.901847188975285 1.754041085073706 6.908844844102435 1.8617049458491808 0.21488148936636542 -0.9959921428467169
Ni 0.6333833956727088 2.4448009476186714 12.803401194929949 -1.2669414217409278 -0.7376243001619425 -0.6534746647962165
Ni 5.318562490986714 3.230917540786457 13.293549726285134 0.23833560662424763 0.2767396603237428 -0.024133402713093922
P 4.67299322393319 -0.06755345245473326 0.7032360515295372 -0.15942587950122222 1.4339908792256788 0.1999436371096105
P 3.6226782763760697 8.506464484567108 10.537842895968632 0.5561226718076036 0.48778274978062436 0.7637132839395104
P 9.017544821803405 5.801040476521757 11.728886268080942 -0.4043825909864132 -0.34839990497320644 -0.37843398944145146
P 1.7517540171341472 1.1697372338868062 7.638322433121332 -0.823959887435394 0.21677382129307182 0.3261521493185996
P 3.094552281761674 3.533865360551742 1.421846800595617 0.6824162875312312 -0.711342226536962 -0.9135597472824136
P 7.932522451392084 8.216305575320986 9.339517312837343 1.285840829748592 -0.46970480923299107 -0.3910581059633652
P 9.37511155795382 2.017053898122943 4.647549826479881 -0.8581028518656898 -0.6188136230789214 0.2575815993380532
P 1.5663054796350828 4.818338725234933 8.60007930956739 -0.4538547295746119 0.34904319498416014 0.06881814721497825
Ni 0.2881705603843816 6.332853784752992 7.068521393162587 -1.1923825153874303 -1.1933883309441253 -0.6553978499608584
Ni 7.295494682969973 2.2402343891391334 8.53277696783745 -0.9082607036670034 1.053191217765528 -0.38551429332700055
Ni 8.322938951131508 5.618644474599164 4.4038081279384995 1.1865044593400986 1.0501691431097528 1.3185856282797808
Ni 5.333377090252345 6.140441358752251 -0.0013367678732440378 -0.5679170933393703 0.0003360431831800664 1.6346780793695332
Ni 3.9146201651179275 7.344998035147439 7.188971459819398 -0.32232274827018037 0.8521702884313387 -0.329764035039574
Ni 3.665684488610953 5.919669290300984 5.540897233613827 0.05361907087703669 0.3766938668218932 -2.012815363506172
Ni 8.742265856621188 3.63938787479162 1.0373878794644644 -1.3465291487675841 0.07943217528539867 0.03850946892910787
Ni 4.583685554636223 0.862796846947035 11.966685323967942 0.26282613556644413 -0.6232469762599266 2.6829757164881856
Ni 3.667672837472692 4.642075799378831 9.670344957534407 -1.3340184178950831 -0.6340389246691079 -1.059697137204846
Ni 3.2378254194610423 5.337400462831733 2.4678200530560495 0.17952599268520694 0.16512241566536723 0.7428264131881723
Ni 1.197994191654332 4.626719771784652 13.708854192692545 0.07677288328568069 -0.037994219855586174 1.0852608446065632
Ni 6.071409246862309 4.347884182582142 9.502252931953796 0.9443453652047027 1.4207913498162692 0.7140287722301896
Ni 6.759051229032529 1.5842566292178222 5.966230259561923 -0.8242583925124192 0.27448146041718535 -0.8947379865902204
Ni 1.651907165372847 5.211639731069556 4.3656617017008985 0.39131521627949384 0.9258146533903667 0.5877405558232006
Ni 6.469797811991051 6.774117872520071 7.016070057085887 -0.9219222603144961 -1.09967856269379 0.15476369813886248
Ni 5.339202112269834 7.051562551016481 11.464636571350107 -0.32763824694582283 0.1420796749132908 -1.2478764346896767
Ni 6.194565521664744 6.410586089784438 3.8626430455772653 -1.294060646555223 1.222825662368636 0.05194682538093634
Ni 4.336532857624986 4.947842780441041 11.722013862296848 -0.013543543012389579 0.02275014921232211 2.2148508501478053
Ni 3.8216438521464844 7.362949184730179 1.5552631422240468 1.5547563660422257 1.1111703653834735 1.342278086800714
Ni 6.189328602831714 8.198111716487519 2.0267893395685173 -0.7149322578810655 1.4041984784545947 -0.5547666720003414
Ni 1.738162299093342 7.227237373688126 0.8430701858455035 0.07737092188099579 -2.8792622164611834 -1.6828795787754243
Ni 0.1739039786384438 6.601439575597808 9.413828350930633 -0.7306162442752255 -0.5621267119098384 0.9280489420375243
Ni 7.220030775935721 4.088708042688655 3.03446587275532 1.0729455175743199 -2.0729395824915784 0.23196492721121342
Ni 7.257902754020575 0.3467689749843453 3.9882161444186863 -0.43119328342135416 -0.5905091197072733 0.5022302926645221
P 5.850021070313038 5.161212216745084 2.140148562115577 -3.8037884900574297 0.8389519899688519 -1.933296284933922
P -0.037408963514232944 0.7596818217749612 11.497304303001068 1.2823379588016561 -0.0015465185515134655 -1.3149259200400063
P 7.225893137837937 8.003850966192767 13.363242754134752 -1.571640543392074 -1.6633368807568063 1.3607926006651339
P 2.926569475343892 5.833666200802399 13.442527464873745 3.102856145999882 0.04333234423904795 -0.262637930815038
P 5.250603900782688 1.366975839988575 4.209333606803684 0.15499869696780402 0.8353863841047805 -1.305045427701501
P 0.6569299269818623 8.697271295524565 1.3908873686709393 -1.5585112050989673 4.192887672522211 2.2721381139050485
P 1.626413359075155 7.276470011701318 5.734128336587218 0.8231322493277761 -0.14799835439057094 -0.39190425601374446
P 7.5549415370277355 7.5013401325014275 5.307060872993531 0.21413098435358607 1.1251196284747138 -0.36451326559530123
Ni 3.2215919045757673 -0.16596551914538005 8.400562970497244 0.6205275204462345 0.5581080776687485 0.0686692803419398
Ni 4.657366482174737 4.652306927794163 7.418244886525996 1.060934609156373 0.93806158907852 -1.4435895786577073
Ni 7.7714288537065235 3.4974029631153507 5.278327831695729 2.1175662200620176 -0.523048514961454 0.9897744440717793
Ni 9.084868633967064 1.0913888207573563 9.174075485575267 0.9255901960843865 -0.71693694701592 1.4564366098237047
Ni 0.5522391586742885 7.758882652438087 11.464992233752136 -1.4036017254108601 -0.5548227220492574 2.749547233760832
Ni 1.2108951218276789 3.0742207145275575 9.994573711103005 0.23163813999941396 0.3238780085724422 -0.34712463780520864
Ni 5.082443729912451 9.11776507241198 5.567007148009523 1.2191610690328551 -2.524246605943672 0.4472912174244813
Ni 7.582218322821165 8.872208655472843 7.3138070959374515 0.4139386101059645 0.13921315199877315 -0.21106417250280424
Ni 7.271158413098834 6.087063993534308 10.091551926220117 0.28355076970830523 2.0455609333683094 0.31486114978581264
Ni 1.9218745319525787 2.413099385485035 5.801936633755218 -1.572902183713317 -1.1040661502385243 -0.5935800453231133
Ni 2.910307955545071 2.940749296569155 12.914178364448102 0.7940461305950971 0.7437756644753191 0.1299774923331181
Ni 6.955272323275475 5.223887213260171 12.353024308295124 0.7573261494662441 -0.4799933356431927 -0.010417852899214316
Ni 5.758855741750879 4.364948509902604 5.115769577031733 -1.5591038443776437 0.1558080802429768 0.257491353617092
Ni 1.4674014599631513 8.927060946137521 9.966729359061716 0.8522587343800869 1.050917334129687 -0.557301522607053
Ni 2.9415707740331594 0.3864528709756004 4.804902901212866 0.2996173362528647 -1.051561395471589 -0.4050636762138379
Ni -0.06253403845024082 8.849776719722804 5.542181725648454 0.25665188843493214 -0.18912880588229364 -0.7007441393061415
Ni 2.1304457930691396 0.624417155852521 0.2915572879291647 0.611532773146792 -1.076258898218269 -0.623849642840932
Ni 6.652296498596644 2.4192511314938887 10.795712139896658 -0.0934472586175681 -0.8940743848642925 1.9067283046374066
Ni 1.850658036806079 5.5438806904035545 11.681736262138427 -0.11633779006249641 -0.08939751402822668 -2.447988714621197
Ni 8.708753310078269 0.10483732735512913 13.525910227961576 1.5677828602088806 0.4376508661212399 -0.4938035020534077
Ni 8.467668344335248 1.6490786691047399 2.452299729969069 -0.01406470562318223 -0.05069521236202237 -0.3834445552821655
Ni 5.861344390356649 1.7768744245845642 1.9212724263113479 2.130891476416014 -2.9936081729046315 -0.07332760504955758
Ni 1.4427104611871004 2.370802631059974 1.569294537407518 -1.2171208986743747 -0.5423526146067047 0.29025826363546786
Ni 2.4340844007018827 6.739643823945419 9.27826683292461 1.4778323018906612 0.5318614852673936 0.08619906169558703
P 5.887669009089527 0.825617523723876 7.69339689610014 -2.017652122773183 -0.5019677830317548 0.8935503940400223
P 3.8556698221044075 7.777113851156283 3.772769677026677 0.16312595406062874 -0.20138782575530478 0.5116680410386543
P 4.513990659792369 2.8328090247931716 10.95600293006058 -1.0592513079166788 0.4780693791476025 0.19380461409140814
P 7.537550485715908 3.168074514790096 12.910052307185714 0.5213796118994632 0.3094947432675767 -0.5776808575943534
P 0.09181504255641801 5.727648933089882 2.566806220474381 0.3265812664362182 0.6126218924459126 -1.204053009746823
P 7.0501529703680195 4.575405435197903 7.414090824350063 -1.4655779100033406 0.02903392533850484 -1.6104960828066912
P 4.833218669298838 6.347192300488348 8.744576261988701 0.2916795694630267 -0.36522160451623553 1.8942013758149896
P 3.6585992454839125 3.7427353407461226 5.60576781535089 -0.37923411674524365 -0.06528725124358434 -0.42527434683375787
