# total energy = -340887.1404662968 ev
CRYSTAL
PRIMVEC
9.13374719530558 0.00000000000000 0.00000000000000
0.00000000000000 9.13374719530558 0.00000000000000
0.00000000000000 0.00000000000000 13.36816227364780
PRIMCOORD
 96 1
Ni 6.629027190033288 2.352506225940279 11.264561966213005 0.050081490037423425 -1.0142878558321111 0.6305427385903916
Ni 4.856842733497431 0.24730260217614092 6.149715532185206 -1.5926924789663668 0.04331434651691895 -1.4118058584882074
Ni 2.612945896879552 1.619769615090825 4.757595435172885 1.5538857905118142 -0.022493038896193522 0.3319535864917251
Ni 3.668679214028561 4.728687124920979 4.765602991443925 0.2911787185672082 -2.2698562598494068 1.512986481194291
Ni 4.157060682960417 2.8409972998399144 2.5424242338606096 -1.85469714707278 0.10355297959300232 0.43026074430475575
Ni 5.562242038633157 4.821449462651893 2.786981231593868 -0.494908047971496 -0.38609561975176737 0.921738169328148
Ni 5.45673812339785 4.69193292572551 11.475952500696117 -0.3741659581937169 -0.5281881501808645 -0.4611165533433477
Ni 5.468082237563052 8.214042896590623 12.401938197111674 0.12814069623469546 -1.647390898950511 -0.38525229791486554
Ni 2.1123252065456257 6.439145717102218 0.17641924276352522 0.04325598247515776 0.22059576614232332 0.16267883922088114
Ni 2.719098308174223 1.7361518233782705 0.14033089374731691 0.6735187279312852 -0.5236334409306467 0.8032375672863779
Ni 8.075566153548246 -0.24131086393751555 6.898413366467582 1.2565395096813134 0.3931628110111939 0.5182742335012623
Ni 8.746248085139742 2.3857165311775375 1.3183879218121646 -0.6938273575816502 0.41638912852898613 -0.7857934036680015
Ni 6.827567455418959 0.8506386746901115 4.7067031085085596 0.09466981817075953 -0.9171613485907429 -0.20242218055709008
Ni 0.8696861913407659 7.478109474180927 2.0591914582902064 0.32835018541118294 -0.13078610427734252 0.7126324061032953
Ni 7.89262632857656 3.8078409881195605 3.683116015034615 -0.36147422165866133 0.4763233429907732 0.4370667114829957
Ni 7.926338989916142 3.9403259929233116 12.524805365992753 0.2230442276828159 0.27863379202266203 0.49049629205704554
Ni 8.383601781745869 7.599670517195966 9.126390994890187 -0.8189943159000025 -1.4084569966206324 0.2564426006376035
Ni 6.960847096239112 0.7077822998102031 -0.05903871589455266 0.46475929230225765 1.1769684948252053 -0.1130532057739537
Ni 1.9080032791095753 6.75743854353456 9.299789707416648 0.1434698703925981 -0.27112951322581696 -0.9583272813060916
Ni 0.06842455463542371 4.8373239154853245 1.500642715735229 0.35647162623774736 0.03350378818440036 0.07317976661778364
Ni 6.662438437711478 1.6791298388908649 6.83626460961228 -0.6671968994783154 1.643237796014086 1.0189371816786645
Ni 3.8560032377114384 4.705907559117425 0.9518415083147954 -1.0715728055965095 -0.5688059237022268 0.0022402021844284
Ni 6.792338592025089 6.167498938207467 4.8664660496684915 -0.22431075310006532 -1.6367059084328393 -2.031399811376579
Ni 5.400912659808706 3.0153696698301533 9.235475339072966 -0.2667010451408181 -0.309309623839964 -0.3089149595047067
P 0.3119594860441363 5.615784065393556 12.673579495758036 0.7309134638006702 -1.6517378630652972 -1.4974169088908083
P 4.243109716414821 6.121492252981924 12.68696134894921 -1.0278144295636364 0.17141287665976931 -1.6068695417976973
P 2.3806747026596695 8.949428294161422 1.2058628950158339 0.3408647729384259 -1.2561340467127786 -0.32602025172642557
P 6.526902761304523 8.012031807225263 5.824963319651712 -0.02309673391846345 0.11237469164969033 -0.545480361602409
P 5.075952197836431 1.2256027497129638 12.461935043099567 -1.511301123072068 0.42225612883272445 -0.1343134007043106
P 4.174031185471645 6.426796890732368 8.356077234212185 -0.5974171596810163 0.004805906029075594 -0.46392522643673645
P 4.74685414833047 1.0752156001718565 3.5846195107393584 -0.6185701396095477 -1.594734706207376 0.9216342967604322
P 0.19046603275922935 5.827559130638628 3.6725683636352784 0.04456415976362002 0.6078802639958691 -0.010454105453788448
Ni 0.6750880512962406 0.15465900316032238 4.843405164447636 0.5912771082215494 0.3417949980621791 0.316411524992068
Ni 2.2465730245811675 6.720063249521671 4.776698667682159 -0.40610574432510704 0.8608953270091625 -0.20326704505588866
Ni 6.075330294052027 6.009229364733534 9.39387461175877 0.33270254884260764 -0.2461571595511954 -0.22105830760103862
Ni 9.406389672329754 2.780705433813747 9.988704425398302 -2.743252659001372 -1.6085595279056104 -0.6360976069703497
Ni 2.4356963964850955 5.76350416071869 7.007055637280317 0.5648520812608013 0.20598212999420654 -0.22990058848301698
Ni 0.7749281298215299 0.051731718042570526 8.807733731939978 -0.22455989299639392 -0.08624585577312242 0.7742239536628472
Ni 1.4242160850771532 1.0993560943253422 11.348259973108537 -0.11382685071518461 1.1951155980478771 0.20830846413453805
Ni 4.26235452200748 7.141220338215292 1.2028926003890033 -0.2407259612332951 0.2712207873880426 0.6508058597148016
Ni 5.973361139027617 8.31789360356192 8.191595799189335 -0.8234495234578786 -0.7612362831539277 0.03493434998333984
Ni 5.362678793548209 2.9108156643156042 4.628619616087547 -0.10597624432251426 0.03591111207431235 0.3368003730610651
Ni 0.5745912563390042 7.278966381472469 6.356921897023326 0.14630528295886416 0.8066684473447978 -0.3345673699654883
Ni 5.36031315299363 4.690946481015492 7.43832652437581 -0.3365718019900268 0.11942285674572335 -0.6034325126371608
Ni 0.6979872691896211 7.32186759261092 11.318635577067136 0.022835252726960673 0.5630448528487335 0.640527103496613
Ni 4.774547670189483 0.5193603997000658 10.327386515961871 0.11010569310985555 -0.1017614349102183 -0.18693102690002647
Ni 8.16682142297219 8.095596461409993 3.9230211952603553 -0.43622133276356484 -1.1205278953389735 0.42345760533999327
Ni 7.313254468892896 6.201366873251404 7.02990187943927 0.2109775263262689 0.41981666615329627 1.6167073538237253
Ni 2.3445233307869886 5.565530187666549 2.737118278251942 -1.484268287323992 -1.1388755446082257 -1.9979939822226236
Ni 2.490224867955512 5.387531719992263 11.306765359056591 0.3780827767496198 0.5976696420114546 0.7248970824032612
Ni 1.3875440896075177 3.3932236625034644 3.7578035802039187 -0.7034340274334788 0.7897169070921237 -0.9287721933567941
Ni 1.2371112713298356 1.2203234437649066 2.469554284406986 1.5705079724495274 -0.5170136216212837 0.11055049395675799
Ni 1.342450779113473 3.8317166036009125 7.8686210138833355 -2.1415548696671314 -0.9030102539013416 0.16133723759132215
Ni 3.917838707033837 2.7705395730521767 6.904803336089141 0.0496513444785403 0.1551439642964167 -0.23879943363454362
Ni 4.667554954141834 6.793964399047155 6.080615993623205 -0.5130536085322713 0.23045363277300954 0.0996922110860154
Ni 0.4785088014590967 -0.010137546144893716 -0.13685915639289392 1.4256003411691383 -0.8499676243530653 0.8837912577707295
P 0.16065256814841075 5.9225227014724515 7.86260461452696 0.6803815164893895 -1.294470223288816 1.1722183817347296
P 8.820012228455502 1.6902456093731928 7.851803958326998 -0.2759811848911634 0.6861700981467086 0.1279866871553344
P 2.0904133467369945 3.5468441585940735 10.43369054746197 0.6877793516153574 -0.7182163279489759 -0.04981923751497226
P 4.1080581286155615 6.24767497213834 3.5354114470799165 0.7353951537211078 2.710025007296494 -0.6583319928885177
P 7.211796803718124 4.103299446264458 10.151421220439898 0.1993995916806824 0.7413734827917297 -0.21816607365490812
P 6.599908803593141 7.946058750369179 10.408211045952108 -0.950786492844356 1.1206101706401346 -0.5206144515986647
P 2.571999307666507 8.658819855840777 5.8337326304488215 -0.5789784933598545 0.20393887431193264 -1.4173944083195784
P 7.042292721046769 3.862871815692301 1.5987656497653024 0.9026217602136714 0.0197229323502241 -0.9867721669103457
Ni 5.385860244233623 2.815386272368717 0.6166064939879016 0.35743604703354576 0.22366412065500188 -1.7079573476796586
Ni 1.8596857558133435 1.3408615070806669 7.216388338493363 -0.8962258839896565 0.6068654495781096 -3.030263105123504
Ni 7.08453630237854 1.0557607183909539 9.24372311289839 0.6376914338200308 0.06680625899127206 -0.527403192385724
Ni 2.5171328875454364 1.6083615646944178 9.28636766573729 2.1156198949689244 0.8269446810953307 1.214715888777308
Ni 6.483289117875505 1.73231564950598 2.5487475271267686 1.486714949092272 0.6649716096922225 -0.9722192087968353
Ni 4.126069878320698 7.217669803241655 10.531077301458454 0.32316864121024347 -0.3767969680586607 -0.14498759258870514
Ni 8.294730420371137 7.0029354038665295 0.2563331381464593 -0.6050854748595514 1.1119918328435041 0.7553111759187443
Ni 7.750505220355507 3.7589937074790605 7.780751624589056 0.8441289061841012 0.04687455306435153 1.252913997113584
Ni 3.024485149650501 8.695665392509396 12.35263696922962 0.6790923653643207 -0.5335113621659909 1.2193569870937453
Ni 0.11823544561765445 5.143386654262911 10.073592559568974 -0.09697146972074266 0.3736820765787629 -0.17733001347515268
Ni 8.98436487764121 2.478378397687986 5.708793927676705 -0.2649866335528727 -0.9320485501152206 0.2840572770310785
Ni 3.8112387421207323 2.681750415403279 11.497501750736342 -0.03634125763319548 0.5337581880694743 -0.44000111152097127
Ni 1.2498071800976547 3.449268336028167 12.633889710175533 -0.28503918132837364 0.388184383959996 0.046334621400481495
Ni 3.0704918348760435 8.507163115422888 7.832539971864978 1.3151084683644578 -0.6935591915219281 1.4096204208011143
Ni 5.482221278406637 7.834891911798586 3.1880130214536666 0.8152680160883508 1.2119694363804223 0.916793166618047
Ni 3.0262114278930317 8.734017997484987 3.3700467786917083 0.6131008889648603 -0.45739051064201225 -0.17695951750961136
Ni 3.259240723140057 4.410476502214473 8.855726093831796 1.7744854133088792 0.3909750593312557 1.0698360254110608
Ni 7.474300701550582 6.2846575150166855 11.421329951628355 0.18338059054460676 -0.758649496263358 0.28770978618200127
Ni 8.232730543597068 8.986876658152829 1.691901557761398 -0.08140935361642754 0.822510813693693 2.119586078705524
Ni 4.893615200187532 0.3341124767818832 1.195407494464379 -1.7340594440833492 1.0474900536156928 0.5856733888815269
Ni 6.1069239260145345 5.416787112642138 0.2600158650638583 1.0109927300206072 0.5876922190837686 0.7266937692923678
Ni 8.259629429439677 9.23202643608683 11.178965053250693 -0.394714728879346 -1.5690545278324526 -1.3558547970438843
Ni 0.28242368735169304 4.785489899472826 5.714261388819451 -0.8000537702417577 1.6270285332440755 -0.31531314972156665
Ni 7.3247447230151375 6.337861593126431 2.5277052000625226 0.988046148526763 -0.17042248772204197 -1.3513260559355953
P 8.614886531255733 1.6458373299277713 3.5867714216067674 -0.6633932094615091 -0.3732267342088991 0.14367735841771384
P 2.1353513835266846 3.2308256352431615 1.5959049601062514 -0.6134685567169241 1.0237914244471722 -0.10034732817151105
P 4.698016001437284 1.099465699293122 8.112830015843892 0.294659478026957 0.8038335489991639 1.2066043154137673
P 8.617306974294204 1.6874689501894395 12.403395943183146 1.0840693954016234 3.3253964374630858 0.34240949171772644
P 6.468163632321902 8.027970196289898 1.0406069182206745 -0.23503508149610494 -2.1431708080039993 1.1335649310285896
P 2.0986337193204743 3.6162606381879043 5.844093040028201 0.46123302431655405 -1.0273372328169017 0.32047875308290613
P 6.727324578637079 3.8984203602421945 5.904837939921191 0.8878060353570774 0.7114306724857102 -0.28295324533362237
P 2.3923202304862663 8.627061816426599 10.33719890070235 -0.21991442380458254 -0.056854289984882726 -1.2848900357995485
