# total energy = -340889.5299936981 ev
CRYSTAL
PRIMVEC
9.07968656263753 0.00000000000000 0.00000000000000

0.00000000000000 9.07968656263753 0.00000000000000

0.00000000000000 0.00000000000000 13.28903907320404

PRIMCOORD
 96 1
Ni 5.151514530939772 3.147464270279627 9.63337039833784 -0.1696912659829723 0.03385345821433525 -0.10105978085750338
Ni 4.478310249791947 0.29173577735013395 5.940014488108198 0.46150041904532774 -0.07150777823199943 1.0265337630789997
Ni 2.72528608377053 1.8490327718271065 5.004957494053938 0.26024834753693893 -0.5106609399303785 0.0808352262805124
Ni 3.807793555869247 2.870034447091347 2.951747994359069 -1.5106737739007143 0.2812295777742963 -0.3004190062185536
Ni 5.18325711519329 2.951624510621698 0.990429462609773 -0.4280161712449532 -0.6964326564149812 -2.4365280222797647
Ni 4.99587962341988 4.8755011388566265 2.3266315492305454 -0.7584101265590423 1.0871246372881793 1.1672098727765445
Ni 5.264674664678784 4.5289658211736326 11.781304636157206 -0.55026929835062 1.7949868756963407 0.8932248923798036
Ni 5.765591893134822 7.81101828550071 12.524068396128316 -0.6369818093475159 1.6895719031939354 -1.2999844682388255
Ni 2.506955940475313 5.463183852188697 11.623643142594585 -0.602742942769304 -0.34081052266172274 0.6724949146524611
Ni 8.36402567581671 7.119445798418998 9.400958569139082 0.2763326546933112 -0.3212593400026725 0.34319033574780894
Ni 7.806124334438741 0.08555516265606952 7.065131113349049 0.346621472916545 -0.5107889808678107 0.2979774866565965
Ni 8.701962530316615 2.6075316286264036 1.5913894016151613 -0.1477695262092165 -1.0555995700967047 0.7173362393368679
Ni 1.631610597189026 1.2069264171862306 2.770591903824364 -0.6708782049846446 1.6216395010180202 0.3912313983164359
Ni 1.8104985820182025 6.705802517286992 0.7752735777399072 0.5916717725568068 0.5286326939174509 -0.6417195811428175
Ni 7.492657235248685 4.275088704951492 3.701289740355707 1.2441362509209541 -0.6651760123935447 1.1977388946033372
Ni 7.703914302704803 4.053771344774293 12.802009405670564 -0.44769925149617734 -1.3103246738225691 -0.215302636064184
Ni 4.661492926369382 0.31675666963486454 10.645344141244165 -0.32747266790223606 0.4927534635223385 -0.14973230636254212
Ni 0.5933475297839496 0.27682602403128354 0.5762840748103696 0.1620581749177467 0.34735860819288567 0.07349704074788632
Ni 1.8889289146217163 6.735456773629094 9.629569641539062 -1.3095497433297576 2.222738737536314 -0.9055656733333437
Ni -0.08217479534554761 4.94089304154365 1.3120510283095788 0.20957190422799393 1.6804046348723705 1.714864873432769
Ni 6.4059821870137075 2.228400236152183 6.907603091179027 -1.0094449259175133 0.15266876328304674 1.3866509564891345
Ni 3.2559302060612403 4.401060276442712 0.5770286091092222 0.3148138414876449 0.7623673114345774 0.11536488462626583
Ni 5.848761822128592 5.697666757894386 4.581741499369733 -0.15091964180242398 1.0983410748292892 0.3593952276424456
Ni 7.081628903849233 0.8553573212680677 0.6565739272237003 -1.0154559079982834 0.4393081992190047 -0.3352199159478227
P 0.5278348672655272 5.705384491480053 12.553171515495537 -1.6984578928296552 0.6333385561679739 0.12142471766710057
P 4.109475221889662 6.201562123545833 12.824666855540768 0.7925075824633835 0.5799760813864334 0.6041598777214886
P 2.466896363322418 8.776724669545294 1.4713359698311625 -0.08090490317618325 -0.8038320063372673 0.38468485544716974
P 6.342996401268099 7.79876978831593 5.788240263318452 -1.1033022754893063 -0.5356304653915227 0.8318881411435349
P 4.703922301717404 1.2180944316690185 12.970062600514122 1.048242358400685 0.07125401034998051 -0.4803946848466694
P 4.078567968800711 6.430333906398129 8.315815264028695 0.6911282134829323 0.16291383804982268 0.26065021096104785
P 4.805315161659919 1.1958128808228712 3.97529652170658 -0.1949454125640707 -0.10722965711364114 0.06586420679297689
P 9.337458873133532 5.960986748150753 3.6616351172238963 -0.7919013163379522 -0.5063144900362249 0.5682217690639828
Ni 0.7681278644082371 0.21352426519299034 4.930645707279199 -0.876929754764206 0.35569515308303906 0.2795848430820217
Ni 1.8528008417542259 7.018316249387055 5.244944505759193 0.24624997637531784 0.8654922023512255 -2.1375161808213834
Ni 6.73867098267536 1.1353421682575315 9.346433235340676 -1.2356670371076783 -0.6514152111640266 0.014540102597703991
Ni 8.467815573014066 2.5029245596376235 10.40275307543024 0.017838827953633795 0.42154444747768044 0.38741948076951344
Ni 3.0824173956823158 4.7396690277488975 4.8110707749775115 0.69549034710637 -1.061604381529888 1.2372575215232497
Ni 1.3806662197294393 1.4318847316785503 7.450699095633716 -0.2680840415312738 -0.8657554833149412 -1.3927066757649114
Ni 1.3940042793027851 1.6858435650798327 11.614181201218559 0.7945282124378381 -0.9999261877938005 -0.34510632182359924
Ni 4.32568979821375 7.220629825570372 1.539787726892738 -0.4979609758652069 -0.20902991568159485 -0.7200541524886631
Ni 5.64151797613702 8.128044621826746 8.06553007181419 0.9824848523889015 0.11392738084879088 -0.04171974833628944
Ni 6.73661897351023 0.6580847870691766 4.988373446531327 0.22821523036079402 1.0336171522883424 -0.985781263751986
Ni 0.6280337484239058 7.675876230572405 7.26024086620664 0.592857565334792 -0.029586455407865173 0.581303027727973
Ni 5.483304437630858 4.793802119087419 7.559217693597444 -1.0223780890394134 0.13759001457305337 0.43692324392659593
Ni 0.03500945548189721 0.21918998961352665 9.345663277919423 1.4746572465967895 0.42109964663077804 -0.013517317760144462
Ni 6.290624769124423 2.1181274427428662 11.877463964759981 0.6790949364674821 0.04060491800555587 -0.7584702903730164
Ni 8.273283288222416 7.361909748620923 4.987681574414587 -0.023513509740907892 0.5453016699326996 -0.38647280058552796
Ni 7.484857784483876 6.459552337784804 7.24940970809565 -1.1846021001110631 -0.40269517598166127 -0.686218949106773
Ni 2.076288247021983 5.418302961466404 2.8357350230993315 0.8223202949494418 -0.026213682280890337 -1.7241275296816176
Ni 3.052663262787929 4.817136913575846 9.289756015824855 2.2827552272992624 -0.7280693094836558 -0.49316149759403455
Ni 0.881051018327737 3.703331761865609 4.086777821398545 0.01126117473611609 -1.569772894055716 -0.7796129858889026
Ni 0.855814937471265 7.726086897312094 11.812334465014871 1.003260394373356 -0.42123925753243585 -0.39651990040888485
Ni 2.429842162424648 5.763104059014266 7.008174239486832 -1.6509511054979435 -1.9777987382216713 2.3715667869170316
Ni 5.03710140045391 3.2043485066492745 5.013582288328085 -0.3774718826384983 -0.30175340875926093 -0.105277932703909
Ni 4.197811492542543 6.768034689047177 6.099402938056695 1.6736130658718336 1.3467474354259772 -0.6955710797456343
Ni 0.9601677752360465 7.8910103241945 2.9641072637200208 -0.5533726198662922 -0.17582823211864557 -0.8671132828944164
P 0.19353987504939996 5.498449354831907 7.966991865329715 1.7770750284129264 1.2992046526500076 1.550178002642924
P 8.389666710694266 1.92726335132605 8.139430548787246 0.16938736158930828 0.37699417167113136 0.23579818491437454
P 2.0744178315882804 3.5502573259588437 10.648281419850003 -0.6065294063949296 -1.9882541292270401 0.6502114206639125
P 3.8741751443925496 6.3803139130764395 3.6721739094272876 0.7671868443104077 0.5732251358158451 0.25295901296437723
P 6.90832492626145 4.148681308504847 10.641689567399187 1.370323937194337 -0.2370258866738886 -0.7636688038548203
P 6.438977768014075 8.098817110753497 10.354433707403368 0.11184812972225898 -0.3343791652140822 -0.295501000091646
P 2.3789505191921068 8.92695716355522 6.258406409294566 0.009568360414725459 -0.5275039796296463 -0.10915875581555395
P 6.8357146727501865 4.106941989336249 1.6521733633672129 1.8190174342829832 0.7714985843118842 -0.9973915942974048
Ni 2.7197837937082787 1.8925880283099792 0.5761451556058277 -0.5806317126925612 -0.36740472821048337 0.3417772574503662
Ni 1.3473619293856456 3.47526819456588 8.507656329720591 -1.796724170102422 0.9461276539161061 -0.3085622041509783
Ni 8.07350294459251 -0.06456292730305682 11.544998529387986 -1.214090339378167 -0.19150939029932826 -0.44932058914968426
Ni 2.8577223921005666 1.7139361153316583 9.295629665067876 -0.49894133750060526 -0.09013670618709639 1.7347546703781607
Ni 6.3849082344815535 2.3200415127170433 2.848146954642397 0.9140258882855548 -1.6017599884852738 1.045273505580348
Ni 4.0970905294063105 6.880904272815907 10.582992117621236 0.7738758262948091 0.8991438289673999 0.21370109590501907
Ni 7.4564383655154804 6.112027334265531 11.618208042212961 0.7172490789397001 0.9116692151279203 -0.7023863028952548
Ni 7.674659552571842 4.168366068991583 8.594858547520706 -0.07200888623813406 -0.8877083334369485 -0.5992228454311873
Ni 3.308238280398916 8.746443914829767 12.693358244282894 -0.758985539446538 -1.2170519931096524 0.09410134726179922
Ni 0.33548624709429126 4.913327113112963 10.369889149885159 -0.5450707848688162 0.06253617086100843 0.2632506246983724
Ni 8.548987970962134 2.459632614065321 5.921821520125139 0.7315464693989788 0.8147679365234807 -0.3891588320581233
Ni 3.7679246521343512 2.9108930366625225 11.9458893907305 -1.078318094740143 -0.6331917461774643 -0.9375054594647338
Ni 1.012348733961723 3.685971401141145 13.013517072476052 1.1014181710927158 -1.5335645624559588 -1.3246740005657056
Ni 3.333652323112187 8.475950972182016 8.224426402750519 -1.3737100800577504 0.8489844345041895 0.1670152618127059
Ni 5.592351473353038 7.9868191768956205 3.474140497493716 0.20653080340882493 -0.17804632281588692 0.8762967491658973
Ni 3.27829347408653 8.504297753657841 3.570830987760916 -0.87922934943166 0.24494514152096525 1.2217743382859862
Ni 3.6375040342231597 3.313422781431169 7.290313696099682 -0.23032636316652594 -0.5379858529975767 -0.2103830872753796
Ni 6.164126575812065 6.0435755772039546 9.452838990239245 -0.409118820119818 -0.0706765405799557 0.35506034771251754
Ni 7.648028831858007 8.954977076314474 2.808093733270103 2.070867530453898 0.6720619408801006 0.7879423316902042
Ni 4.439385633460473 0.6347563483613499 1.8412233334070691 1.0237919386678045 0.09174647387637747 -0.4801766552985924
Ni 6.288373006854723 6.015392230086415 0.44917845046638627 -0.1724037798181289 -2.2578530647409436 0.8577020168828454
Ni 8.41768662345352 7.420555444185418 0.33889022158989873 -0.2945270662141508 -0.7976086511353747 0.29675672687561794
Ni 0.2608539473835826 5.273672634071015 5.794539749861671 -0.45027369709157294 -1.0429289166075715 0.2947060149941763
Ni 7.5292574518178865 6.3980556206368995 2.6255420949093775 -0.6740087801938263 0.6707139114926385 -0.020529487411919484
P 8.509981637451519 1.6419160414475336 3.864306433058125 0.035142095118771734 0.8357177993022703 -0.8053700402483486
P 1.762948263443926 3.4085052592065797 1.877342326587988 -0.2504848403922718 -0.31924410934485664 0.5300123478737968
P 4.625074303531608 1.5192403961817227 8.192612996941744 1.4665680418307518 -1.1335819003094543 -0.33465941545866235
P 8.560183224504636 1.6757923520453235 12.605171788458442 -0.3908267066788495 2.37065970172173 0.5087819777401108
P 6.575781405584942 7.974870309367694 1.335069849705322 -1.5707928506797981 -0.6650885948860611 0.16740581238290525
P 1.7591983528899493 3.3653767479925616 6.188732526420484 -0.7697263229028098 0.7219927642722728 -0.13118822481176762
P 6.634744890179433 4.236590833888874 5.9691039879455605 2.2635984518651533 -0.6240329624963317 -0.8406232070236878
P 2.298241185259178 8.874776204829542 10.696918576906874 0.6806656233887116 0.01872045922763873 -1.9341398638811402
