# total energy = -340858.0565477855 ev
CRYSTAL
PRIMVEC
9.39282683497773 0.00000000000000 0.00000000000000
0.00000000000000 9.39282683497773 0.00000000000000
0.00000000000000 0.00000000000000 13.74735151447841
PRIMCOORD
 96 1
Ni 3.8823746127162564 6.619557013972552 10.92743982412842 0.33186514054297683 0.613128399768686 -0.38231969764910284
Ni 5.139566889213278 5.717056657630638 13.10859412659191 -0.5598068055274101 0.9390285809774794 -0.44677571124064347
Ni 7.488938263528096 1.1534297204366049 8.729210302088372 1.4769162178342952 2.006484793302454 -0.6263117312281794
Ni 1.9400789528128104 8.661003352048693 8.938926760667874 0.8263934365775509 -0.7369871807985758 0.4698819582408037
Ni 4.68788464101618 2.399820246280103 5.410599720198176 3.3223900465365945 -0.9983968956334677 1.106554463878017
Ni 9.246552165736249 3.313300816981991 11.566141704575303 0.21662906818509145 0.2558355631812239 0.14285280563388944
Ni 2.7382531834949932 3.1652792617220906 1.0332522605134933 -1.373387406611009 -0.10090062957181976 -1.1212963980738817
Ni 6.355646763440322 4.363362480077698 8.924972777388852 -0.5951008528430138 0.16686459516745458 -0.24823178269203705
Ni 0.46315558595647166 0.5960462367574483 7.883418197394794 -0.7856440225743309 1.2696019992922263 -0.936798148985064
Ni 8.71758573981985 1.4568743783607323 13.08246046498904 -1.860576231561376 -1.5666664872162503 -1.9861149713968504
Ni 4.58951356745587 1.2569104916973648 1.050214766170188 -1.7234667561691674 0.1313599745029415 1.2041854215596293
Ni 5.704930518418726 3.7188548934752137 11.662592884367282 1.1326573316126558 -0.41249159324679285 0.6563776973756245
Ni 5.87325936490725 9.066501071581985 13.53602691421318 2.645332195103799 1.047274595170777 0.08991764819775482
Ni 1.4711045107434184 1.6666725545321344 2.69021920726277 1.3133765732750153 1.948401516006477 -2.7666360709223192
Ni 1.9375053183092747 1.947799856323416 10.86596095582189 1.46144974676758 0.6596476263761478 -0.4919376524892624
Ni 0.6724174317258595 -0.1227586086879711 0.8682851066848779 -1.3737548172527567 3.130373120473228 1.650031679007468
Ni 8.515809037612021 7.301194444343194 11.35575178032462 0.46053754091142624 0.4084302786932256 -0.7821205828021046
Ni 6.67682507808954 3.4508587633479553 6.4506279658607575 0.8156696224021437 0.03184542664537096 0.3948468835818361
Ni 7.765265830898551 3.5637323612639538 0.2117932125529747 -0.12177541613829995 1.027368343165153 -0.8607492883496014
Ni 5.404857885263829 0.9980254034256876 10.045491911790833 0.4284100642492622 0.8558724198732744 -1.3063132386703307
Ni 7.0932184765429085 5.021038809650826 2.264092961829244 0.8166319863154129 -0.7180738888338407 -0.07724005273008633
Ni 0.15865705288162626 0.6554549260691648 10.471893367045357 -1.5327801188814505 -0.7553535991209056 -0.027612876621262123
Ni 6.05181699962333 5.117907030946299 4.47909337586222 -0.2906318449248027 -0.5399486331509025 -0.23581284020239388
Ni 6.872768834944466 1.9484103900560066 1.738311643431637 0.16013318998089196 -0.8224791891248093 0.3673353084251287
P 7.785084695141104 2.1366050649203605 10.599867812374981 0.034606534330275884 0.9292416767940449 0.28351503137436335
P 5.48239566930282 6.4178366687246555 2.719418687485909 -1.417823525437197 -0.4888055346181839 1.83843337691575
P 2.540440254135675 6.988995671976385 6.375348217349686 -0.4921078595185396 0.32966633311944515 0.016699829253184143
P -0.15583732631972375 8.028753404231296 8.80620987716002 0.8202289596380519 -0.24527681382877112 0.4713917100171107
P 5.303293250640737 6.39277660720848 9.129973097704758 2.172956009686232 -0.2721219590460733 0.7757424471899027
P 0.544983073928911 5.113473616765027 3.173190839613798 0.34772910415842695 0.7195743846387672 -0.4205728275930305
P 7.309723130946151 5.856709204340721 12.846831076233068 0.03222903523703481 -0.5914583709944201 0.06003808702950306
P 7.49599227634618 5.647765775394945 6.089485052358832 0.3205648850388092 1.2351312192088664 1.0423604456986113
Ni 7.248923364006792 8.402850904256125 9.260421613575373 -0.7613347564050049 -1.0325154345837313 2.2523185080759602
Ni 1.1801992764040339 5.912981628832253 8.05101252483888 3.704745996740271 -1.3294536813425362 0.7146504649745886
Ni 5.631619506374591 0.39068241404998416 7.683215732934383 -1.145136695026589 0.12081922287261773 -1.4883697110868754
Ni 1.8065599219085982 9.31876421706172 5.519328263711217 0.9013999719914283 -0.10300173507522262 5.102815479478993
Ni 8.728547168526513 4.566782926950194 4.75262469873741 -0.7669230491260599 -0.4039442178974141 -1.0850777820614796
Ni 6.479434825929708 7.0132103790935885 1.0335753737504334 -0.37399806515728495 0.8839097856264647 -1.0240901866345138
Ni 3.97296842580603 6.4374113194741724 4.676024318798611 0.2631830046852306 0.0703194143508531 0.06272617538462746
Ni 8.737620639075473 9.153863752302357 5.663798391212772 1.147997818624468 -0.5413838229355321 0.4424084354108832
Ni 8.706248598046976 7.166736130773458 0.20304379452362026 -2.5132057747484784 -0.0018509371658097153 -0.7033432674918855
Ni 0.559534440983206 5.540612408911987 12.133178196208048 0.7186750127529494 -0.3671797566838709 0.4739386448086806
Ni 4.0108496957066055 8.161013796363704 0.41981144807320914 -1.8927435603225402 -1.3447124072738195 0.10531341392753475
Ni 7.5419701628235725 5.227192569079997 10.739389798794557 0.15963311041602185 -0.1292498701384742 0.8387948955656974
Ni 2.3611499789404866 0.8534218977856288 12.964866032396118 -0.7731590027334426 0.21703170294014879 1.5025984530917478
Ni 9.157357883818106 4.11371054040812 9.252146533292107 0.16900221033574764 -0.96123159943708 1.308328726438463
Ni 4.334704965952566 1.7047604666191256 12.152054020654415 0.445153088035556 0.36394325202444416 0.2918986274523683
Ni 1.849212747750035 3.312981460875713 8.277431307776725 0.420939724014146 0.41003516128650025 0.7070685388622725
Ni 3.126712315475682 5.8273754066964125 1.283244220507991 1.156319451116286 -0.7552553829801445 -2.1978969959022856
Ni 7.00358273177197 0.2551364111535717 11.331625365777976 2.3620904719954803 0.8384958762680397 1.6436602282634853
Ni 5.057173013793529 3.805409791103234 0.610225647876196 0.2975776801150165 -0.8990096173823808 0.5008380403026857
Ni 1.9194992696111832 4.408147477569874 5.872538935102794 -0.7336468035714333 0.8580336891906513 0.41784128759448036
Ni 6.084353751157075 9.209037216075226 2.936173191078181 -0.9285816746125427 -0.4361202884093263 0.36977657087676963
Ni 3.693109155613205 5.079133442513475 8.860511686619283 -1.1425239399940905 0.19943661556620493 -0.4961486052468165
Ni 7.0036954456918314 2.845866798484058 3.9250612527336526 -0.47552655812109074 1.9325403806045038 -0.48773595570308903
Ni 3.218592945817223 0.5566095147627649 7.397779941556344 0.08872002834522785 0.8952545212153228 0.2639270819401068
P 1.766151981637763 4.1972033765465335 10.505946120801257 0.04551495371266354 -0.043980005125375865 -0.23746708797636523
P 4.657076169586999 8.930737155107172 11.799901920826883 -1.2803597520293626 -0.2682899868944928 -0.4290548969221127
P 3.4457021015142293 0.44429479003275324 9.973125818108214 -2.2790692938072423 0.2232702276506929 -0.4109579302110858
P 0.5553799937535941 2.264807755937708 0.6405701136686087 2.1767982662504575 1.7758624961620642 2.0673078381270975
P 5.230564593849227 2.665731168889898 8.081751489350811 -0.15388129553390917 -1.0964289454082408 -0.3380003069064373
P 6.117857963836311 1.9217629408350956 13.468060420535876 1.2270201600659578 1.2620324144750845 -1.1848080454742822
P 3.9458795137323226 4.366537255487168 5.459238594466996 1.6045771462190945 1.0660580464258673 -0.029061436142330595
P 1.6757460250810947 2.047063248415974 6.562957719113418 0.134772085508284 -0.4859557238742147 0.26147553507582066
Ni 9.279088917269993 4.357022322085412 6.978746219530188 -1.7916089603630434 -1.3091694771722033 -0.054756012694957314
Ni 4.105651495137926 3.1394677740734958 10.000056930694114 -0.5484823816535263 -0.6598414875545088 -0.4366051984655449
Ni 3.3513135864557397 4.0560479775716125 12.301913752090744 -0.9230861987156102 0.5923083776995413 -0.0036501951580775846
Ni 8.27941976917964 6.050971645224359 8.458209406714104 -2.1405912202022814 0.21891529311610686 0.9081064374773263
Ni 6.2069958887945225 7.591817893882921 11.508140999979206 -0.7609213230166701 -3.182698412239506 -0.1595981434130284
Ni 0.12777625668719939 7.106847468019659 2.468281741922138 -0.9930734265380252 1.0513680485138603 -0.2811627290921029
Ni 1.413535876173463 7.422108301876077 0.267468253269234 4.080539463235081 -2.708839214518509 -0.9987758762394412
Ni 8.823536824490937 3.184337307005569 2.4347934970482172 0.822560435984706 -0.014315645291723734 0.14871363529004064
Ni 7.540100990319179 7.3127570139557925 4.349799238387535 -0.5610177951163757 -0.06512450041347494 0.35055397520173176
Ni 7.054520030723326 1.0070425170147164 5.015473559857598 -0.9230949404663585 0.9764782411835053 0.580283071103891
Ni 5.4418656222854676 6.0411843198496005 6.653910338181421 -1.188817166633675 -1.180262849305761 0.7426310093479146
Ni 1.867303331888024 8.493012647319757 11.407675326074777 1.0638893209093225 0.929957986134779 1.160963891866833
Ni 3.554640105061683 0.4511252535764425 4.163963102296311 1.6135230425584728 -1.1292858440372615 -1.2372775761279078
Ni 4.030762488215711 7.6425109793412425 8.047107926798297 -0.6839831177977188 0.6033885467731027 -0.950766438239698
Ni 2.697178352531636 2.537575442005827 4.709237353851534 0.5493624702656345 0.01026590070238232 -1.256620242320578
Ni 0.3093151745836516 5.116826855880947 1.0395060045005509 0.25998892322796513 -0.7061200589060742 -0.5177165612255793
Ni 6.8983267162733695 7.725271175000547 7.255370600222949 -0.06443441632498581 0.003321865284381376 -2.798145968605142
Ni 2.45588602858522 6.8925313422270875 3.075158847095741 -0.8277934022488712 1.5431131253763424 0.004729544265185404
Ni 9.389849129188564 7.129023931752677 6.782778041325959 -1.4005991911391102 1.5744116783793078 -1.025372395781047
Ni 2.5523127870278963 4.4325312555668726 3.151539434890808 0.4492874219189037 -0.18756146139517377 0.652487875402915
Ni 0.6903727591600131 7.3731810678289404 4.730133575311442 0.6468484177289505 -2.516568263462808 -0.16265235685831986
Ni 1.1100066828094384 9.2190311836364 3.644409227971126 -0.45572366446255064 -2.2756854649366742 -3.9660531245590276
Ni 1.4971883903650152 6.704393024322664 10.22613193617638 -0.5944261953734924 -2.149036779866473 -0.5896534565751973
Ni 0.5735532347661492 2.445103063585006 4.648542786570715 -2.9975663862214312 0.7789617254581488 1.546787488904136
P -0.009965789081207809 8.792681388928479 12.514846314517 0.8229237328613958 1.169656020324192 0.3033688328754969
P 2.95236266710115 9.276515282766457 1.9582277724760617 -0.8739354480225724 -0.17914366964512374 0.578093776762056
P 8.788360688667069 0.9845748756553864 3.636848002513659 -1.516377509153711 0.8262108882530997 -1.010538673202324
P 5.615905307380377 8.970919667538281 5.214424899807531 -1.3760891218128881 -1.105256828112516 0.45955100862844084
P 4.146886004154422 2.876975840366207 2.642873725224376 0.4835751394571801 -0.4958305597857654 0.006821650907523735
P 2.747467546443782 6.32264976340047 12.708285004502972 0.10471768932506482 -0.7034440547358078 0.7534741227100056
P 7.715032993946337 8.747492499890129 1.694155026042696 1.1835088670468845 -0.3248090050271438 -0.3673697612074899
P 8.357718372177706 1.8308873429456651 6.667589111639444 -0.2729845641566847 0.24098564265258496 0.551152986507154
