# total energy = -340896.5031525868 ev
CRYSTAL
PRIMVEC
9.03605411327353 0.00000000000000 0.00000000000000
0.00000000000000 9.03605411327353 0.00000000000000
0.00000000000000 0.00000000000000 13.22517857312953
PRIMCOORD
 96 1
Ni 6.3190121846797735 2.0818255915330344 11.44862751453557 1.148609484066538 0.8217070868454751 -0.34778566842797526
Ni 4.584785530844361 0.24300841611962357 6.1936161480230405 -0.1430548943423665 0.20621764304378032 -0.6153565177682564
Ni 2.9541933840395718 1.6441914085609222 4.954694486665499 0.28355025548767293 -0.7327353475007574 -0.8320825165425283
Ni 3.4655527342331385 4.29947211559526 4.940106680566429 -0.21359156691034828 0.514220632257179 -0.1646372484988326
Ni 5.148734717197857 4.598466117089401 2.656779788446526 0.37155191760963757 -0.623695633761571 -0.756849981160774
Ni 7.332071342995607 6.026704863384662 2.5747839207032195 -0.5069390109941012 0.3732280197604798 -0.11714305957261116
Ni 5.130391526922142 4.55220151895558 11.351739325662507 0.43500905762301856 0.5362305608693668 0.11821032449486094
Ni 5.581480394781219 7.799452216799074 12.341405946546926 -0.2420737335104412 0.21215689134635074 -0.29889665603675625
Ni 1.8320148337190474 6.5684163200492245 0.2718135500905209 0.3946031430021462 -0.41717331499317833 0.4847609322351652
Ni 2.6492626948552123 1.4052510240975182 0.3145513762220703 0.15085125045833372 0.4529041927358845 -0.3841819476688222
Ni 0.6845434637429801 8.857411529045953 4.541341085264752 -0.12226881083495071 0.3809297592801117 -0.11785782625144862
Ni 8.656630401988629 2.188613681522389 1.3527641989568713 0.3469449176942348 0.4108442874513569 0.44672017541235964
Ni 6.886575792762473 0.5675048737296008 4.6492722361259675 -0.7135819145007581 0.6618016966046731 0.43327536276136347
Ni 0.7800816661001849 7.149181603497846 2.448892708269585 -0.5457642113914148 0.8555093801069009 0.44375646479834546
Ni 7.734808284172247 3.835967709096365 3.80041354615161 -0.7526534265809232 -0.6098821249172465 -0.17481804568657636
Ni 7.630541253339012 4.005583484793621 12.66900719242229 0.3787381509454316 -0.874752544607229 -0.8894389429748101
Ni 8.021043376962295 8.827447972910845 6.7110242329804315 0.2935783291476364 -0.28237294735012014 0.2751918562206486
Ni 6.702755339669443 0.6987119969214627 0.24097078586978438 -0.5031414916248819 0.3782632681915421 1.1992920980230701
Ni 1.9199537143905991 6.579774640333251 9.31739006714801 -0.8883197417687023 -0.7632126901540082 -1.3240759619703908
Ni 9.142860485109898 4.8612526489112335 1.527864859628196 0.4890155937464611 -1.044249435191208 -0.37554278393658547
Ni 6.262771782573347 1.935170429870551 6.855390562082895 0.8161293356473815 0.1029215166565905 0.9577629241621892
Ni 3.2854641715755113 4.546897355067972 0.3778046600885859 1.094857744266379 -0.36623050539672414 -0.1601200773547694
Ni 6.089713270179023 5.517080435621113 4.749664606865494 -0.5307582249008859 0.7015113564894693 0.5778166118412693
Ni 5.332284088661197 3.011888590892003 9.312456381487646 0.28935323532269525 -0.25437157704118774 -0.36206480405480873
P 0.17244586791122365 5.543275957103525 12.560931464691906 0.14111319723496343 -0.8050535374491943 -0.4021979246302686
P 4.0067852800185815 6.237082280133024 12.44195735184254 -0.5411210561924487 -0.42641103154136234 0.08377682540733958
P 2.299296310924962 8.382160251927141 1.2025334705987725 0.7124292889535536 1.4073619637842407 1.5566990915908931
P 6.214618649086017 7.804575659600221 6.028102740988432 0.5314274830537686 -1.0534953792695083 -0.7885529686910097
P 4.703700005735198 1.2266172661858963 12.58437912205469 -0.5892605920121529 -1.1831537977003108 0.7151058073444523
P 3.9469666004002435 6.095767426575442 8.266107495440403 -0.14234629831111614 0.09021743882636075 0.6874543641757709
P 4.764024704395625 0.9398490461907906 3.7691623522754734 0.4710075872048146 0.015723581382843885 0.5729374293720971
P 0.19419745787757792 5.44968954248009 3.7875724093531775 0.14706658660492092 1.0079876246456962 -0.9930173764891091
Ni 1.831743752089357 1.1549342472414428 2.59444908572639 -1.09602785331508 0.2807989179947809 0.0349654603315914
Ni 1.8307859303311178 6.452998798181394 4.847544050897791 0.6604174146626368 -0.06114803226423017 -0.43806815616431655
Ni 6.06246053034082 5.641552083920602 9.09570945004699 -0.006444984294395352 0.834535348958395 0.8875615234464391
Ni 8.64271487833119 2.3894851691229433 10.069849418788179 -1.0220515589379302 0.6269457652677525 0.35768647248145496
Ni 2.401186859471244 5.145310052609435 7.058846361219831 -1.101130207538652 -0.33903748992169996 0.2781586521584564
Ni 0.5569281721445153 0.4043923463286161 8.952851238411036 0.6274054785129904 -1.2657425163368201 0.8302454633337896
Ni 1.0999588927402384 1.0536762224977714 11.301959702397033 1.5114193938174874 -0.23348830583427532 0.6190763898220047
Ni 4.129522005888052 6.866027805231944 1.601820446234887 -0.48358233854603166 -0.21510826066519081 -0.2499179121452083
Ni 5.420503087016763 7.80610275278081 8.140494593479918 0.3405487843599039 0.6519026923234064 0.2928777035361859
Ni 5.2693660424100655 2.9276364203842395 4.84114291001537 0.9785842317829145 -0.6752485661381984 -0.4056519446171401
Ni 0.806447065403869 7.196774501617149 6.9422803568475455 -0.07999730376024931 1.0673127447685749 -0.4121966877141934
Ni 5.174568796507348 4.63476394730494 7.140419341620821 -0.4120694181077097 -0.20130117957876945 -0.6354417185539056
Ni 8.287010599905827 7.389811730119653 9.093963684351785 -0.35097897855429233 0.1500845474956383 0.3552716923923752
Ni 4.618851455642115 0.4135413513306656 10.486363631991114 0.11650105511323806 -0.7138158848884352 0.1450654970144921
Ni 7.955170540947537 7.24669870175179 4.686038133955439 0.21907238751926142 -0.3966847081215233 -0.10278576240967459
Ni 7.46894949388059 5.989891978072712 6.9033711069326555 -1.0473031344158674 1.4244132628395727 0.6567777610275205
Ni 2.393325492210223 5.218402696028279 2.616019954606284 -0.1225295206955051 -0.03419618626573465 0.4979681749540586
Ni 2.124168542090668 5.210595545093196 11.463836097566631 1.1868587573557237 -0.533969275639016 -0.011081197514826077
Ni 1.0956486948281616 3.2774672634996453 3.8942466450580624 0.6337671590649602 0.27570273441879617 -1.0660176801062349
Ni 3.925966810153563 2.5664743651477773 2.568382779820798 -0.5070271998325332 0.39660448970289114 -0.018138104361607472
Ni 1.1152117524374825 3.1904410243147177 8.262761444524592 0.0673194511822647 0.5416640731801122 -0.6174627654779816
Ni 3.661445355901713 2.88641394056266 7.355857852395503 -0.41570984307377434 -0.6795646770150491 -1.1678498203533887
Ni 4.035953663373264 6.787730394523047 6.169348016927728 0.5887139754800635 0.23460082217216371 -1.0158143197789666
Ni 0.7447009953984318 7.278135134741548 11.388875701719222 -0.5203514277452651 1.038444912694289 -0.43726751463989216
P 0.21072259402350205 5.6657054571260135 8.227225353688484 0.22777351483768515 -1.7433634950930945 -0.5350396258850592
P 8.354663538622217 1.575065592989881 7.798266686471895 -0.7439970364575058 1.523579426218789 0.09096331585344979
P 1.740651288459074 3.075014466392564 10.420686878355168 -0.8038422907499124 1.2123535591927186 0.9716815911258103
P 4.0874682090687555 6.032777091889725 3.7881145726125585 -0.49551225721439823 1.6132862439573186 0.44342479249053957
P 7.039700769320233 4.063079898450946 10.209798020932123 -0.34621832394085533 -0.3678880956048051 1.901252883345132
P 6.406914921134033 7.701194162090642 10.224808714373511 -0.5971723906600619 0.4456814497352002 -0.45407044512984385
P 2.3953586044329014 8.419190002542845 5.791636428198669 0.3352993630355064 0.44288794615046306 -0.13702951408389305
P 7.064703531632007 3.8566783456047085 1.5193348243472728 -0.6150040195248441 0.9019946681526336 0.8903779098493116
Ni 5.317220986104736 3.1058093395253885 0.3870901095109129 -0.28450156365734874 -0.3836289033788296 0.1256058456279837
Ni 1.4620697336806172 1.1481210622818918 6.856924884106943 -0.01788279381769178 -0.08336827711501127 -0.2757515853788606
Ni 6.87018439022053 0.7575981557336667 9.438334039839795 -0.257321403698131 -0.3833360547287592 -1.5320779506081035
Ni 2.9334375672596136 1.6921005685815311 9.314943103637338 -1.1272526156573166 -1.1103962062216102 0.06429069165826992
Ni 6.38104469760725 2.0212840275688544 2.5587946225786493 0.3461884991441844 -0.218943575250881 0.023192636066379415
Ni 3.918222911598742 6.974397204727826 10.362086258859572 1.6719724449446172 -0.17803603840324175 -0.063339126378278
Ni 8.033106509483515 7.070730579865456 0.34538239357218686 -0.5304851737451574 0.04410701762154339 0.3997497202000922
Ni 7.723621648920358 3.80706137131705 8.16486844641081 0.27111382949653307 -0.18091104595819169 -0.5611334947586336
Ni 3.034614267514378 8.376322960834475 12.188800543112741 0.25259134521231336 0.1416749832757044 0.4989400519490247
Ni 0.09510898977686173 4.861044819661804 10.273609732955801 -0.10862808012306452 -0.29208220421808406 -0.24524184682577765
Ni 8.677585011963693 2.283474179805368 5.6166541398389755 -0.6879580432850668 -0.35644822919897967 0.785432420784157
Ni 3.634156471846217 2.754975494380129 11.524791512818805 -0.6051579799686997 0.18176490931805472 0.19155181350148948
Ni 1.1314405060016117 3.2948887762344126 12.80858531633899 -0.3353592697391644 -0.09570083053843519 -0.5551626218871794
Ni 2.9723106729572106 8.535493057734332 7.925757280520702 0.07094779196347137 -0.18913009143387427 0.9222374775620698
Ni 5.655810977642315 7.798666080072971 3.502979167633621 -0.48051475536430144 -0.3733673735518215 0.4001086462014077
Ni 3.1282187542464577 8.366121255503796 3.5395733804309546 0.03103835736304332 -0.7389093375219533 0.5899133951048035
Ni 3.3525478388695515 4.25786108543779 9.462813614606265 -0.10555921138975369 0.9535249748214417 -0.4054544838943533
Ni 7.30958060378563 6.121176811331751 11.40183701804015 -0.3003804396711343 -0.32828205117740883 -0.3268314347738113
Ni 0.35352116770092373 -0.11905363012741096 0.40590498182228824 0.5195019352607763 0.7985131652275151 -0.157583941196477
Ni 4.486166033963009 0.27466713604572807 1.615389889011754 -0.09501254622215895 0.39672481733083936 -0.6763338287825772
Ni 5.868817886198674 5.553649347466343 0.39914782039953994 0.20867947432071157 0.5130847188805228 -0.07925734027043124
Ni 7.8715418581880625 8.848032104658666 11.509992263048575 0.11843401046989281 -1.1233159996070718 -0.6494750567185202
Ni 0.06345930590508027 4.72314559463832 5.817200329483902 0.8284603464089085 -0.3890390186508074 0.5926606188326374
Ni 7.754308089401307 8.831514197356201 2.444132514852223 0.8167931944836256 -0.5497203678256855 -0.13924117702323116
P 8.639272141634123 1.5161776269668124 3.5237169123049332 0.03794793999868303 0.024752010133699306 -0.07531018269722514
P 2.076169021526829 3.305686861150412 1.6314578008089338 -1.1609512934613424 -1.4730881023374565 0.23277328204512165
P 4.749196539251563 1.1380187535487645 8.348077158626173 0.9695935982485302 -0.6849603941093235 -1.0948608295901725
P 8.409900938698788 1.628342169278359 12.436231204218046 -0.10095719384136806 1.3457655311286822 0.21161978789595812
P 6.142646476403227 7.838813269430114 1.2723695200396024 0.6966967087096453 -1.2016456858569111 0.8169304913924382
P 1.8727764747701539 3.2058023166638385 5.957004354758677 -0.5016235123184587 0.13632297493517168 1.1323680825070113
P 6.89988590078027 3.9635929403545846 6.109873610979095 0.5209420101414124 -0.4602297798630203 -1.5942253706711254
P 2.224595249836622 8.558788005779055 10.117512798131202 0.5509516691296253 0.36312101323346496 0.4462427215553089
