# total energy = -340885.3168434333 ev
CRYSTAL
PRIMVEC
9.15428676084285 0.00000000000000 0.00000000000000
0.00000000000000 9.15428676084285 0.00000000000000
0.00000000000000 0.00000000000000 13.39822400398491
PRIMCOORD
 96 1
Ni 6.91119359617517 2.1850000989401757 11.247755930664292 -2.391766658903674 -1.1238191644957356 2.4428691340064446
Ni 5.020769292144607 0.5353582543014239 5.86558180369029 -1.012167981275631 0.2595418083882175 0.5683549522077372
Ni 2.9235954207554067 1.8349584803145569 4.530730250071019 0.5269846167910667 -0.2400865278770833 1.0978181124462836
Ni 3.4153545533185534 4.580805114291009 4.393344544646845 1.0567910193016445 1.293328396374889 0.03635719847279545
Ni 3.8193881554855156 3.086431874338557 2.3927886778505165 -0.022608738538451387 -0.7163196251468954 0.44920514661774247
Ni 5.56575144815797 4.489948817809518 2.8375826574193415 0.2854397592009019 0.9073711019731987 0.31665192313764823
Ni 5.56381989364335 3.250440076631998 -0.0485607451834123 1.0839588379656881 -0.6835244329937454 0.6066466486990842
Ni 6.002612322786658 8.336653365103675 12.841032085194684 -1.5851846006250958 -1.7731042166906366 -0.7646825898313153
Ni 2.044921202339694 6.668394447401508 0.33312175033476327 0.23724340200133337 1.2478157566550705 -3.52914993523709
Ni 0.7227089725039987 8.957414707240341 13.625860217060303 0.3485863099523997 1.1442010705861971 -0.5581345600313098
Ni 8.085148489584029 0.2068548416568281 7.012844627650209 -0.07899380219639944 9.127416222564926e-05 -0.6221473154378446
Ni -0.15580687675008875 2.2548473072176347 1.2010479206196023 0.9480310415864062 0.40682153944520905 0.5454230260019123
Ni 6.836714318777345 1.3355555182741257 4.683107930986149 1.5479084898824567 -0.34158108227916006 0.05691959600517939
Ni 1.1784588025140377 7.720441703506184 2.2791317992384004 -0.7419882335575931 0.3120869294747851 0.586117675507797
Ni 8.199934091758479 3.947355930650732 3.6426289471095497 -0.8734986175954699 0.5995583743937352 -0.10289811961782278
Ni 8.237329353332978 3.5472861346677984 12.71153829042005 -1.1061636561975012 1.9066185185324194 0.026989384104650297
Ni 8.40623509906396 7.958645400306676 9.051626049833718 -0.3108065201004647 -1.4784123427638474 -0.47959558598414176
Ni 7.0946729664903865 0.871535705569741 0.3870496538685129 0.4298308558561888 1.2332098338164372 0.39413674488868894
Ni 2.3193026405703985 6.336643093800576 8.802968157508607 -0.540436114310282 1.2960835905225225 0.42415283163480505
Ni 0.19384019211448694 5.070321446588366 1.0056075591726252 0.6481560807967806 -1.0949536464142948 0.7882999721399392
Ni 6.706036874719582 2.2035192211348416 7.093622969794525 0.5852424719916953 0.8822161999741258 -0.39075085913559154
Ni 3.743068866441063 4.534722434544125 0.5192988889696879 -0.3278133390711064 0.8057608479288639 -1.4620912370063208
Ni 6.1383429331575465 5.94321931003382 4.915044603043949 0.46997323240302935 -0.48231298491530483 -0.0076567452143093935
Ni 5.68684435393703 2.804241829468184 9.294762991790268 -0.9546182078856205 0.9429479706365438 -0.08990273579941936
P 0.4800224214579661 5.764756488884533 12.31751032372455 -0.08389509615275874 -0.009924201092247424 -0.12434189131389554
P 4.299200943775782 6.547109301599666 12.584925349701106 0.4154910421947489 0.14814156483665455 1.4536148241041933
P 2.7818412896706817 8.959639198932534 1.0069010598973442 -1.0571275767054569 -0.8736515982335663 1.2084745358532862
P 6.655248891557939 8.152881057610886 5.754402990514702 -0.31268111141535826 0.014067790946975774 -0.8004728600570471
P 5.017821611795283 1.3047696517686087 12.815776323344528 1.2704643472925217 -1.8131350073602777 -1.298171326289487
P 4.375099135627473 6.448435244191707 7.950841370810407 -0.24423680260003103 0.6157347270432815 -0.7948969086311666
P 4.950217203783613 1.556109750125871 3.5520436175173127 0.12694101949963943 0.07980858478821094 0.6796253550496554
P 0.6409502062434953 5.861755311808249 3.317064975956158 -1.950735306345976 -0.8756393180875566 -0.3592083084426201
Ni 0.5668810408942718 0.25832115747028833 4.891624275697021 -0.037893175501347645 0.5410148696318876 -0.7651831836168177
Ni 1.799430693247084 6.921894957443367 4.706996957817192 0.9177097648950453 0.7944464513573093 -0.024232390184803426
Ni 6.14247151650396 6.231387104184033 9.101560853465683 1.5158206082089767 -1.3647744681310174 0.7699777767919836
Ni 8.914325479276776 2.826184654925729 10.459980118449348 2.266149757532097 -0.4981445526309228 -0.4954330672370306
Ni 2.8964712689695467 5.642638302983969 6.525766081927465 -0.2607713099199444 -0.3217144252622201 0.29844131366689247
Ni 0.6870493637066181 0.46238577251073776 9.705204594716632 -1.8111218335849906 0.7956271019289717 -2.286041611360018
Ni 1.8246873705259188 1.208558097509619 11.4287654744011 0.1692744901605278 1.211449045100578 1.709412592068946
Ni 4.518427804041651 7.451040197294213 1.3882567473767904 -0.1371526699253186 -2.7169299619464438 -1.5086618856770082
Ni 5.875523359154159 8.426255524293685 8.10532270683198 -0.5922117042206768 0.6123601541440938 -0.7170382484804747
Ni 5.110627771364992 3.230520348557063 5.1408579726618004 0.8425325082312587 -0.5877937776586393 -0.03567585613505469
Ni 0.7230147256830899 7.890326957924674 6.795230752718349 0.7539325504036628 -1.0639921650357742 0.47224788736981893
Ni 5.649549789517322 4.619738296047764 7.307284023686516 -0.14324104221124365 -0.07168801256360557 -0.3400340495070144
Ni 0.6902039309376027 7.517317233720006 10.958031907758224 1.4925621519016683 -0.7595820353799563 0.6355628175128022
Ni 4.6206628790144775 0.6158619678417647 10.407271565917243 1.1455673548061047 -0.36571705609541527 -0.17767376996781659
Ni 8.423591626835135 7.493195688004265 4.3451646177942775 -0.607092220876935 -0.5771586665422963 0.5892819321683915
Ni 7.509810718544709 6.689147215575164 7.112032240547601 0.09391777049608342 -0.9291108076431354 -0.5913624688465041
Ni 2.625440299707329 5.730153284783773 2.152907000279741 -0.5359497964041544 -1.5152225696136612 2.850955656207006
Ni 2.840044245139631 5.707057019189537 11.204371934665796 -1.9076837265721402 0.2592502452897277 1.312670034126294
Ni 1.3969807826963732 3.7726646756626914 3.851613991304538 -0.5494411460223699 -0.5224342784162228 -1.4846398117307977
Ni 1.956326014697591 1.4165618021597395 2.40802232651297 -1.285886852495179 -0.28367341132909857 -0.05158070029076923
Ni 1.4344492785652645 3.980320517414445 8.158473411416482 0.34101029737735467 -0.7658138752222812 -0.2975085174399779
Ni 3.606303821661871 2.743731993725851 7.155361310825303 0.5197798715125113 1.5978028036097385 -0.6648787928681001
Ni 4.237793987927132 7.446023648128283 5.306500215148889 -0.554400032689542 -0.7830199546879224 1.2916350678328659
Ni 8.414711968639965 7.1212203982079005 0.18791370684072198 -0.9606528441154745 0.36199564137977014 0.08211460721356825
P 0.2622913716550765 6.0065761289706865 8.026393530621093 0.005097469127565414 0.36714221857771606 -0.08384110298637175
P 8.933979733034537 1.9908285216435597 8.035142282515032 0.08096249588699606 0.41219385950071596 0.49025872212494276
P 2.3882252658811436 3.7086029766422905 10.514350174035494 -0.8498388120846848 -1.4019929861628433 -0.76645150880628
P 4.266492677042445 6.471879372684311 3.312295592533805 0.5159342725141759 -1.2661806323155032 1.315098955282761
P 6.97770864405774 4.199318520510335 10.476566770700712 0.7188249080672524 0.8180826027190105 0.4321543617830429
P 6.525230556149715 8.084361220919304 10.261391597772144 -0.5584083825179867 0.43804758733902627 -0.0096002420939254
P 2.616871887263331 8.935151481744827 5.487952826366776 -0.13705625355677042 0.1929587211513451 0.013048348543525915
P 7.176521444761522 4.033268912260686 1.4052992831107542 1.0233455951590054 0.7440862537372024 -0.6152369614712565
Ni 3.1593091515465317 1.78794206331416 0.2592887655849577 -0.36443124740445626 0.36721549501781275 -0.2478366041361474
Ni 1.6185877575300198 1.2384743067692172 6.892019942474365 -0.37848335462214816 0.6329323218684906 0.445729015143684
Ni 7.389257915686799 0.9948421178968334 9.363053971311874 -0.27561557402162856 -0.4539958831381665 -0.9177179924251613
Ni 2.8080866299238236 1.6503256698626476 9.07191103395194 0.02082670693736413 0.14214832336769712 0.7060655515190549
Ni 6.901306966432095 2.2521559468986863 2.4555193435703218 -1.13905192228509 -0.9852256483588323 0.02302731413310873
Ni 4.413940774516236 7.263258312183399 10.33504149678597 -0.5583998978775544 1.0548799183218607 -0.0862276009406773
Ni 7.12090915245673 6.333594716296462 11.567557278277622 1.7483655762933759 0.5161960108159949 -1.9792136162913272
Ni 8.151489606017417 4.198467171838015 8.660330637747764 -1.0317500171726166 0.10699491539501572 -1.7146730691369372
Ni 3.3270065314200274 8.596955510237299 12.272599392687956 0.5991603676243681 -0.4796094699412128 0.6866555224235593
Ni 0.6555714331190861 5.145652072658512 10.170806268179907 -0.3827634700547408 0.014954821537619404 0.81908147629717
Ni 0.0003286388960892231 2.8326475814059235 5.650191505021942 -1.1335109378622026 -0.9124186916994351 0.8338295811406219
Ni 4.160165635870403 2.7897689020387393 11.423433102340601 -0.6437458675442268 0.03830120957304372 -0.39902646888082244
Ni 1.4455442741658253 3.1822314856915854 12.674023107688484 -0.0002506825582253747 1.2142268649560315 -0.3336245464362448
Ni 3.184391897376183 8.460080614016517 7.55134646403846 0.7718138015594578 -0.12016024913238013 0.7512442049382223
Ni 5.773288284181334 8.039779844207477 3.617078417224462 1.7163651121273797 0.9707428813616249 -0.7828536043133871
Ni 3.284704572121189 8.575955576320066 3.254709635995118 -0.1805842587463922 0.33493375216597154 0.7200222708094632
Ni 4.026476431455722 4.748484185590907 9.318370982016578 0.006858160572413995 -1.2402844812750318 -0.825859418450952
Ni 5.149725730284131 4.997169540776417 11.347143107013906 0.15675887419202036 -0.7223969416892269 0.02554673812085278
Ni 8.393895120458716 9.183855145503937 2.614985188754028 0.24994516583871795 -0.32392711664282275 -0.3826410855442636
Ni 4.866601948160245 0.4460911420082637 1.6586331851328697 1.157099009594788 2.4600844694434665 -0.24481427237005582
Ni 6.328459161402143 5.431009500761388 13.389542303340436 -0.5984947090159112 1.2016657404615692 2.1274806509622524
Ni 8.053456348685396 8.850373631697966 11.532815844446196 -0.12389066270908985 0.02594371644895532 0.38227804577789004
Ni 0.15115649905612424 5.36296568698336 5.696830765406213 -0.23611623037542562 -0.28169623299806973 0.37054687338389086
Ni 7.539205133456757 6.098118996962113 2.3933653979188625 0.0750813545158707 0.2974568382664361 0.07076884318344585
P 9.006820393095314 1.7775885649443295 3.4652097146553644 0.05598731399889712 2.2220386261454954 1.024672284390229
P 1.9124129009221034 3.4700331083698326 1.4479188961615228 -0.04746256435733761 0.2393056838470008 -0.49067035574106466
P 4.875115434883448 1.2921184274121935 8.002544782651965 -0.1586360366100752 -1.3780323615821881 0.6990268995047187
P 8.771335519474167 1.4345865928672514 12.491699923795998 1.349577962896237 1.2769718093937361 -0.6398182503550465
P 6.879657078152124 8.144495730902872 1.6200057565552073 -1.2983417904290802 -0.8804943321870127 -1.088640045491441
P 1.9955795964923146 3.6391127855499987 6.001707879250903 0.5445452513826493 -0.002360272702060451 -0.46090289467064494
P 7.104916613418627 4.090986690529281 5.702980615277878 0.45391643605048276 -0.1087995727039223 0.14794538966544843
P 2.4926756782593618 8.73800476123849 10.207865567428877 1.7852897030132349 -1.168046509745227 -0.8847433372713536
