# total energy = -340851.22382725717 ev
CRYSTAL
PRIMVEC
9.39446593896267 0.00000000000000 0.00000000000000
0.00000000000000 9.39446593896267 0.00000000000000
0.00000000000000 0.00000000000000 13.74975050883708
PRIMCOORD
 96 1
Ni 4.052969936130486 5.0640023720257314 3.5976633814135424 1.07574879135107 -3.3550633683998994 0.19956362806237243
Ni 4.717891453950535 8.100669576809036 10.446331528794936 0.4289546238988225 -0.3780843194115166 -2.538075798517281
Ni 2.0346064839622082 2.15283583915401 12.77217115742329 -0.5679579738796348 -0.11081866001648012 0.7649404714783923
Ni 0.012536914938693603 7.468083811120111 10.206040815711075 -0.10183625401221173 0.036303976637356836 -0.0015190077476877064
Ni 4.674949349653219 0.5238823990680022 6.934260188081988 1.1709932510783767 -0.5201123151512657 2.1729495819283287
Ni 8.751969118862053 3.4292995187194317 0.1698585222420663 1.4251375426001067 -1.839191338127697 -0.9818868137935864
Ni 7.109337336212735 3.5103925496304864 3.4109145486669594 -1.0809539897010931 0.23891719015933044 -1.8607731780635308
Ni 3.0798629596638696 6.663118987948914 0.8066811921178425 -0.21034092118353448 -0.7760730910564441 -0.3765732820836289
Ni 8.776986581943163 3.9850291576841523 10.123996125389537 0.027703122342223257 2.1804237788181866 -0.9122914220929514
Ni 8.682966765752495 2.203021076772969 8.584092828955741 -0.8326342752809403 -0.8645838316043432 -0.7514984870408734
Ni 6.524776080952134 8.006311559840706 5.791944786423704 -2.4541303087425606 -0.8810849145831601 0.4859850344502534
Ni 8.543402578169706 1.373517908289021 1.9596555549521784 0.3391223363260224 0.3263303267676767 1.10282585007352
Ni 5.0822652140196025 0.7572954235594173 1.1500855645251202 -2.41142377101297 2.127756530331458 -0.4276839847165151
Ni 0.38578938486805253 3.8903329399381565 7.296841484029434 0.7528110352047099 -0.03251699879109884 0.7179800435684538
Ni 1.09444589991972 0.919984089315001 9.495577744838718 0.4888790681685967 0.31197302960474016 -0.76681943366866
Ni 2.1610935748086457 0.39394941807580763 5.0195937915785995 0.617973129455497 0.9938074764905723 0.1742529172117257
Ni 7.228017625774756 8.265580033784554 11.43488394688816 -0.5150079040451646 -1.7627773808433318 -1.416609707634754
Ni 7.384369724182157 4.33856170393587 7.571904873736809 -1.5098237671955934 -1.6982637745409783 0.31900242564769576
Ni 4.184426699515378 2.6508176953325564 13.49796505743649 1.9439586497437746 -0.6656277552189827 -0.3184414109379032
Ni 2.7514887934839547 4.413905321626633 13.029305208681434 -0.5868676662999441 0.9876116320925056 -0.07352172333823467
Ni 8.329734842414258 4.79993332593226 1.73948121201311 -1.2302556362841202 1.2601645080284105 0.709562766039036
Ni 4.681384558894886 6.355215363283734 5.830224417222277 1.3617256540023646 -0.07589099490135963 0.4335784958240791
Ni 3.261241915618427 0.014896804809506517 2.9251492561349304 0.20631791606707048 0.5772946778995284 -0.46724014974258243
Ni 2.3091785430953653 3.307359349439369 10.56840228115304 0.18073775360512098 -0.21762022845376716 0.3909802015375783
P 3.314912500140538 8.367340889997314 6.509255483597159 -1.3042350159850635 -0.9513475075541485 -0.740458427176628
P 8.571369903589332 0.13645180098167328 10.384581703473067 -0.4416923831804651 1.4633096827944543 -1.7336429253712209
P 2.5476006968826304 8.377392968666781 8.64713533280557 -0.42133721656288087 1.433723227386589 0.09661074394721426
P 3.9065759717320874 5.0367302370935265 10.688877853176495 -1.006531094704828 0.06044020756392817 0.6489981170821015
P 3.1461503120860668 1.328058087091315 11.259079667085434 0.7793669313163675 -0.4998381382832618 -0.5099662278561992
P 5.179854927307837 4.828144907469088 7.236865333897095 0.3966474271256846 -1.5373741660100362 0.4130446375367854
P 0.39765271659123147 0.5072776803312911 3.810633108341757 -0.31766725177604 -0.10071936679894912 0.06189442351195147
P 7.233926744917834 2.302743333853698 6.675531895935797 1.1542193740541475 1.718931073082343 1.6512845775779625
Ni 6.912908445652117 4.550641774929507 13.194288003045509 2.0387580515138626 -1.030278574833413 -0.5157488959762473
Ni 4.999152372908608 5.399431782206364 13.111130068497493 -2.1399124489677015 0.5085549493309693 -0.383211870446069
Ni 2.021426048099348 5.1879811404378255 2.592886720458481 -1.3779714264372656 0.011467634319967347 0.5850390977316376
Ni 6.6202520393799675 5.936701295390245 3.05478255366025 1.8508564331704511 -1.2758127560886285 3.164970913052756
Ni 9.08676909981759 6.671217017680764 12.661307063611734 0.42535919323808036 -0.8590973545684751 -0.8739981829397077
Ni 2.33087036519611 6.446942929759121 9.468064172129125 1.195339026912593 0.8433814864951154 -1.8095303207281543
Ni 5.933309893147555 4.840677125174758 9.950130863378755 -0.4481972741785184 -0.5598975654690035 0.09371465334634183
Ni 7.093347955002051 7.143091652716838 13.616611526920744 -1.3934111580311033 0.2215866693006829 0.9456134332838488
Ni 5.443754873012477 7.9270504498086645 3.0460100012662803 -0.6471096418101372 0.41060671751925415 0.2686208878713503
Ni 3.9830751087465366 0.8790232779068348 9.30779739972026 -1.49934343648956 -0.5607360022098988 -0.07736346568182806
Ni 2.430808694995902 4.242503288613171 5.989391097657129 2.024453976186365 1.4453896079809236 0.08512614034638243
Ni 8.242507225175014 1.8406577324377953 4.599910112662354 1.8478973505421272 -0.31740268526074367 -0.13205082992237904
Ni 0.2656924098262606 9.202180115195521 12.115001952984588 0.013663099309389371 1.2767362963441626 -0.011030803892864875
Ni 1.40342049371417 2.700185614405494 1.4523863296403288 -1.0938385589732451 -0.570066021361573 0.4102102534117838
Ni 4.407385562190549 6.458723590181093 8.15646237121099 1.1239176377468127 1.5659195817478966 2.5792296470477707
Ni 2.401892528505607 6.41679608821677 7.063535556450946 -1.0778110731967374 0.1329311756448033 -1.4589871441597004
Ni 7.532651976255847 0.24724825463769776 7.017914150437245 1.5681842094123573 -1.0886523867866154 0.315735839081282
Ni 7.39340720051863 2.107770585530246 10.598651522375295 1.0660282216291963 -0.9315734102510149 1.0546875998053966
Ni 4.754642605123386 2.762076356718056 7.611628433966687 -0.0031675990947042224 0.7722097514462959 0.6239979954933382
Ni 2.8544427468845863 0.5286031182562325 0.5017293086843877 -0.5957343726619547 -0.2203276000826012 -0.24919697481878372
Ni 2.242017505330869 8.679265346130281 10.815182691381635 1.103397920526906 -0.08662612193067662 0.25869488700689
Ni 4.455015505044934 9.111467151053127 4.924940788376416 0.4838042247488506 -0.6992004489681055 -2.136487225336237
Ni 6.776970521963173 9.103895211419866 1.5570632281138392 4.036238584435178 -1.3764213083413264 0.9822172005498117
Ni 5.030097744064888 5.933704460721497 1.732345175604394 -1.1362684460026817 0.11764879556443608 -2.164352841398253
P 7.0497482380814995 5.759023759057901 5.380896500697154 -1.1865507391970016 0.7601800739752714 -0.1967277012754741
P 1.9879911434408164 8.256251329000648 1.668848919044532 -0.5653313348900652 -0.08391669341931354 -0.361963502590254
P 5.8648242356705405 3.9933244712029734 1.355287946926312 -0.38357979530844905 -0.2198987400752987 0.2706600297885661
P 0.2300732918119805 1.2394025110130449 0.08698336112204128 0.30825649998510135 0.2526042007281198 -0.27728679107646437
P 6.271294598092764 2.127780798208715 12.690593372064248 0.012107067676179148 0.031216020591488175 -0.4498083274193802
P 5.887671577094971 8.394237246287672 8.319163249772435 0.23313143671548883 -0.45923836248402844 0.3888819242476529
P 2.106596277274467 2.6828622190162466 8.093488446963299 -2.591092202813312 -5.67662091327834 -0.7931948383383952
P 0.40858787506904287 5.852141706508131 8.70935300253654 -0.6537073496323129 -0.6465591686233058 0.13962272873236597
Ni 5.0417186985640745 8.836979642114386 12.490975060280935 0.1550992271014103 1.013581830904022 1.6177167689248462
Ni 3.4366272022354902 6.915078567308796 4.235445226272638 -1.3321553965444155 4.754211686025096 -1.5642995296459703
Ni 1.1483137682288012 7.804424484507228 5.042735179790276 -1.4439112236631841 -0.5546196048995158 0.26173701626732343
Ni 7.614139574740844 0.25433168203655493 13.139398956277201 -0.8538361061695359 1.884135506938555 0.8783587739012486
Ni 9.368246091494726 8.275942129833545 0.791697018774106 -1.3944894786969468 2.77196828176851 -0.9093379958915824
Ni 0.07017478247212701 2.7340432700361057 11.84352630986027 -0.5177620697515342 -1.0742799201150275 -0.5189447772057255
Ni 5.26100432501517 2.5821159651364787 10.598610186724692 -2.3069621635627686 0.039723029621234814 0.5275721138634204
Ni 1.6862972608321942 5.822821577977847 11.303958910281482 -1.9235003818894227 -1.3694495050091835 3.3278502983202167
Ni 8.759813498010656 5.95931377516352 6.848654995128928 -0.33551944946611245 0.8336819998191642 -1.5744445884997724
Ni 3.345557248383339 3.829071626850692 1.5837237833064346 2.734678029958484 -0.8356108414107609 -0.04314979591459665
Ni 6.238395177998867 1.2433200033543226 5.26358310594486 -3.0968109682470666 -0.3014006534055325 -1.8937362632531127
Ni 3.550337819259055 6.91285207885584 12.11509777653826 0.7516326986258927 -0.10519000097579304 -0.4685118173661544
Ni 1.0440164061835586 2.772119040921475 5.279106521639649 -0.6195939528883717 -1.6349894399623648 -1.8057176318502839
Ni 1.7123105373142045 7.901910858668954 13.044402115617727 1.3685712161692882 -1.0205942576661133 0.7711681975556589
Ni 3.6847820228466492 2.133285955311806 5.520511418396593 0.7681178407651094 0.34004227703713047 2.8728848521799297
Ni 2.9230881102843873 4.297376364789199 8.47131790075038 3.1492856411070145 5.1631055346183015 0.6244109146610408
Ni 0.39632058130587605 7.83755876625228 7.335890521597192 0.39222024459226645 1.9727845728365319 1.33863097696643
Ni 8.554901404610291 4.315949224162595 5.072406661350689 0.915903822034558 -0.269961975280277 0.29495104112544684
Ni 0.3754883528483616 6.5024360406942 1.9425782945733419 2.662489937830008 -1.1660737022895724 -0.9641292326998494
Ni 5.532504393751209 4.085578127776949 5.143823392234127 0.14619318286103208 -0.4782971788876923 0.8592323374844428
Ni 8.193834496589497 7.517611436115833 2.7723069302423995 -2.1259356750726353 1.9846129329300275 1.5691329464788717
Ni 0.44170336788200276 0.9045264348825346 6.668037930370719 0.10249857018655896 0.34700379595662817 0.4701534667346355
Ni 7.362264545575378 6.343134079948283 8.966556572843428 0.6632744244954577 1.1851525732978945 0.35602219740515456
Ni 6.200817313813948 1.1280123271028988 8.670923060281229 0.7607395460231673 0.8054721130438516 1.301830520308629
P 7.63064565158407 5.5749391968820285 11.25166837282156 0.2343725082114415 0.6365588628774843 -0.08678141656161828
P 6.244191563549391 1.6203575036537077 2.9785943734719313 0.1484351848176734 -1.5678011150413258 -0.22800877077694282
P 9.324486668651387 3.5171753541158646 3.138696742724988 1.127825200331335 -0.9075644489309272 0.29718712954481724
P 1.7480001138238315 5.823873758175025 4.620947140479676 -0.9758354653931839 -1.7167317514381788 0.8129116000410322
P 0.8766511752301617 5.164898937362239 0.13629867118511974 -0.2944681879517574 -0.07446968907380078 -0.14023850793949394
P 8.297436668147318 7.9589822398998 4.945524063483705 2.938050233133669 0.11381270964779754 -0.6254090169082519
P 3.280763616062493 2.4370184370524597 3.682513259296485 -1.0741081704238533 0.6584096402039886 -4.040794579236977
P 5.102331793494349 7.9270316608765725 0.7251907752930317 -0.6204660710806799 -0.5653292780075361 -0.06078344983595983
