# total energy = -340889.0499203958 ev
CRYSTAL
PRIMVEC
9.07440980301545 0.00000000000000 0.00000000000000

0.00000000000000 9.07440980301545 0.00000000000000

0.00000000000000 0.00000000000000 13.28131600211455

PRIMCOORD
 96 1
Ni 6.4137927167659035 2.265272095733479 11.087747062926162 -0.22129690597440596 -0.6629337533265874 0.7466213614542303
Ni 4.77970025630035 0.343098890385626 5.894526867854236 -0.5025282835209152 0.010405768714356273 -0.9876383715653829
Ni 2.5105443132511156 1.819473574515937 4.606371773102271 1.2551428864441028 -1.9596007271564055 0.13777616244193044
Ni 3.4548546011469985 4.111397211292344 4.707044180825917 0.6893137859820129 1.0544754837945904 -0.49000778245640125
Ni 3.972440776838699 2.972731218235606 2.569350117328266 -0.8618895726016317 0.30622095761231133 -0.20396947043955194
Ni 5.20999061148372 5.1045005996948065 2.1690116659652543 -1.3108111265406843 0.08657649963966381 0.49818723294340006
Ni 5.429119454896938 4.4859525426127025 11.797421248815617 -0.15409289732408302 0.5434908419762059 -1.3442025575169365
Ni 5.327068644352584 8.097984992722777 12.16551287816632 1.2309925144501446 0.17815019538360286 0.3352499978548097
Ni 1.9783120404387873 6.7356257282158465 0.32638836507730057 0.16746160532150517 -0.4347483477624642 -0.5252133838232568
Ni 2.8794735106093987 1.9236659457297263 0.1796660508740683 0.3811449606147113 -0.662992888699297 -0.15424870617565692
Ni 7.8975494331190355 8.992794376162015 6.723865293353186 0.43685922345787986 -0.612884144968364 -0.06547545599499047
Ni 8.926424144228758 2.408566097983692 1.092657828861386 -1.0966973685782788 0.7317673271605332 0.6395377430001501
Ni 6.870789059449899 0.5913066794141197 4.420791929481292 0.009631095331860831 0.3269959853761336 0.3692507802802867
Ni 0.765747685231151 7.594981393284392 2.6187702595393283 0.014305360879078589 -0.1507455781184049 -0.06655557643304666
Ni 7.757050349030627 3.977631339139194 3.6354280929826923 -0.22660160601677107 -0.20121581895381474 -0.30495108976095225
Ni 7.756115684840154 3.8428582075186406 12.525276921812189 -0.862386052622076 0.47945391819995486 0.10870727010043213
Ni 8.364881528355939 7.212449655911349 9.22063283792491 -0.1858159394589768 -0.06816894366675355 -0.5259728876971006
Ni 6.599255500502833 1.094809371381399 0.0884146952140142 0.36171359136297704 -0.6156411388882107 0.20746128564289432
Ni 2.187731265562618 6.482985090089814 9.12986877806125 -0.6961272093594205 -0.0029487982156787924 -0.8489839202835573
Ni 0.3204609607159657 4.843348165348732 1.0128765269562725 -0.605486309842396 0.4780516385357896 1.5887656331081348
Ni 6.540607591153006 2.0216332719467673 6.529705595440043 0.8580192910129482 0.08258280509923842 1.2651791876341822
Ni 3.3542012496835474 4.5644008137451895 0.4345408086476214 -1.5385378473008342 -0.9662668478681422 0.2851263417255412
Ni 6.1707165063754 5.700380781555517 4.65658864847764 -1.3225713524004061 -0.3401525773627497 -0.031302409657707385
Ni 5.733656641618308 3.1054898309213517 8.957464069762104 -1.0707407966135172 -1.037515201791168 0.12460208695381766
P 0.45335931930980183 5.6559615464839705 12.318406698349564 -0.33052739556815985 0.6716011991935982 -0.3040164937618248
P 4.098783781925755 6.049564063588838 12.613252415600778 1.030624645318922 2.71423981670879 -1.5631700440272176
P 2.438711286728876 8.439854300605402 1.5228492729799383 0.17679213869381166 1.278422940017966 -0.19564372418267598
P 6.430752788338676 7.69571641443439 5.589681151205914 -2.429001374885417 1.3111587396880904 1.283239901790635
P 4.730017863651378 1.1895280589558226 12.309415773301783 -0.7155498368604064 0.7497815043497668 -0.1766304163049668
P 4.165144939449396 6.236043181202788 8.162112030598896 -0.2386217704060987 1.2969690784512695 0.5660874963297993
P 4.6104262193188115 1.3038565457109634 3.6728146606016447 0.6125581290875128 -0.8676629847502993 1.4447758856563246
P 0.19929218399209506 5.627195668000456 3.295758421991047 1.5050574561552015 -0.3423197602173976 1.2374249003390494
Ni 0.7101387956618058 -0.03523956230374747 4.702688464210116 -1.0014570226160302 -0.17397446673935843 -0.3915345313791515
Ni 2.1376042268424498 6.434727379750594 4.67199518112411 -1.2568436711852935 -0.009422578865480546 0.12917402259521626
Ni 5.82680545632912 5.82056226251314 9.602736263164065 0.1948376833416128 -0.8422183194249495 -1.8720842322009756
Ni 8.691387860758251 2.331370095378248 10.255712630330224 0.18164252480757748 1.238359753448493 -0.6586950326548914
Ni 2.921696738553813 5.020907138309907 6.95751046982952 -1.3455562433313535 -0.053464804687359535 -0.03194030035202241
Ni 0.4843620397637219 9.355897802546664 9.233317047686505 0.5841294414331746 -0.49201555691504945 0.356140982371206
Ni 1.5780398322659743 1.2937204301696115 11.364888607016072 0.09739775862488388 0.3552709210614268 -1.1980700526905108
Ni 4.381778320218146 7.3965966502539215 1.1784137220578388 -1.1085995193325036 -1.4426513831141543 -0.08963971194601981
Ni 5.785716529586737 7.866279017581435 7.86770551477311 -0.44046905229632527 -0.24370175603216737 -0.3226197106853089
Ni 5.820761899524697 2.9860796747811107 4.516484301207539 -1.5692671580638908 0.16636323005100379 -0.15665628717588503
Ni 0.8859237215430038 7.564827130129592 7.089194672416703 0.08739822421001077 0.2970092092060563 -0.9235497686155901
Ni 5.635317264607 4.957023294611502 7.223893393878403 -0.7184911788769175 0.291528131486827 -0.292863819579115
Ni 0.9101088380522347 7.520834392310008 11.028512039274164 0.4133112609346108 0.05668562561750237 0.8852254191140948
Ni 4.711215686926507 0.5731170253383455 9.981386875544239 -0.26188819713320705 -0.49577759506064295 0.3347301207955977
Ni 8.095798060005261 7.160081238015967 4.641872678402966 3.0061883235624873 0.19350688034533126 -1.9625952910083557
Ni 7.724191911810184 6.360153881524247 6.877290873939942 -0.704592052297322 -0.2183969587187916 0.4875096986248959
Ni 2.367758477939413 5.16250422596188 2.4800996689885952 0.15483234659326883 0.8631609831148876 0.8023605639980633
Ni 2.5237022071946793 5.1120232852666785 11.350438517143154 -0.05543632659143356 0.4582263762797463 0.6926881017708845
Ni 0.9983483971606555 3.5187475192550193 3.806451676138243 0.5984180901417049 -0.14134176830600173 -0.5877696092889232
Ni 1.2183574583066505 1.0979763403374703 2.585460824160957 1.5324211928801352 0.2902268961769002 -0.2544484530257101
Ni 1.1173774280970141 3.460507958337923 8.040668299263654 -1.070626639633156 0.4450569287773238 -1.0647203014510502
Ni 4.318838215119833 3.0121867512470635 6.880106663243865 -0.37823704293929694 -0.13663587818990017 -1.3703995276272787
Ni 4.0887837825286475 7.0402082869852975 6.011256443393837 1.323962833431294 -0.7662288512725127 -0.7608339055091865
Ni 0.8557494946870474 0.3977513371814183 0.19352358179904455 0.44376906320383575 -1.4272301634630775 0.2989889586402463
P 0.48763880907615 5.726769164719574 7.8715167668119355 -0.16019772467024024 -1.7594673426334924 1.251804308989173
P 8.382948677901894 1.78335742424326 7.937100247431463 0.8756588584715822 0.18740873786739337 -0.32372811325813927
P 1.9187294668984858 3.115816509064645 9.976817910302456 -0.45517293416540316 0.882338841594919 2.414762605578215
P 4.1201086445239445 6.251750984248518 3.722181263795971 0.32316144212139186 -1.488933039789513 0.015837481252888853
P 7.266288128164565 4.263720251110726 10.233160907551918 -0.5703619553354371 -0.6386969922664096 1.8239565234558135
P 6.398121211358639 7.823819854986999 10.16582425099453 -0.34082877749416784 0.561046591471782 0.44821912855538937
P 2.4331123759956497 8.48744050463302 5.665038678423105 0.813684730761631 0.0934868536062519 0.5755859227385378
P 6.876850765073554 4.034409920108074 1.3611750540520102 1.1000966240678152 0.45970913147285997 -0.787845915321656
Ni 5.047994251014415 3.1518237664219275 0.3844927172911146 1.6557963494053871 -1.5433910616280775 -0.3717475785602114
Ni 1.2564790531045191 0.7659681933848259 7.06486345791265 0.4793456747568648 2.0293056478517117 -0.561218341162956
Ni 7.069455109178473 0.44665060828050773 9.05424446320134 -0.36095485882008155 1.0392838636558166 0.5794526047827957
Ni 3.0254444636964055 2.023420930641169 8.57757843023316 0.5068377095295464 -1.65355871832412 0.32645862481542487
Ni 6.3569687637489425 2.128892793610849 2.2608519508094034 1.2020323797723687 0.23729482406455904 0.9957890256969752
Ni 4.023792860857061 7.065680154778113 10.39488775805562 0.056657857703360494 0.4519436285948281 0.6485111501433541
Ni 8.440144681713122 7.345661989077907 0.3021805625440289 0.6295490072185546 -0.2826462556161648 0.06893718929134579
Ni 7.636723677519145 4.058166724483418 8.183336167250346 2.45919563908061 0.03223006367829933 -1.399972356188389
Ni 2.992404538283637 8.653502200610406 12.163599992619215 0.14458830026775746 -0.12016899088312853 0.5816208160787081
Ni 9.548547518699664 5.0511430711512535 10.169344214484674 -1.1661289810075401 -0.9394340439460144 -0.8717926906479566
Ni 8.775997656020172 2.0220143971506497 5.612883509153705 0.6806553389760664 1.3955148346376676 0.07183148012000531
Ni 3.8185660129759382 2.9018328559038404 11.115172651109356 -0.2258639565197981 -1.7104752290055059 1.2572239373428478
Ni 0.976243135335469 3.4276858187559447 12.496084546076712 1.500967345246228 -0.3029957658067943 -0.9849757371315553
Ni 3.163393638682647 8.388293505165866 7.778189186231683 0.6134621289590209 0.6489006722722889 0.9657585407731563
Ni 5.900271876582284 7.922603878069503 3.170701260746613 -0.11222839587981316 -0.7226139427960393 -0.0440144579077371
Ni 3.483856414280536 8.275462295997405 3.609755680737358 -0.8733695482167733 1.7404422076812411 0.031149686129926996
Ni 3.828602310011511 4.420761983929558 9.464531189826646 -0.4036714238520016 0.646581537220809 -1.6168101979501768
Ni 7.2912518290188695 6.213429752439091 11.292000226655462 2.425194856655133 -0.10496477233886439 0.9672762629692631
Ni 8.107358857856365 9.349273483526801 2.0505552302756813 -1.1042903504341883 -1.605633612508067 -0.29539507064140097
Ni 4.6436567073335215 0.5979037752051339 1.6549717695515853 -0.6868244439012559 0.06994763283373115 -0.7213317336495061
Ni 6.322231923737936 6.103701991359389 0.07063611189385607 -0.5876395114689621 -0.9230825991711845 1.1721337924407231
Ni 7.906841628566076 8.73302125207761 11.664714360264684 -0.1187944791331051 -0.036579856006562814 -0.7970057274440532
Ni 0.1858257601215792 4.880090449884929 5.722852649529199 0.14145463973478217 -0.3209112126346344 0.22375668036880822
Ni 7.4162608958923375 6.023611252086362 2.3995488571480235 0.0401698873506663 1.0080112787947801 -0.8674696377925705
P 8.41843869391105 1.8644009765259937 3.4663300995477093 -0.18952501287944779 -0.234049577654384 -0.2865049672406227
P 1.9831214775354 3.1734480845374526 1.6739236740351244 -1.185777608476403 -0.1821929979944088 -0.1299065298858666
P 5.110435263583834 1.1727766988042239 7.8819296518465825 -0.741476069807865 -0.2998068265558514 0.9032653073349411
P 8.521796219440144 1.6017512645932372 12.336177114701067 -0.116998820685263 0.8264322602352864 -0.4285514749231329
P 6.450217396965534 8.0389741069883 1.0105843310872078 1.1263925816498666 0.8763489425600713 0.29376267724430055
P 1.8736115022864879 3.2935751190373774 5.958821782308256 -0.06610511915918937 -0.07217549372298537 0.3526357974314249
P 7.093293583240363 4.086996123834246 5.928938844000982 0.6814822057527361 0.3765974504533449 -0.7834819819260055
P 2.5784844180479833 8.794482228408475 9.939617368080638 -1.057351776901121 -0.2079297406388806 0.20361542953424286
