# total energy = -340872.43283576873 ev
CRYSTAL
PRIMVEC
9.21964215148139 0.00000000000000 0.00000000000000
0.00000000000000 9.21964215148139 0.00000000000000
0.00000000000000 0.00000000000000 13.49387822440282
PRIMCOORD
 96 1
Ni 4.9481174854952465 1.500174097020753 13.304694319346368 -0.26548362779394924 -0.1441923503809194 1.4996270291682496
Ni 3.189885600467175 8.461640189657345 11.819544551419458 -0.4141617818603642 0.010383143006536956 0.6158231729920297
Ni 4.834144267369256 2.3431628711779946 9.182961954188341 -0.5469494899487677 1.0966665153403434 -0.9633900405409795
Ni 1.2357086576141816 4.569328481555243 11.827330539342725 -1.0120823635403602 0.2646827291592087 -0.5591223778658757
Ni 4.539438401215132 3.5279606640055947 1.8700357213206176 1.549948917351253 -0.6930444566690387 -0.42825502672863663
Ni 7.493052228432447 3.9081879321445667 7.9809676845407616 0.17287120637285067 -0.5637220814214162 -0.9996431093357429
Ni 6.351374702647012 0.3286996092824484 9.912575865004934 -1.284951228054787 -0.5910485371505111 0.29201021332956806
Ni 2.328522079203874 2.2650356223186154 1.4686871746340937 0.8320542344077542 0.9353153937919504 1.6114507334104764
Ni 5.277738137043573 8.332878665280417 0.8632793629334654 1.4970029612818412 -0.734617909235451 -0.6182022147471675
Ni 2.897613719880536 7.040312473595455 9.588007577437601 -0.03751239512316121 -0.03215370191440914 -2.1832504496337046
Ni 2.726644673049249 4.881634644862135 0.46347326240391273 -0.737497287665775 0.40725399899693726 -0.921760280815335
Ni 7.971782154916192 1.2816777941273823 12.73324245024063 0.6064517590794587 -0.41658633214145674 0.257889103276143
Ni 8.355310054998952 5.969792147089781 11.880860704507045 -0.5767076950478067 -1.1416415373891369 0.1736289104744816
Ni 7.1198134491576965 8.228945637620306 5.308829536775516 0.964836286069203 0.12607532906523447 -0.6152261628379792
Ni 4.743542842476511 4.208075237271901 12.908189772724832 0.32873430822347904 0.34020014277123345 -1.0509222192256933
Ni 0.8827521694375832 7.117333365378704 10.98466445266602 0.611932836798688 0.742971680516785 -0.5578021163925555
Ni 7.600414963028561 8.819823293054426 7.781258246764308 -0.848511608632829 0.8374563792599319 -0.8673791349612932
Ni 0.42894109216520565 3.2654866673360567 0.15528459134868416 -0.4489457223087688 0.15698461704958125 -0.3179454451380911
Ni 3.3165911446109613 5.8693810227886845 11.475207506830145 0.8648615107457622 0.4091563582259728 1.1506527397488118
Ni 4.781850456237512 0.8352295231966499 2.5290096547905394 1.3184449889368584 1.4100292262037588 -0.28228064474663
Ni 1.334838251635428 2.1489326668210746 10.634309747546787 -0.08494436335287951 -0.14516654136873064 0.15523035336263588
Ni 4.914410473242486 6.039990503570229 1.3338323886603798 -0.3284746268041891 -1.0420287733908054 -0.16865768251213534
Ni 3.1178617548111123 3.584080626692288 10.927545080753891 0.8340717790584152 0.23236344820121274 -0.5432638135670643
Ni 1.7404471950292824 7.192519548344038 1.4679855598549814 0.5833275143571696 -0.7306185582680708 0.07321036274540295
P 8.406645023331384 0.736132197923457 5.863103368345877 0.20279884717021848 -0.1089057592644834 -0.7878060632226561
P 3.8420923164881016 0.8575078668529873 4.418853777595034 -0.6794299512093976 -0.16983267665684298 0.46174364540438545
P 2.2354590098167404 1.7469562624938473 8.09083539595008 1.4004516098176527 -0.07614373434211404 0.35134047565876914
P 0.8754944670181705 2.9987347566388167 2.905380346554969 0.6052117160247706 1.556126249806559 1.6522729096331608
P 4.721858243784364 3.8601720350405255 6.970735521006101 -1.02564647537804 0.34457024681447107 1.2970323275890374
P 4.826667137463078 4.58122182012364 3.83272055008905 -0.924805238289246 1.4451677217781047 -1.0359445148699384
P 3.5429241434602528 7.101106794928798 -0.14770143555604323 0.19245221382857178 -1.1670692334336223 1.8697674111423412
P 2.2074312972214476 6.533158389897471 3.5676060478644827 -0.05693527973446323 1.264838259354996 0.2874315928199501
Ni 6.9329405193570395 4.121576553203138 0.204437270348449 1.0755184205078188 -0.07522867872701239 0.5381514320411636
Ni 6.418788727152534 6.591666239940145 12.94408368413141 -1.5009637457018021 -0.044957281436980634 -0.35977986467537393
Ni 3.7835107093070186 -0.14388542560762488 7.670366233095339 -0.6753167003719724 -0.7492451722303225 0.7537952534948501
Ni 6.141323592101434 2.425254566226839 11.516404556488304 0.4627391765484353 1.0915302225550427 -1.104327374319711
Ni 8.974455133728195 4.891591858547305 2.3084112734525215 0.7932277484588597 -0.9227882078592172 -2.680066513261191
Ni 2.3223356992198476 0.024719704937664278 9.809915147982371 -1.5141265083360052 1.429356465777461 -1.2506599109720848
Ni 1.5971831733127506 0.9658405078191752 13.312763350288275 -2.049630989672625 -0.7760522651208377 -2.8758475343526797
Ni 7.517714771587844 9.180145353465361 1.295054573142024 0.28220016921768176 0.46435562910593575 0.3643384305803338
Ni 7.713088211590099 8.338474988157175 11.40289416440583 1.67546888813365 -0.3941717118916825 0.09238410746037638
Ni 5.487586415458528 6.62269033628329 4.274833745209814 0.05348460218170143 0.15960817071535738 0.6413984503579727
Ni 2.435340854904225 3.678157856732541 6.972300094304594 0.5285769009788509 0.7948514001052117 0.39585784134485374
Ni 3.442900244135801 7.736856449442291 5.149844181007178 -0.2400075950100318 0.1654222062939732 0.09583555634408655
Ni 2.6414551781872406 4.569402238693652 2.7321598630737576 -0.8216749480559591 -0.06882688896572663 0.16719755302684108
Ni 7.800444322392862 6.306309091079318 7.343800049041362 0.09429392288857953 0.24540716875904836 -0.3796136115718494
Ni 6.124737455601785 4.764231719800142 5.726208275530934 -0.043740378310744024 -0.08629933471887717 -0.030590985412979575
Ni 3.278292750492261 9.266570280395715 0.9695191450973073 -1.0842203191571909 -0.8947793813511171 -1.8254235949196431
Ni 6.802565557577423 5.139701652511755 2.825537322263358 -1.4998586855630816 -0.4879393299631468 0.36280168222083325
Ni 6.6809676952684365 2.5041747043241114 6.305730097542811 0.17493117422567292 -1.5153475252272999 -0.49130361844968934
Ni 3.663277354058593 4.904490138126521 8.840973152493111 -0.5583621026610835 -1.652057451188245 0.6148484677835863
Ni 0.630325738947766 2.416818593521348 5.939169105186734 -0.5486957832159131 0.8512102385109147 -1.034926100907753
Ni 9.366879988631501 7.803311631148499 13.405426287199543 -0.5212225174963089 1.1932718599709191 -0.6502029360234802
Ni 8.455020486485168 2.196247871110234 1.955546059734704 -0.9241076980015891 -0.7130329839758236 -0.2743521339281727
Ni 5.333701365811148 2.6603462252621597 4.307057317016329 -0.4171422046449267 -0.7712838971979168 0.22920330530567623
Ni 8.840244800751327 7.164648569667864 3.060236224536652 1.0756528892031538 1.0475533027534605 1.1635167401956734
P 8.217079957978811 3.196007442955094 11.721079693608122 0.8180928871316556 1.2779082051650765 -0.1758565142534197
P 2.071579867914987 7.562430036748098 7.276911544147003 1.831064338145188 1.022693563397303 -1.5515995655807988
P 7.625492390087508 7.330048952549295 9.329033356985553 -0.4050186819085154 -0.9830073005512748 0.9673425974308244
P 5.590164155700379 7.696833982213288 6.714432230928678 -0.047774696281117725 -1.1073728460142542 0.44962475065366436
P 4.451833360070239 8.561378280070464 10.013199963043185 -0.7700536243352416 -0.08340761499337893 -0.36240316123083394
P 3.1442575907191137 2.7045359708112517 12.96211177268695 -1.206760124265341 0.3262727340568639 -0.23249663134496734
P 6.107247794156631 -0.11024387281520237 12.493793588253816 0.518539571347507 -0.06360317867294207 0.1293776539655901
P 1.5522927349487763 4.93213984538747 9.676231256580897 0.44370787094859715 0.6750333648035988 0.26474469274539564
Ni 0.4424764490274259 7.715420781092273 8.532179672902933 -0.4677188891512138 0.5312667891061882 0.8670047823410101
Ni 8.002824690543939 3.272714866900106 4.30885145940812 0.3672509762414385 0.4351412123255087 -0.2750951827417843
Ni 0.279465797430434 1.192662147710424 7.8070179273535345 -1.2820283979810372 -1.6000728305908378 1.1891262132336617
Ni 2.403754360380713 9.105742840095619 3.035326594967586 -1.8006227338258796 1.3621691692976863 1.6182039929739098
Ni 3.8245749961160436 1.9756679290568182 6.360407186209384 -0.6311101810580874 0.10479867907464531 0.7939520282193939
Ni 0.5568627071285049 3.5422418899299726 8.33852846208252 -0.13969240562803684 -0.41747310562178425 0.9741992153413415
Ni 7.806400211319361 6.063122586103646 4.920610682689964 -0.12697444384073617 -0.28637692630319067 -0.5780904343279463
Ni 5.318793204210297 0.41571459332007166 5.921302360371464 1.2958545052308523 -0.01896008604227057 -0.7992641844609267
Ni 0.5877595724078949 5.175980944966518 4.350520554752096 1.1109981014716672 -0.30599907140949234 0.44619978413251543
Ni 5.97632887348125 6.779627087532329 10.742989047063496 -0.9337377648921854 -0.3772849634386728 -1.6910184058324749
Ni 6.984635053739214 1.0533902311102612 3.817445446724616 0.3848545482558146 -0.9563711860209853 -0.025678892823342875
Ni 5.830381935855103 5.627881712354111 8.447464989619428 0.311970715611895 0.2130467501504718 0.22866517341401907
Ni 3.959421484411686 1.4842425551244813 11.12689034265945 -0.5981782062167569 -1.7366333754581125 0.4013934264511023
Ni 7.29722702595744 4.529158500049424 10.111246249094055 -0.14261420726052215 -0.031880136538048325 1.8169235278684321
Ni 4.017993871950468 7.770111699222299 2.761063441687653 1.6875546156535903 -2.0605604921009353 -0.02035722350011333
Ni 7.625529268656712 6.717495918065328 1.212322112953254 0.05565332769824609 -0.452345234908621 0.3165524214453065
Ni 2.4741647686340857 2.747010862892342 4.470035699865267 -0.056576610843463854 -1.330870873405037 -1.051421527459615
Ni 0.2520069367651179 7.563554833108831 5.7726540675511 0.5632929643037976 0.5083896273976987 0.1219636208897061
Ni 2.788222663978184 4.959393108029471 5.034404117791084 2.0181933399886343 1.3130346165545643 1.0472509410216932
Ni 8.361957417098033 1.5070980483888665 10.042576509307127 -0.5884792337614382 0.7700718791676867 -0.4313943436885667
Ni 4.042757831171177 6.240388648626573 6.972732495528516 -0.7525922343256846 -0.03262524223418897 -0.6637886451277148
Ni 1.0589865539870187 5.685467598166677 7.267586797923688 0.27988566215189215 -0.8645216109078402 -0.032165786099267187
Ni 0.22431113129266395 0.36859853330461606 3.724944775517848 -1.834371033920918 0.7054459156571851 1.7961317879340613
Ni 1.806432174978135 0.18601458110242455 5.440826233635895 0.3100107636720468 1.169044611992438 1.3211862991274215
P 6.654341368302908 1.6824187663862649 8.316209552000059 1.4451476671734467 0.6075102822509602 -0.19071337676059413
P 0.45983795744459566 9.375546452394518 11.225219671728963 1.2719787270545189 -0.4661109212341456 0.9326501882549614
P 5.089648214459174 4.479953269088543 10.50961316346041 0.8425944718174457 0.3367556358660587 0.314130185157059
P 8.768580521145006 4.439303866183067 6.0937677551482174 -0.8298173746574353 -0.27623341011128555 1.639004731769345
P 0.36940433004173073 5.52785781302966 0.11417789418507458 0.16109349701163223 0.8013256949756458 1.2274207379384863
P 6.686665434210505 8.03781323307655 3.043881501058761 -0.21376383082215442 -0.15328402826954246 -0.4326197314552356
P 6.3776506832051 2.2224869730991164 1.2846714119825442 0.0695110595169448 0.09002254920673529 0.8759565922176592
P 0.668806681984027 9.465806750522122 1.7213062956480036 -0.06880066371348151 -0.7589631708490348 -2.5355373483661428
