# total energy = -381171.12625042297 ev
CRYSTAL
PRIMVEC
9.23452360485233 0.00000000000000 0.00000000000000
0.00000000000000 9.23452360485233 0.00000000000000
0.00000000000000 0.00000000000000 13.51565873564897
PRIMCOORD
 96 1
Ni 4.934855654572936 8.008714661285378 2.1475707021928883 0.1984004609922067 -0.4344891805638066 0.256457513035939
Ni 3.9533550555708192 0.9268414524965228 2.6062513473630418 1.6012799635250616 1.0526749402507418 0.6567556495403334
Ni 5.545719405433727 0.10342481990764452 0.1954930224183336 -0.033185742723349294 -0.5291962797304047 -0.14004413254050074
Ni 6.520090952044845 1.0445354586147508 2.734650013496354 0.010047099823356888 -0.13344102540168631 -1.3009033805086692
Ni 1.2839681922854778 3.3065320689450712 10.708443399494428 -0.34219557593470745 -0.2838521029988079 -1.0248147235053642
Ni 2.820482142069684 3.8654977959232073 8.845809470560198 -1.470597731815435 0.21504449730679095 -0.41442634837566045
Ni 7.433551579522512 7.667979201281424 3.478443811330176 -0.9325447730253488 0.2807402968427036 -0.5388206901940462
Ni 6.773098435734701 3.4806674846666428 11.214563640445714 -1.0934333531150264 1.9061580339562334 0.0006373764736827733
Ni 1.7285458726738534 5.976574583421813 12.355245267291188 1.1961044443237079 -0.5422628831063757 -2.0620105942839
Ni 3.7350509124060562 7.405192356863504 12.062414823069025 -0.10456368024570378 1.2291428628359156 -0.10881294244036098
Ni 7.578367382107531 3.346637605906347 2.151206334221821 0.8074667748763772 0.7679998271300064 -1.3277169011570877
Ni 3.8151973446618506 4.587535979083515 4.725169169039363 -2.0542432916336555 2.731819477463766 -1.374691470134413
Ni 5.435043637420627 0.7938864723091711 6.507857054884749 0.10816168200960727 0.673058500465415 0.9415603462603978
Ni 7.154382689843411 7.5103735832021945 1.2339854086436166 0.5521624016082748 0.5598471718470422 -1.4244297178998049
Ni 0.34783957918062985 7.377747352062924 13.620134933359305 -1.8510646925265153 0.8452992723431185 -0.6953877600902346
Ni 3.0502463292982154 7.330688218663278 0.6673901180833013 -1.2565755051255714 0.5699071271862056 1.507909580892016
Ni 4.411812225264468 2.985927870874249 10.97686422689648 -0.7057544480365394 -0.4344878950122259 -2.6196291339107396
Ni 4.912591217636801 0.2491299071367725 11.23590554845198 -0.3929825766795877 0.7710707527458462 -0.7639297708256908
Ni 1.5478908831335714 8.472952642891933 12.06207683949712 1.688781031861524 0.3961985125137241 -0.2256166163956824
Ni 0.696888880982012 8.387524063009648 6.559365381862093 -0.45182381518751213 -0.43289946747918345 0.47126983972726577
Ni 5.51416503753212 3.347616465431537 3.0817055816044507 -0.4208373941083268 0.2741359041523085 -0.38162112892018146
Ni 8.127479872167019 4.893346469990634 6.643406012813852 -2.3527753652421417 -0.25337913122093136 0.10251811057058473
Ni 0.8349985723671037 5.749183668815673 7.130050643023409 1.4975156392522015 0.7502931538788628 0.8420123740617305
Ni 1.0523109276733267 5.457178791023247 9.44740545331269 0.2045608241666477 0.8317102208047741 0.5966975079061724
P 6.699933303488744 1.4271402496300838 11.63221160246281 -1.8058194475354705 -1.0921511439684934 0.28668134491748687
Ni 8.629006860968978 5.6550931055878495 3.274222316994781 -1.608750560870494 -2.3877256560650815 -1.7922627918969585
P 5.763183206930639 6.319609439857578 7.807185030644251 -0.09399978868692843 0.9556775023880701 0.48884024451086133
Ni 7.935604936182356 0.270942775857986 6.902298658535809 -1.2530664635310484 0.18226884553766673 1.362072495818822
P 3.1943141354536078 4.714769248310423 6.726675561026427 -0.836900506756462 -0.6198034977960164 1.08480678778828
P 2.8923913790757765 4.896800181900264 10.684209238626945 -0.5225242670268679 0.13055753320630417 0.697529746133902
P 3.9562639305749183 1.3792869471816998 9.295191873693438 -0.6420746504893909 -1.1915577054932898 0.45905272883578363
Ni 1.6280557844370112 1.6942488511969527 3.8621669031804178 1.1692130192495025 -0.8545069069843154 2.0223533849035946
Ni 7.300445153144472 8.892366245863897 10.05252810071301 -0.4397972230402813 -0.03625461145666014 -1.9081439540380105
Ni 3.526110576397345 5.5483974173422625 2.4403605145102314 1.8419976972282406 0.2315813186195496 -1.7165898265436759
Ni 2.9095029517189364 8.273856309278047 9.88202831702037 -0.4309320593401675 0.5672334370087844 -0.9204176507445115
Ni 6.146286662232389 4.36500242400803 8.585836385551001 0.4943804576028002 0.1640932030699045 -0.02267712988254159
Ni 8.391633426110676 4.026307793768858 9.624541165824203 -0.425964430922247 -0.8059554804381733 -0.48208595650616326
Ni 5.1683044168066585 6.481527580561933 0.2112332682738471 0.7861410168154073 0.09879438186209438 0.556977306498415
Ni 7.236496075673406 2.6347851025222973 6.708591593024754 -1.4545892722023208 0.277270078905916 1.3200105336517653
Ni -0.1756009346522077 1.790057035855769 5.77380845004085 2.5287748328313286 -0.6317401013326024 -1.3511249956683826
Ni 2.5523762119299813 6.582387049751677 5.744222882618207 0.2339649883603777 -0.03519788805737163 -0.5435463778044897
Ni 0.6233728368307988 0.9422354037086913 -0.09456521775230298 0.934172538436759 0.28926170405015345 1.2807837269406588
Ni 0.4882652891404137 3.3535080916303146 7.845786263674836 0.18733134766223866 -0.7339085418732523 -0.7213469031581576
Ni 8.005999711281552 3.384776189293423 4.359070165904432 -1.5611404151916985 0.1562971040642534 0.21279349648908516
Ni 7.457829142651961 1.6501632344681634 0.38185771803808993 -0.35725015627498474 -0.10806912229580097 0.4580569405814176
Ni 8.205040637752504 9.173012659354605 12.038748585416629 0.1741161345235453 -1.9725714283844609 2.1508062130620704
Ni 2.0108637349764398 0.14266138817721993 2.1042663261794856 -1.9619746267052207 -1.2632264347831859 -1.3289980818623564
Ni 5.3956491587936855 9.07834032112596 4.435623444940878 -0.8348801338923235 0.06244129715435698 -1.1495106557245687
Ni 6.1042880478874935 5.607008940043902 2.173101390205055 0.34455996240182596 -0.4840461655563276 0.66792580722454
Ni 8.972060186452387 1.4870446056668785 2.6138476666594603 -0.9430896384207307 -0.5963077286669215 -0.05936471511156227
Ni 6.228593973062658 1.9141782705544825 9.280148834386525 0.04594304238901765 -0.17396418232671332 0.2732954105288842
Ni 4.365381039484753 2.3980026771886385 4.832685806452774 -0.3247866364296406 -2.8836693443899435 0.7033232128872274
Ni 4.467699563438459 6.351819458950584 10.306243872380055 1.6201575171558549 -0.006048777297241195 -1.1998880797358562
Ni 3.540950456180161 6.248217336185547 8.26406863747854 -0.577437888345612 0.4264485696475172 -1.2167871694840398
Ni 6.170287189647162 7.584979301164466 11.745850729170563 0.515984151915505 -0.012366491985152895 0.7098980378912677
Ni 2.8768866135777373 8.471973783366744 7.165813183430947 0.490081316006814 1.4338774935762661 0.6144653734125547
P 8.727003627773735 8.971035154308085 1.5409742247904916 -0.0481747599330138 -0.8377425430417831 -0.48216180404942127
Ni 0.8779391081418985 3.4338484488863825 2.627214639892582 -1.6355319427293964 2.3180179071562983 -0.2988634888059756
P 4.276009317930246 3.6781754801830537 1.2287854482791463 -0.42091812674759127 0.9390427220448666 1.1205232673532832
Ni 0.4618720966032221 0.41949671368636654 10.250883825516329 -0.9517372867933995 -0.23265218308622512 0.07448305881023946
P 0.12306203481626841 3.147522803244815 0.5378038921864109 -0.04618704007902368 0.38939100267358745 -0.4275693135155217
P 3.0227459173547016 0.3270101872465165 5.085239875022943 0.7069070735837438 -0.6250387780530268 -0.1504869251403795
P 7.133965157671783 1.2158266409989809 4.727480570352145 0.2881874971493682 0.31080934831394214 1.4541629832981795
Ni 7.751782504970944 7.310159872205779 7.88783289754361 0.8088034914099296 -0.3979949422925146 0.8626215656716498
Ni 3.083472146011702 3.3200975844403775 3.1531493986098864 0.09704294638862641 -0.3327822530406075 -1.6825425071509799
Ni 5.295316057461826 4.072452709310073 6.050487712097396 3.9230444822079855 0.5927876313288049 1.98444606833486
Ni 2.3395204378205143 3.375597072613822 12.751240117849198 -0.3529589850987986 1.216507433460092 -1.0683802668011406
Ni 4.431472526482648 4.925667303369512 12.182420230500034 0.13573187831839206 -0.2867751901828739 1.040618266196524
Ni 1.666249774967022 5.463606019603732 3.6737724592244683 -0.12387600742107052 0.24333691649358088 0.611548713986392
Ni 2.892834636219258 7.619119335736385 3.4928921473029164 0.1558186217659381 0.919275052499636 1.0174094321802283
Ni 6.218389824238755 3.915271879326679 0.1687987844045273 0.4192577083260328 0.5635719289967972 0.5120146257447956
Ni 5.220581056166038 6.647010247461787 4.223210927974893 -0.308239787814553 -0.9283178794281947 -1.076880590962668
Ni 7.109761470732915 6.196845680160776 10.073693629314263 0.009299680134371081 -0.6254013035987681 0.006525202713027472
Ni 0.8271344518798316 7.245730599495942 2.25391178472369 -0.3250841130654014 0.9174050891704328 1.7199975666736442
Ni 8.904546582785823 4.777619417446607 11.883953956388977 -0.6094339816362343 0.056386349209528695 0.18292087729936884
Ni 2.246695004356378 1.9054331764945405 6.35215744252249 0.2390873971886076 0.4605755932382132 0.06328256210872972
Ni 7.1220064493215975 7.769586666900794 5.721854095562877 -0.5781742522910043 -0.5119164096040344 -0.16623776021673306
Ni 5.244443065723473 8.50785914294112 8.571630917554794 -0.28880918989376714 -0.2732578724227294 0.230916431342041
Ni 1.7105754893151974 1.3816879233755592 8.680796840922909 1.4625445224936553 0.279773304943744 -0.47402246277173854
Ni 8.611165760943837 2.16642852329089 11.888874110681625 2.6050728333631197 2.234542157929145 -0.5522644744037778
Ni 8.258453123542056 5.296867457464013 0.7402218840192646 -0.07681299249499673 -0.2156181104220738 -0.11946656549946522
Ni 4.5874528683691125 2.363363978330304 13.13246342410068 -0.35424453667944156 -2.0552560491688863 0.31227282023334607
Ni 2.6001371691401403 1.247362539852943 11.127469152465844 0.09192336577387394 0.21908010082874527 0.7184176453265048
Ni 9.151994883134511 6.6117713045549875 5.123340596862347 0.8196363203593756 0.2734633035653161 1.2099596050392452
Ni 0.14244714722453708 8.756803436149061 4.090568074692743 0.6973533684570378 0.9605823958888552 0.4304764598599876
Ni 4.814335884165012 7.641596166720438 6.165167569639948 -0.4690273235499922 -0.4967738975356412 2.048589692892304
Ni 1.4676336365919065 5.562581645933679 0.9750706000644843 0.35802791498127373 -2.7045454722391615 1.238806868288241
Ni 2.363484027139997 2.3480161997372484 1.1634401108061132 0.3302664285972893 -1.2702913120497672 0.3944694456377594
P 0.5715422249720481 7.852171013445738 8.90913060041133 0.472533794041354 -0.43369213858380795 -0.6165420534359253
Ni 9.347646739362593 7.1096321873993995 10.933087043263361 -1.4199282304850256 0.257889103276143 -0.1730486124909794
P 3.3299231177875566 0.14148121603269978 13.396815520306522 -0.37058903947573596 0.7750467066744589 -0.30253219590681446
Ni 4.446792601504236 2.8861303719240965 7.853220055351978 0.9385385287149385 -1.6279201918204094 -1.4515538278101066
P 6.782748513129252 5.595918276933036 12.339067305006486 0.5220038757470236 -0.4293184349961445 -0.003982895907147979
P 6.905586149016632 5.526862507788108 4.909671261204115 0.8978618769311827 -0.26069134861162846 -0.5889173497401212
P 8.292260715256361 1.6531182820913752 8.620679167385815 0.9303511078081397 0.5307991054411504 0.048729603995219306
Ni 0.6758683344047721 4.012382131844473 5.305855419500488 1.7766911627109465 0.18987905378475686 0.4423690975325156
