# total energy = -340865.7825726032 ev
CRYSTAL
PRIMVEC
9.32282941432812 0.00000000000000 0.00000000000000
0.00000000000000 9.32282941432812 0.00000000000000
0.00000000000000 0.00000000000000 13.64490321391058
PRIMCOORD
 96 1
Ni 5.73645801020104 6.163527493519773 0.15489787505495456 -0.26203963510940675 1.4667752727455512 -0.2678955796695515
Ni 0.6498860337403977 1.955659206384202 10.625654504873442 -0.7696131943637132 0.03946951884953202 0.3106987908780068
Ni 1.667760917524681 6.357992388028394 3.446429940473034 0.37779918407093 1.8919496036663352 -1.944373625794006
Ni 6.165485287654047 3.824103345501126 0.14069827388394535 -1.010694739164214 -0.37158277084757296 0.6679962554511593
Ni 4.516155603479168 5.3758975904723405 6.599275598550864 0.48236389275789826 0.3615449269955967 -0.4775836977604355
Ni 0.9563824345925954 7.371570379829408 1.2830422504619678 0.12432183670923751 0.8492752262717309 -0.9424401777621899
Ni 2.4390012868194813 8.62742073433216 8.484960445727369 -3.3823065203865688 -1.6173349601053952 -1.4548702937778493
Ni 7.634772494109451 7.927938181473088 10.296703137584048 -0.9192529410124491 0.8195105934147887 1.1965258481318426
Ni 2.696991939570672 5.388017268446414 5.235126598520551 0.3199056541882555 -0.8738783695323917 -1.2242881058467754
Ni 0.46606408105885516 5.755047731647428 12.808456986716052 1.5354599797064588 -0.44843175878682767 -0.10858539981058718
Ni 8.16833665550345 0.48372338415000193 9.163316535311786 0.9318197219338662 1.143992811230133 -0.05439682958332567
Ni 9.159027101591885 8.896496231015021 2.887765925994727 1.1729418901643156 0.22993478415506205 -1.2856266568552568
Ni 0.7131815181014592 8.057861129355162 12.064986528791541 0.3728217854609966 0.12045155512055385 -0.67750316650033
Ni 1.2628797677277144 8.359659756568023 4.677841430482526 0.6392742049261184 0.11016971357857155 -0.4610059959074125
Ni 7.9551608427687 5.375133118477053 0.4750550175497758 0.2636339761797202 0.20206299744545844 1.4216737524212224
Ni 3.6419539083800054 5.4422015518197355 10.42424223803691 -1.3162333259975203 -1.232045381194691 2.6175809931324596
Ni 8.89455708253917 1.9298349694702135 3.757696833032411 0.3956536957538476 1.5350540025172918 -0.27667795384787186
Ni 0.41942476336585544 2.32793842243091 1.1886747086241438 -0.7108537169363176 0.4014397063080054 0.7292157643832731
Ni 5.599738719824275 3.8746517254822246 11.323209096651714 -0.34522742078249574 1.0074160684129425 0.12825639587695328
Ni 3.4921640114496624 7.656820985193054 1.0782159635684343 0.7741252233014538 -0.240889740504669 -0.4963488941830807
Ni 8.173837124737837 0.21629336682284986 4.921088961119716 -1.2933019140123274 -1.046262866076811 2.4203979494871217
Ni 9.04353589332817 7.287329295080384 8.351935792566854 -0.4473115291394555 2.349671272395521 -0.1553113431122164
Ni 9.020396631226902 5.065223629850771 8.17602612503654 1.3618284981288158 0.13615970988443002 -0.024093550614093993
Ni 5.1057313227718115 3.273935225282645 2.2625154684439375 0.8608500755935239 0.21477607413675268 -0.62076226216486
P 1.1722805134569063 3.2335953432874005 5.39066495194229 0.7577894622559078 1.1533387712214072 -0.5159512417950405
P 0.3295377732467545 0.2447857974569766 0.5636051139600443 -0.8527048207785701 -1.7784906778135305 0.12354870598863885
P 1.6341334725612313 3.6805597441420357 13.539905656373206 0.3670437453266388 0.7622809223683581 0.21497456330080394
P 5.651377870823041 7.43941260799659 1.952422320082203 -0.40866759151501236 0.4975105185913496 -0.23892773168229176
P 3.082500250267542 8.945608895297655 12.697291571206161 0.5445588782294041 -0.9064640167778969 -0.33492346775332643
P 3.2770117589222174 4.826503265078358 3.1857160893093606 0.32711785566597856 -0.8590940121343656 -0.7356882594814942
P 7.0406938483079795 4.690324698795822 9.647355963372036 0.20717743585388834 0.5077496798208546 0.1355459875598311
P 1.575119963656702 1.4811831365284183 3.3413504678719703 1.6480935814444906 -0.28705672597903464 -0.8245273299030897
Ni 7.729911966205932 2.273073572525198 11.052930955000654 -0.6418157404010495 -0.1474512236378493 1.6487546120672572
Ni 5.570297225176486 4.100077735799999 4.423690851083275 -1.104749035238162 0.8677694284211764 -0.5632477128881589
Ni 2.854827438109958 2.954684261787116 1.7021202045811807 -1.322307042995426 0.10305598535192573 1.519560791977699
Ni 1.4914848628063813 1.5210755227215431 12.775272376140116 -0.054512529225583535 -0.5841034732912457 0.3208739316387958
Ni 6.122320588407922 6.932800745851089 8.477087316458826 0.3358565210905571 -0.05743741618186238 1.1624224786902302
Ni 6.5146065959410615 5.493896639793767 2.4187092167591966 -0.1093598160827665 0.6344798688612685 0.34571747304503686
Ni 5.283182053970675 8.48894875206376 11.96787621059989 -0.6287164840149302 0.5354098647402844 0.3115377418395344
Ni 3.906190856702449 7.802881750439067 10.028048100498593 0.5786018267467261 -0.42612949574520154 0.12889685767442963
Ni 0.20024225177057056 5.637374981348381 5.202487373453449 -0.2324971455655996 0.06214150652575104 0.537818474181777
Ni 2.919658392442042 9.026670895285788 3.054943831686182 0.5777636471161469 -0.239410070635349 0.5366753617162693
Ni 7.143412780552861 7.142974607579952 6.4419220902817775 0.42546717957085434 -0.05166528958477553 -0.5243723759792002
Ni 4.024945055189952 1.8777949368153821 3.870963614246422 -0.15821926078763077 -1.1492499458640144 -2.24442933513587
Ni 3.220757807464093 2.5319871853682607 9.049831599894242 0.5035230433340167 3.4721825167131106 0.4724615460425218
Ni 2.9167123784114213 0.6816862041785254 0.8670501528115387 -1.2610913907180539 -0.04303743870644846 0.5906646714485311
Ni 8.803109450810178 6.047038742530501 10.512101512802658 -0.2798247270069697 -1.3201689136065007 -0.7582610025756876
Ni 2.6179250250336557 6.871931993933605 12.155016158197567 1.6182294468952068 -0.6954528090002152 0.7902347272688068
Ni 5.544426374116444 6.631449614440346 4.461023188375107 0.045229818372076944 -0.298266478651925 -0.28491319727347064
Ni 6.48818569795758 0.9229610241547049 12.943022703545115 -1.5158149517820216 1.8420257222526986 1.0686340346831598
Ni 8.492165128141496 3.6766255102150676 6.0916307669288035 1.9833772607507132 -2.1081320712323115 -0.24991302704920187
Ni 6.017149752080592 8.986694603629765 3.4327850476400688 -0.9909360684800482 -0.5354908544898648 1.1081647457879302
Ni 6.8521675960066535 4.567384549992658 7.259934161444371 -1.707470123630595 0.5081571996719184 1.2412633002485334
Ni 3.2423308342579444 5.201905628910693 0.8287351893208856 0.015414534782857325 0.12417091295367001 -0.06289818218611748
Ni 0.7889052660834732 0.2838344676065217 6.619524783596778 -0.5210674799756833 0.09813257990837938 0.12388346362023826
Ni 7.720122995534564 4.640615373443697 11.940368270730428 -0.07786560212922719 -1.8279666730564712 -0.18186621078260937
P 2.8343824736506162 0.9802395545430995 6.854953257374849 0.4938531243444204 0.2983191862667314 0.579779134884279
P 3.2472999022273146 6.025586912516389 8.508825023941242 -0.9643189801131522 2.033003665528589 -2.579712243111144
P 0.9242410486053514 9.09384187974979 9.954475129215517 -1.7628144047288545 -0.7882902019479263 0.013462039042176816
P 7.264106127516216 5.202586195443083 5.211179047126702 -0.37381114595745946 1.2318363505076786 -0.6820709883766705
P 1.162547479760804 3.8724235693008375 9.495992372870905 0.32736930955515237 -0.40583654982412043 -0.4669928096184667
P 5.16903333311332 2.909067658458544 7.385576998435753 -1.289060108016838 0.5709360826713522 0.22684354682424804
P 9.313758098003966 7.660522148389752 6.167031945020122 -3.0046945126257802 0.14349918096863673 -0.28719916509416993
P 4.243341652282765 8.20209462007585 4.923299403925603 -0.8818806710115781 0.9719780393203067 -0.27059318110637265
Ni 4.46301547697746 7.975344768010139 7.10168100015644 -0.8062735258992243 -0.5311456901472917 -0.5170244202545612
Ni 8.395366192445488 0.17238004439109567 12.306965222373137 0.8608135659286336 1.1315833818221868 -1.0206127696088745
Ni 3.4570449138124806 2.9387329010073926 5.681914797903103 -0.19222492830911408 0.4748315889365951 2.1197465155427877
Ni 2.7262749461218765 0.7342828097372432 10.785204471704597 0.6527007627446695 -0.33622264618072417 0.548197760533572
Ni 6.418040730975325 0.03996790110973258 7.520716069261283 0.8360862383852826 0.5913899796503299 -0.2990514364470656
Ni 6.474714209747938 2.5066011214271815 5.75857176108912 1.5485980597503135 -1.1238690438970647 -0.22306299673589325
Ni 4.974344690703639 4.7899670974011315 8.769551927065809 1.3410218457961098 -1.5369005688077275 0.3705841543797295
Ni 7.968128898200959 7.242719557306581 4.102217325103884 0.27134291478820366 -0.9089405033428476 -0.6504361350802088
Ni 5.0056693968520145 0.8103337890245571 5.75696170848441 -1.6576406017029774 -1.258367821139304 0.13629906367577171
Ni 4.052783023213479 0.5789001475633256 8.783100794757903 3.5422041973178864 0.6634641719087605 -1.014093737543434
Ni 7.384864734284046 0.6818316403142144 1.8459509490799635 1.388671586463589 1.2289813975573867 -1.2436397709005096
Ni 4.010606543863702 2.682569522781524 13.287201980067474 0.42406669967890187 0.2024131816960256 0.23938024583867806
Ni 6.0059623570276015 2.55206855948838 9.400983420383378 -1.1803759778448577 -1.3836936736330234 -0.5150703818519838
Ni 5.095886415125178 0.9564476943970713 1.2689079090954345 0.11958020825919405 0.15176322074964185 0.4663353785401259
Ni 1.6954403974516237 6.809702108951341 6.860015553636327 2.027231281821186 -0.6373767307930894 1.293850844537262
Ni 1.475906415195091 6.674092235250665 9.897917253525119 1.9503465555479893 0.5375821898012548 -0.38606116696940607
Ni 1.1736975834969519 1.704119951446903 8.416817090176677 -0.5882095250398192 0.02354641986137235 -0.9048879305400288
Ni 7.527448084234421 8.111486042975832 0.3141317979758644 -0.5482913486886428 -0.7297338416702722 0.5123437269494402
Ni 5.779426930033737 6.4420097248763595 11.004477414743228 0.7488291677388265 -1.1058643797895276 0.06040806877441209
Ni 2.1329141581696383 4.371623782223732 7.233408847773728 -0.5889302052559278 -0.5874330518851109 1.5914084700476208
Ni 8.294698282626987 3.042141722613876 8.920655410631957 0.6834506423330166 -1.3399697503825116 -0.8508389712144251
Ni 7.8611960471527835 3.6327056618028655 2.393138560799743 -0.23341965737986894 -0.7626056526976286 -0.7306967198041738
Ni 2.460564990784122 3.3091755196995676 11.511440747549976 -0.30591885299086025 1.2402952799083091 -1.1592700491041776
Ni 0.8549127614619643 4.239006536699731 3.320091620422524 -0.009717998618712295 -2.1595723892904743 -0.22429224115730403
P 4.3273030521554645 5.295283086286328 12.482793781289317 -0.8684034624607496 -0.25544681238323746 0.2832751474494154
P 8.261052192005115 1.5181947684953978 7.151811717388894 -0.015228129803664099 -0.05213014503633603 -0.40429208815513595
P 7.640478065586476 6.745700886419019 12.235875852791825 0.3503457158456676 1.2730902149511432 1.0587412010494799
P 7.885994772853581 2.7606948315682462 13.353434155629945 0.8110125832461066 -0.5033199261842751 -0.3124389134975651
P 6.525048164657187 1.856529563385488 3.4658465968704215 -0.282972528607332 1.078522240331149 0.4054030618311277
P 4.383221381762 2.218665541250817 11.199436419200023 -0.34538657206817935 -1.4849270039539135 -0.8393309705748254
P 9.059720324838166 5.865066439164386 2.254261035460672 -0.5786617334503841 -0.02742981407617857 1.0433881156321774
P 5.8151799800572554 8.978210829047914 9.56353533822042 0.8771220732806699 -0.8305254564680534 0.7499260003474311
