# total energy = -340866.2598329288 ev
CRYSTAL
PRIMVEC
9.21214005308470 0.00000000000000 0.00000000000000

0.00000000000000 9.21214005308470 0.00000000000000

0.00000000000000 0.00000000000000 13.48289814507949

PRIMCOORD
 96 1
Ni 1.544995661949748 6.195597225363073 0.922090090108854 0.31260526387210036 0.4300843666278915 -0.20384734303939087
Ni 3.493464638443241 9.11214237440916 8.972383153677482 -3.8423141569364536 1.0913340473838364 -4.210508470927768
Ni 5.067119268417684 1.7952618735623767 9.88406997390839 -0.2475787224890704 0.9684324880608935 -0.12326434197900062
Ni 6.309394792707675 8.606819638302886 0.673364148330275 -0.7904049342980839 2.5152354035839974 -0.3115531684585021
Ni 1.1026563280886814 7.498083297711377 8.765555867755515 0.1888174452894619 0.49861069363406385 0.7911125018880698
Ni 5.431947655007846 2.457550265783333 3.4805289512364657 -0.41552652341837476 -1.1913291344222516 -0.5354286337933618
Ni 3.5260940388750854 6.785054437512272 10.079531321306131 -1.5485641211885846 -0.55199270879963 -1.8090340978180262
Ni 0.5015420737863332 1.2704462488864294 1.4107020039725058 -2.7894286433368025 -0.2191747174250806 1.2590278233208059
Ni 7.372466554546882 4.450163817903421 9.367162971556196 0.05862526584237645 -0.6786521925031087 0.28901487814667
Ni 6.103227096020864 7.76882809689035 4.6085490648161125 -0.47173238118598115 0.20476805508144733 0.5789869780002866
Ni 7.70484057136816 6.292361545559601 3.725270642397661 1.9505118774812602 2.581011678648858 -1.7080717617703358
Ni 2.3290132741894505 7.363475505754822 6.893496066570292 2.5440160752611156 2.1232123626042014 -0.981670326907406
Ni 0.7923269626602343 7.669254073946304 2.6638294293660305 0.028758560189931115 0.8952285530733937 0.10565742753051481
Ni 2.8738100308633285 3.5805009386352427 0.13388832381038704 0.3825492971614057 0.40083266885162583 -1.3901859662255864
Ni 2.8602866091146137 8.830269309921981 5.060509557855897 -0.12993404068969236 1.6355486548999445 -0.32511290942080784
Ni 5.3431518360460855 0.7987726971272479 5.399968631671 -0.3337302187761736 -0.4896802239136535 0.4076563766416786
Ni 2.41688787913563 1.3573443669760945 0.5648469797229778 4.066383483449674 -1.278974698756378 -1.6851881723039432
Ni 4.696901779836378 8.702745653745236 10.455178445295264 5.597149400114573 -1.2117496070601323 4.313231498420308
Ni 9.177410387413005 8.76913754784809 10.49333512982059 -0.7510801685565324 -0.508976353139104 1.2806271467581365
Ni 6.834910540035463 4.736329739703204 1.1253568838606047 -0.8317757839353869 -0.15361492924639994 -0.2349828881019308
Ni 7.094821862391215 5.191381826979274 12.027513896799398 -0.34054544192579417 0.29833461288569907 0.2978083080685839
Ni 1.187223774718929 2.125581583128911 12.240166018941878 -0.4661232625293198 0.4900473774450851 0.5220352432055912
Ni 4.33373157847426 4.48888244297825 10.12503653003374 0.8804174562024902 0.7661164940643646 0.8746602420037388
Ni 4.108052568937462 5.698270626912035 5.802998842273252 0.04343801657897681 0.8700793075012757 0.3476198322740723
P 1.9861374175905606 8.102565510454687 10.857535248452127 -0.40277308040744825 -0.8291877114932364 -0.876412191697839
P 7.626030712335289 7.04295751331406 0.5197268384538831 1.15321638671093 -2.8030686027177403 -1.217894800725922
P 6.477415017009318 3.349727615592288 11.096250357523397 -1.4901229463325563 0.2827233887110034 0.06310027089459455
P 3.4030751192345274 5.595656597716575 8.15967433092254 0.07272313869633927 -0.25189714735876617 0.3227842612876312
P 4.542948493552642 8.08937372575158 6.374767824109297 -0.7027452288965703 0.44861019334622093 -0.7988075565394823
P 4.611800029077094 9.192343266605558 12.806434431890896 -1.5199860524405757 -1.0494410066944764 -0.009937313718369983
P 0.8053906986151748 4.0808214826369165 0.1602820265707707 0.13590799888494012 1.3397740894319379 -0.37986120880628127
P 4.564154840191295 2.233511017194268 7.670609179763222 -0.040873084065277995 -0.06042092429021853 -0.45536113891680935
Ni 1.6237041874409064 5.124077931000998 9.608560655840837 -0.21648302952553036 -0.10319996712895776 -0.24419823605261173
Ni 2.7045093190800293 6.741923197302814 4.174319177934197 -1.1344118524099172 -1.288208301539504 0.12883437986761037
Ni 5.945091498106394 6.842096009356988 2.043427717219483 2.087102761365838 -1.0371722166294526 1.8229867033433766
Ni 2.8118399640352596 3.2924096795428976 11.166495689853424 -1.2474154358928582 -1.272258720188783 -0.80151004307231
Ni 5.948177565058587 6.639769775115145 7.234747822859714 -0.7819241505205824 -1.429828263207557 -2.384311745287526
Ni 2.7014324642679917 2.974950117633861 8.768643777135738 0.3769412069460089 -0.12389811890825758 -1.426863009931646
Ni 4.46413863451977 3.6549073946736423 1.8051446575215195 1.1145053432939773 2.5499288412011247 -0.28740279646454375
Ni 6.062030405244124 2.1939725116455726 0.613686061972969 -0.16096365630198728 0.19475772203329683 2.5082278619179124
Ni 1.647250417679132 5.358950656413284 6.766918497187548 -0.7829397362692904 -2.8396466589520903 0.8965318452658494
Ni 1.7916599267614588 0.8958235148826204 7.171809560101271 0.9086160301238932 0.34832328609900015 0.4667596105617381
Ni 0.03903275905414176 3.0491262701683657 7.6115409370842295 0.37406979893548475 0.4739926379750675 1.1952780917676706
Ni 4.226520691341055 8.017887518142569 3.055858502194224 0.04766002508012437 1.6279554159337188 -0.5095124281482322
Ni 8.780247388875985 0.7044238000795716 8.242742962349439 -0.06052042598256029 -0.8058698627029024 0.0450369856349805
Ni 0.27291610061369515 3.8850358679056916 5.2964868188728635 -1.4208186035097787 1.3588727579346018 -0.007386265161742118
Ni 2.47725503357659 4.152372175227018 4.601510989737081 0.939505263503582 1.3740965168628916 -1.5561905273855907
Ni 0.13258664840637246 6.4055971723547 12.510335980575128 -0.741278094864446 0.02801782536916465 0.27016689220223145
Ni 2.735148897238221 7.493375894091763 12.832537031022357 0.24607257025718907 1.5839988078471108 -0.6113160291502956
Ni 2.949423277262138 0.6747883451983618 11.446832169362615 1.8398006895769219 0.8448393019875644 1.8866202210336218
Ni 4.090798230425649 6.392202720568165 0.9778373562616799 -1.317462313308615 -0.7710380997356979 -0.4204524999650823
Ni 3.614088401643291 2.1589203183527523 5.139721066199562 -1.1592402243075068 -0.774889355160988 -0.36087823994587526
Ni 0.70549332955166 2.8341149189319848 3.2479224123025063 -1.3578252905066936 -0.7561030756924204 1.1768332547989215
Ni 7.942476938827187 7.46692783970446 7.8728801411641305 0.46007268545986574 1.309944150554699 0.9125724436684799
Ni 2.2140549771852176 5.311158073284991 12.064915185831948 0.3618596300225381 0.5738080049025086 -0.1289909600501327
Ni 5.313626926846745 4.411795254154512 8.114547741155334 -0.18549969377013859 -0.5694546130298193 -1.4757934170837617
P 7.456177272142641 2.7425462457833287 5.976618205361589 0.13320268413863512 -0.48668745983391665 -0.33148590282668716
P 8.58601862583109 1.1837323735998806 11.983640158093383 -1.5329384988361858 -0.526079588478294 0.7378436152616002
P 6.449317989534127 5.592423136521889 5.219526757583276 -1.9519961753362707 1.6337010601682447 1.6890052320571878
P 4.7529945012450465 0.867033734467713 1.8129510250895446 -0.6786681333427086 0.16761175774612425 0.8010829828372203
P 4.335868794990406 5.702876696989935 3.1686694493281404 -0.5949967231649816 -0.4749336617320981 -0.5753478385858027
P 7.2156851412353165 8.770933915178471 9.692329409919576 -1.4538783621782252 -0.19185494656420507 -0.6344343603353139
P 5.020680869892294 4.860767328927755 13.239989990113408 0.1405231290594483 0.07212201477723064 0.08524801063622738
P 1.6747394439040404 0.9005290760742032 3.5129695027951167 -0.9892465965927673 -1.7407813361882147 1.3411671131247225
Ni 7.5644659796740745 4.7983919279328315 6.853195717030712 -0.6218156431300388 -1.2390241265053694 -0.07287869043759707
Ni 2.898894688507573 2.2579508250276064 2.589768428583473 1.5858608007565138 -0.8393137441836448 1.0431641725468292
Ni 7.822129539831811 2.0760847540717955 10.156195672896718 0.6932881972487286 -1.029445023188524 -0.5479931007219336
Ni 5.306146669040237 3.6769059853656936 5.555560757688453 1.3375495709767933 -0.5163039971487688 0.709834531643184
Ni 7.415063490627304 1.3680304495568227 4.1850375030054705 -0.35447002242668635 1.1970639800234997 -1.708324244100774
Ni 4.686777637805154 2.910916531410893 12.338038559599148 0.7664448239380607 -0.4508956469462879 -0.7415316056361487
Ni 0.023766400387949384 1.5513888872178734 5.647905093038227 1.6137338730176982 -0.713615595952171 -0.04770219117196946
Ni 8.176428450223893 2.957972143326721 0.05745059086763345 0.6852360163682134 -0.5190638192820932 -0.4611762029366896
Ni 6.237263735287758 1.0199036730691269 12.137358534803147 2.033487290033227 0.3544196288047251 -1.8917284887944648
Ni 8.94415899866814 5.065184718984966 2.0540787936676197 -0.3132894344233185 -0.4827444160257686 -0.07120233117643866
Ni 8.892875014420799 6.6232708320961065 5.738240260620022 0.6437132145340785 -0.3751504335941732 0.3557046661647358
Ni 5.739458105548619 8.763370748110558 8.025911292218272 -0.06006122695795462 1.9554249985121617 1.1997011605360306
Ni 7.301256711142546 7.6974800713836755 11.702279288598865 -1.4105030805163836 0.1650545385419093 0.2533642188225959
Ni 9.179952938096006 4.139281724065626 11.583589153617519 -0.29870690862345334 0.7961323237001644 -0.4699392938413003
Ni 5.023177359874516 6.507971685906108 11.697573727407281 0.10233607646676571 -0.2325855915143478 1.803064253387837
Ni 1.4906163986100585 1.007117222532876 9.813014894458671 -0.09044523856645068 1.3028044541861241 -1.408332041006994
Ni 8.736581844537492 8.701198014199061 4.442318759346741 2.2050989129673635 -0.2504095070696462 2.442592740416606
Ni 7.0893406389985145 4.218653523648002 3.8293862504385165 0.4138187966986486 -3.7096963987670115 -1.3691178327013775
Ni 8.963670311518126 8.655330768363331 13.143048796825887 0.5464789780702524 0.4606113315721551 0.920220190021725
Ni 8.641061163261996 6.3268333740226055 10.20734976596786 -0.2481942445858822 0.0036016013083292812 0.1578017136342379
Ni 1.9325964590050486 4.207829258964937 2.042928419223039 1.0479497668609306 2.0185458382320465 0.9809619879864718
Ni 6.061625071077269 6.574372792149117 9.499712771401947 0.14176831432045908 0.2677896502193065 1.1964728834067202
Ni 7.354972700391018 0.11604256590057056 6.180736200863737 0.48320335794005814 -0.6004271501519336 1.6568173344707338
Ni 6.711670529031166 1.9115559308892005 7.887441771108404 -0.10902377289958644 0.759021534890796 -0.17264186397086395
P 0.7293951483998996 5.858239440717508 3.853061450638924 0.33490547003119736 -1.5640581030591256 0.7547532465327453
P 2.094416912981838 2.998846409198007 6.342624824677679 -1.6450139140779023 -0.16586263626550143 1.4266763478421363
P 8.944730151357799 5.641265903627941 8.16257339142957 2.1016608616856707 -0.592899988536953 0.5377554821543254
P 1.6150171392739867 8.653046157604692 0.9115090259259017 0.19269672573921007 -1.7753061094379619 -0.4672036400776921
P 0.4236838288315552 8.485219388246321 6.692209882952039 -0.48103848907825547 0.5305317107123766 -0.218157846124792
P 0.7074739396851571 3.0566525886756546 9.95535443564799 0.8464814655766777 -0.4224106521327177 -1.5278708545052913
P 7.959639155937443 2.666886938683741 2.273432747773444 -1.1603931069650275 0.15782691044521852 -0.34385702279753033
P 7.8318207112757126 8.422088591758621 2.7443499828258346 -2.544061326676754 -0.0015056380112490198 -2.3235498927181206
