# total energy = -340862.8017863211 ev
CRYSTAL
PRIMVEC
9.35089409876621 0.00000000000000 0.00000000000000

0.00000000000000 9.35089409876621 0.00000000000000

0.00000000000000 0.00000000000000 13.68597871640728

PRIMCOORD
 96 1
Ni 3.6244439660664667 5.707318228626814 1.1806195797804984 0.9685769840585576 0.3011072905348298 0.490287261370033
Ni 0.8865704280655452 2.376249214808956 3.446882642812717 0.08858581676020873 -0.9272539569400549 0.24190712602558986
Ni 0.34752598012110353 1.497199710887401 7.669485539297178 1.0899613354060262 0.2939046021388035 1.8294278309830299
Ni 8.47642655827037 1.009746951093697 5.950526568989193 -0.342334672615733 -0.931465423918241 0.46171896281403707
Ni 7.148636996228767 0.7198178033298096 11.257907991018898 0.26112792192841483 -0.45326286162688395 0.1694801784134307
Ni 0.9733626220569362 2.969067849592693 9.852426525147449 -0.7088328298515469 -0.4002749965759429 -1.0407769032615752
Ni 6.995824684453195 4.211521151858024 3.083396556600649 0.11527232491245955 -0.47014883874894514 0.5690856597261746
Ni 6.774881758089643 7.829110912531546 10.362079242681109 -0.4569292547348776 -0.28301469469917706 2.09920031596032
Ni 2.6594597451446984 0.05741823027944637 0.6013017659330948 0.7675416565466652 -0.272935198975988 -2.2111078381656046
Ni 5.203061912092155 2.3608669939748586 10.127077247002017 1.5640071952165322 -2.509580776401381 0.43244823887437783
Ni 5.171409135482174 1.1788859240098954 7.828818229545463 -2.5228504969270937 0.6633171048079352 0.2629945428235083
Ni 0.18931259189946967 8.277701356345611 0.7183674796511661 0.27461747177441737 0.11880322088385348 -0.694308925203759
Ni 6.1381980789698884 8.90396813941115 2.4081161268943774 1.6073004586875288 1.584651096719129 -0.3339562187440506
Ni 4.719835756442531 5.172073048964983 3.347193695645407 0.8260162557437905 2.001940882685514 -0.4624872084386293
Ni 2.65103458953891 5.196955778229136 8.14670187529326 1.2962597110890708 -0.9119422662836488 1.108776154119684
Ni -0.018781270848196866 6.070563061770482 13.176367352374529 0.04790196588760137 1.2225374417042556 -0.6807391569391243
Ni 5.267826204795472 3.8807987284778767 1.360948767694973 0.4520297605507312 -0.6439947503302392 -0.2620689456854454
Ni 4.409320615264501 6.240291141016497 10.310893383335356 0.6307805656328105 0.3107301583365745 -0.1627973670766164
Ni 1.8463620974802168 0.5175981722708844 10.25849003757465 -1.8440628072873853 -1.403113215810216 -0.9357902765458399
Ni 8.651250874814004 5.112816432900744 11.060816390297614 1.3411416592034258 1.0403598703288148 0.4109034228240665
Ni 8.837034439271049 4.68239477636975 8.8542672020523 -0.06722920546130357 0.5968214350785463 -2.0378831051080772
Ni 6.774068230300849 0.011460455838461578 13.571263091949351 0.9733330106863043 -1.5118299989923447 0.9776617199686453
Ni 2.5584513868164818 5.401422429146075 4.668315135087136 0.202176125984555 -0.4697305202646039 1.6337707370639152
Ni 6.544036234848699 5.054597766084277 10.293006057965421 -0.6729574561111765 -0.16572868179079844 1.1345944007343685
P 3.751513266318469 3.623892263313146 4.415507166816987 0.5670089797028041 0.2172978121173419 1.2589866856702254
P 7.974966159078807 4.332914459376715 13.009316434116235 -1.55802423816022 0.16272100531272618 1.4590987300369
P 1.7980460275411416 9.191648397138199 8.072195821091487 0.4094224674031659 0.39321551862600024 -0.5149235718614745
P 2.45749913385301 0.40223432128339415 12.163645881859964 0.2672785149108429 -0.1753633766670851 1.7253089515842286
P 1.9368600508129774 4.369756982225556 11.050661319278873 0.5862192340826679 2.145942714322181 1.20714604684985
P 8.653775616227504 1.594215237424639 9.693956922426816 -0.1856508746360222 0.9050308838757961 0.8205639743799675
P 8.808065369274678 5.2306844533346615 3.8224257719083625 0.06172935868899693 -0.20596901736808398 -0.2355935251027362
P 0.10115516736596426 8.959306730837403 4.607768095633776 -0.35601268432345784 1.196596553468778 -0.34719560025246016
Ni 0.8287145759410922 7.296951527930659 10.99311217648169 0.5386522829369819 -1.2737281056454581 0.8990240155600839
Ni 3.9498363797958937 4.097262576555999 9.943328437106368 -1.4826538916490208 1.3033333301064005 0.1786307345644472
Ni 0.48977832716236047 6.994057365463746 4.919424980984354 -1.6476613790030783 -1.726907149309284 1.4871168125163807
Ni 9.112193849765967 8.20527868135468 7.041655286734094 0.9702649132839419 0.5467648847417874 -0.08242956735082578
Ni 1.7404632215251112 9.412423007407519 2.5272661549127045 -1.943683284595201 -0.16756496366858883 2.8967863413878754
Ni 9.002246036655139 8.868182267598332 9.78453061800198 -0.6917547913233376 -0.3503770833042353 -0.19218661887201094
Ni 6.599533791475062 2.2588300372929946 13.423864947871618 -0.09924509624626779 1.5986288990554596 -0.2927213804639798
Ni 6.5653843261339535 2.2667782972984547 6.3605586008826505 -0.47868412991346593 0.012402230319094768 -0.8384264564826851
Ni 2.1820124420637503 7.239929775562072 3.6828281437089294 1.1236242748761103 1.7313955240979408 -2.7916367067317145
Ni 8.661592963715227 1.022108833125719 1.4703532938571926 -0.10087826097431657 0.02722464004390795 0.2731735402390392
Ni 4.644130917614051 7.598003564255129 0.12505231238944045 -1.3009781996106626 2.1196315872314786 -0.9134625595829171
Ni 3.323850123554076 3.5340208198866985 13.491829116544192 -0.6381092380837398 -0.26323699785161764 1.3234619825354756
Ni 3.769934527742889 1.987158510306356 5.847184227487609 0.3156147401223855 0.6459469889606038 0.29694493162702407
Ni 9.254290036875352 1.3416101835569814 12.922547617360154 0.5187262334370163 -1.000465348126722 -0.34572415791325617
Ni 2.3506558175913734 7.45573906105151 9.327774973438776 0.5056601442816775 -0.06861400162397216 -1.2687643338822794
Ni 3.590313202513607 8.993605810484496 6.6643186561454515 -0.6316002333206284 -0.6110859154173605 -0.04309271742441611
Ni 4.63080589348725 0.5163161646864743 12.729684490961773 -0.2649537234324082 0.6472582515728594 -1.1382690213724784
Ni 1.2692716666131671 5.276756308683959 1.206036245099136 -0.32815915244629934 -0.551276913679528 0.6411122865761217
Ni 6.801111016107663 7.0176029168681575 12.835517910658012 0.35776900489293223 -0.60158363235388 -1.230601706769629
Ni 7.871040321783881 5.530464768058257 1.3327258990497015 5.705434752186238 -2.943146159599338 -0.0037147298474258608
Ni 9.176387737927715 3.4265135901422528 1.6611769902471123 -0.4587285127271454 0.10128038150874169 -0.5120837884198343
Ni 0.5662022497489815 3.7104347884314244 12.71250876863468 2.388452764039093 -0.7334940800436529 0.36530439403802895
Ni 8.544706787164337 3.269549481375595 5.117283355023813 -0.5493647842584797 1.1760935484194197 -0.6342181305594496
Ni 4.689192876397949 1.3752734024036375 1.2401576577578717 0.9936020453479857 0.0734733865988025 0.15575562973848658
P -0.024787350144087752 6.8239552504527685 8.873618877442066 2.6795566635043078 -0.7471859757084486 0.46419493515835536
P 6.207993152711954 8.963954125217068 6.720103285221422 0.29999091754219953 1.328387444861551 0.8765255773472516
P 7.4919457230999145 7.695888723945906 1.3153809255389617 1.4788319467997693 2.3702866346530276 -1.274645732363721
P 1.704929823853641 2.0002030076094353 1.3740858388498804 -0.2008988019340282 1.1726413282047612 -0.23981964736894185
P 6.8039256352390085 2.072504120976753 2.029138414386961 -0.41533729022570404 0.3875539494648487 0.029517549843142716
P 4.884897739520634 5.838586080340526 12.510230226942774 -0.6244258270593762 -0.05480203544154433 -0.7674737794232073
P 5.470123448275626 7.355740599288693 3.723654147454624 -0.07030990126915633 -1.6069785565717358 1.3208124607277705
P 4.9366642893914925 3.2653415790197626 12.100047645653918 0.26779864908037104 -0.057879903035919666 0.45854056508605545
Ni 2.5820997980562574 5.846122901004526 12.808543386378304 -0.4791039910597039 -0.12355719062907108 -1.5800552498183305
Ni 6.045278244058993 5.343568447200448 8.129101622372936 -1.3208628543497316 -0.9050056870648157 -1.0006304129496768
Ni 1.0481230205788847 5.828431009321784 6.71086460182684 -0.10559957770938588 -0.3783936231218193 1.0047470062212114
Ni 3.416031237829169 1.960349496852644 3.1103439632873973 -0.3451711136232636 -2.5576447217881433 0.1698463035035978
Ni 7.148580890864022 3.052216000143934 8.891616543362666 -0.4825163591753625 -0.18852922462508176 -0.4336579429117628
Ni 1.5652742201106387 3.446019555285065 5.450495921509201 0.3098361857673954 -0.3783666265386258 0.7325453429771384
Ni 2.8263545034711197 2.427566921761858 11.36969512500393 0.8338912876164928 -0.38966893892532245 0.4860259149905178
Ni 5.755821316448372 4.913661089846277 5.513943608319849 0.35318241396351435 -1.1828740616763629 -0.10734767074874414
Ni 5.434318874674558 7.079328168981152 6.27395342477374 -1.2764920415438403 -0.4958974084679588 -0.08880975984555672
Ni 5.619672298001896 2.305051506948278 3.9336920610906847 0.8302164098680669 0.7071245889111887 0.06123622110266229
Ni 7.970421624534509 1.0782141978701458 3.79617594192327 -0.6712232470288891 0.2761246524475632 -1.3796130758057465
Ni 5.181077960006464 0.07485110219495218 4.608547960203723 -1.012905630772604 0.010617370504530101 0.9269392539131133
Ni 7.093167492284776 0.6284212290717258 8.618238478198384 1.25860384840951 -1.7807133964964623 -0.10650666290468754
Ni 7.23783517527828 8.20571817337851 5.007919037706326 1.034156055510948 -0.40628289333291967 -0.6667767812217614
Ni 8.021365295722449 5.955593818515028 6.349965908018902 -0.20144696112801433 1.039054778364146 -0.95510903147911
Ni 3.4766624353296467 7.890901620903409 11.518119997256488 -0.3206273628456285 1.2699143883263226 0.26949814826998103
Ni 6.075874369632954 6.305354662331784 1.2155133762938821 -6.9729898962517645 -0.976859278672008 1.8232702960220666
Ni 2.975650879056039 1.8314380704581994 8.861520690624342 -0.4451114361643431 -0.05818869252559011 -1.2629685531361086
Ni 3.9639281772408688 8.268359813115664 2.5127049425827006 -1.1702378609695911 -0.06829852726608236 -0.5004690869990414
Ni 2.8738757474096492 3.9677713947258617 2.4437682809212236 -1.3991873983932483 0.27539137382596446 -0.9203425745322021
Ni 7.930371745001113 2.8475623313445126 11.434785763912176 0.02345540280946283 0.512211315136634 -1.0979911476890383
Ni 5.042320042099372 7.95174788896874 8.684382962874414 -0.3278938146000547 0.7212360886119062 -0.12003246530526425
Ni 7.4134543178224614 7.158408680588421 8.363953068656631 -1.5114085951842098 0.46370822532992395 -1.4796940376897483
Ni 8.712097142879335 7.327416740986883 2.9683104271686434 0.2191353795467129 0.23085061110111207 -0.09392162715082535
P 4.209510709621349 3.261096273087434 7.972972548451557 1.303345928511891 0.8396202196804702 -1.2301851880575008
P 2.061217591768999 7.224276378798378 1.198718235357638 0.6971168269661994 1.4383926078378002 0.7898698877302204
P 3.16711978714052 6.798006519258472 6.740385374576532 0.1302849962712079 -0.2666298255832505 -0.6188357345661084
P 2.76771504641907 0.5195693407522386 4.565095290298577 0.20861519674167944 -1.4770586569494304 0.4485536290766726
P 1.018172106699485 3.6175897606735226 7.570056546986517 0.43795682739743286 0.46742706894240793 0.06513658459833298
P 5.215190021771075 0.12797166153497547 10.544895768432587 -0.4239810819436311 -1.1806796251282052 -0.8743612227060813
P 8.647921956505835 8.001962190415002 12.287394679608509 -0.47092531190365344 1.3916954608915773 -0.5011992802968465
P 7.449763839706229 4.086509048313317 6.88627802470029 -0.6020695708513631 -0.7320650609066102 0.7694753832342683
