# total energy = -340887.88491098274 ev
CRYSTAL
PRIMVEC
9.11908842976609 0.00000000000000 0.00000000000000

0.00000000000000 9.11908842976609 0.00000000000000

0.00000000000000 0.00000000000000 13.34670768855153

PRIMCOORD
 96 1
Ni 6.679276428318186 2.1744831475707347 11.303820668351637 0.16801670649402678 -0.2851304554905993 -0.3994998089728152
Ni 4.336445786525071 0.9371504948944 5.81797668839063 1.9394221953260018 -1.432227873787985 1.7963315626496934
Ni 3.119567249527237 2.0153732900769867 4.4361256318528115 -2.5405391724561084 0.796241338474203 -0.40690304341542183
Ni 3.631877645790348 4.376569776264439 4.83189498800907 -0.8346690463227819 0.6623269729805238 -0.5358734346402642
Ni 3.900544233449725 2.944608416086439 2.403634900607696 0.36311818501998755 -0.5311904273422982 -0.13333895260618328
Ni 5.138770556806618 4.9437862048504435 2.3165348379721054 1.0899034855848972 0.05320666592996643 1.0994574478219195
Ni 5.6800067020363825 3.0274553358096563 0.7114466692484516 -0.6538790993234868 -0.6612440243289902 -1.746839883677469
Ni 5.8702856042867575 8.321305112958932 12.35050965523451 -0.5885933907417992 -0.617093297953705 -0.12981242751016353
Ni 2.0392470639719105 6.623978275186475 0.5893922281878676 0.1692086699195989 -0.13393236321580806 -0.6260823888261928
Ni 0.6283243530502047 0.1743870665870123 0.09584435667219965 0.413641647690836 -0.4817506846539316 0.5088351995755495
Ni 8.288202821423953 9.019480772601087 6.897578289766078 -1.2123916115195055 2.0370120153570337 -0.5581975520587613
Ni 8.868423070320944 2.3549499105121185 1.2546826306031804 0.31568133169426277 0.9529541899196362 -0.17255187536021893
Ni 6.937073062393624 0.9751770942610283 4.939243074921318 0.06841911200434668 -0.8844530597244445 -1.158553225542811
Ni 1.020453369046474 7.973867838170314 2.5932389903033632 1.185689419637971 -1.3681698669658113 0.07717191849631226
Ni 8.035822925963329 4.233901635475255 3.5710587964340434 0.16494809487103207 -0.8745363148313647 2.7496433930190642
Ni 7.799510864575606 3.7966048618476074 12.659299320724397 1.4004292412201496 0.07408788025434983 0.20528176149307226
Ni 8.36667257863015 7.695671802947837 9.05196387802168 -0.000400834982844471 -0.7298230589499689 -0.34368475888572425
Ni 7.217120272597258 0.9546591449624878 0.1330110259860046 -0.5149009461536551 -0.289476648274437 -0.19576842268599834
Ni 2.099268904986574 6.6954354532768585 9.167666873888292 0.7504340503321012 0.27420146728292133 -0.10764386183292429
Ni 0.30167495258201066 4.891725328163615 1.4284851636123987 -0.32666971238496645 -0.4004125505950717 0.033562666446793815
Ni 6.340237834109104 2.3726500614403263 6.728702800315083 0.364568801423585 0.6179597597190584 1.441083524406402
Ni 3.746832876393637 4.312362273592873 0.05241925686791102 -0.23801061918466104 0.5023778739859799 0.7366958748104022
Ni 6.389499150602755 6.054463836279033 4.517259986741244 0.15627344991516956 -0.7824080321355364 0.1841804607380828
Ni 5.356005484890987 3.1033626291256784 9.212805450436225 0.3391642453075514 0.2709672766163398 0.4030127072220801
P 0.3353936945048031 5.607044874330772 12.4473397853819 0.15359616019332256 -0.4335281022021179 0.7382125685652448
P 4.428393556648263 6.16405704279897 12.3052908307071 0.6579442705317959 0.5548111520850315 0.03853338018850783
P 2.5981924792184596 8.745908115287214 1.1424339454895835 0.059585572873116735 0.03982175998262819 0.9421496431049646
P 6.802064956009229 7.98102632270336 5.401158651980641 0.10965369317410147 0.7821339525385433 0.2595878311348046
P 4.968863698437549 1.3620179507914203 12.512391715655708 0.48012677589726344 -0.1703057596385196 0.9777697063014192
P 4.3462305685683305 6.415917150210698 7.912635894101465 -0.6150104472827472 -0.02524540483035007 1.096339213907912
P 4.758604873114685 1.0549144047794448 3.4466005636245285 1.9267021766561723 0.9182597238612444 -0.0004635698999798467
P 0.8053450124182918 5.960920225654843 3.300654110491866 -1.056443920374871 -0.67392419089982 1.1003761029814467
Ni 0.7786370257935963 0.4695929377324076 4.82631684152644 -0.39160755070893205 -0.8656852921986382 0.2156361081442028
Ni 2.2759238889027182 6.892672220111583 4.7312348406592895 -0.2840685898849882 -0.721337390076461 -0.035611835666338666
Ni 6.5553115382006935 5.904026232022135 9.031957509592315 -1.1706862613609195 0.3714619289989925 0.3593173232166586
Ni 8.975016096699006 2.657411840438336 9.919046032015991 -0.2249825823561093 0.21140510078199073 1.7737595908864485
Ni 2.3679902071774137 5.605330485678273 6.791311726759077 1.2209713827687165 0.2382273631811575 1.119133843204924
Ni 0.6557272142244776 0.5079824768244056 8.953198677278223 -0.7748739285420203 -0.525067602274012 0.2281779493649554
Ni 1.9149630057542184 1.2241646887709603 11.64382770976761 -0.7828314928262002 0.23449232161875744 -1.3925051012770664
Ni 4.22184620037629 7.01211404229482 1.623826983840796 0.5919188555706064 1.0746547869559429 -0.9888401051829682
Ni 6.162315296880739 8.023676299978593 7.494056049778376 -1.5391898790625362 0.7979081846536645 1.4691049493199924
Ni 5.551163099530125 2.9983563241600373 4.543673426804899 0.02570280408274283 0.5781865935861784 -0.35645414273625065
Ni 1.0228790466079904 7.844841853892515 7.05585739829045 0.9072127220184633 -1.0799507452475594 0.1916950239475731
Ni 5.154236531033429 4.951336810192307 6.4956426059139645 0.39741104476458655 -0.5642820676899443 1.0649090204230887
Ni 0.8947120804741567 7.461967800893174 11.477100677585385 0.022365769289709868 0.9673670229108565 0.20030487710377118
Ni 4.699868823589395 0.6862114154289624 10.480115282992156 0.1920899453931466 -0.011877725274192447 -0.7861849826794653
Ni 8.824542016087799 7.295708577954956 4.819028865935599 0.07244468822397201 0.10358846081662804 -0.7524415676804331
Ni 7.6197736287203925 6.397305090424777 6.774108566158325 0.9083401507546873 -0.8506451100360641 0.2943972255045059
Ni 2.7985844507008713 5.2583309271413565 2.514039706010997 -0.7889607456523897 0.005380547585622992 0.26494575301260825
Ni 2.5131022637052687 5.540895005792279 11.619376697565755 -0.5567399936766283 -0.4062862357670293 -0.36732039602679323
Ni 1.2144802167020492 3.6853793384723645 3.6346689988038072 0.7560670802481624 -0.6994732430135179 -0.07419689502838835
Ni 1.466768921276902 1.1187115484650396 2.7387176341920183 1.0560168601397815 1.63408055499485 -1.9094894123223114
Ni 1.1677448877442629 3.653918482881269 8.037440652276912 0.39145431296051936 0.2682871586810154 -0.6588660110151169
Ni 3.4489304907559846 3.3875407864547515 7.463852716502066 1.1113642265618342 -0.5277988851622458 -0.006498720350466227
Ni 4.54631249103912 7.217120272597258 5.815681413795767 -0.5044157303516151 0.9248949697895749 0.19449906905527148
Ni 8.838020029004795 7.122993040304132 0.5756169329832564 -0.92993998841265 -0.07398117947315645 -0.9790331463948753
P 0.39799350186022103 5.938970579449693 8.065175448275392 -0.17664764269614738 0.019474049564211622 -1.3669899877250973
P 8.668523529621698 2.125832810011751 7.861878135172307 -1.1179153974167908 -2.0253690318014663 -0.893085795698778
P 2.207640153637176 3.634750158692144 9.912639872290558 1.0914199222294234 0.8644676177414533 1.3358840103489122
P 4.420605855003395 6.582513779426269 3.7939220259882163 -0.9808889686566913 -1.1830131583573884 -1.5993647487802198
P 7.450112985742906 4.3976075136118755 10.402704251969762 -0.20338531580130778 -0.2341619348625322 -0.5910544506877821
P 6.340575240386459 8.092954015899043 9.947287849339359 0.4328513878500675 -0.0606590084429536 0.6027691680215491
P 2.527081826494007 8.803577231448978 5.8004662145048265 0.7823398979017623 -1.0876008055936495 -1.19449313397253
P 7.100550963315817 4.102924166241951 1.8063701632511926 0.22444445046445216 0.2559785165169914 -1.9700671739053686
Ni 2.958551502520869 1.7146439869804244 0.3233929739373013 0.02857549764484756 0.3201797337852486 0.2960301331222386
Ni 1.8565278861519754 1.295020007015253 6.984465877637822 -0.5663692892362763 1.336139063782512 -0.2549624165476512
Ni 6.867065819387005 1.0547411420964794 9.006945673442965 -0.1938058996429888 -0.052534065342974036 -1.1542934218251928
Ni 2.6922102824486602 1.6891926107616573 9.273573232896496 1.040492282141621 -0.5663579763823665 -0.30348838917249665
Ni 6.684574618781498 1.9011111102055596 2.5733384033014945 -1.8776933508576372 0.011877725274192447 -0.49932751719543034
Ni 4.200863177560316 7.528746886543489 10.103444945951834 0.2916649141750074 -0.22102154082583225 0.15659560914127868
Ni 7.770539520166067 6.73872376675249 11.342446391837782 -0.9457687279147906 -1.046731321072797 -0.013459982159647789
Ni 8.043337054950882 4.23150331517947 7.9674242901817145 -1.3500852415499587 0.008180221817947201 0.10215327103199826
Ni 3.144362051368451 8.276411839893724 12.411770780386808 0.7621374548119585 -0.08514490939945982 -0.4109679575134148
Ni 0.5473331678524329 5.126751598061962 10.173221476017453 -0.9962019448646777 -0.4408740010442278 0.33669624338303306
Ni 8.825371853148317 2.393177129827444 5.638650723430245 -0.18411284072494097 1.2472226031557618 0.11166660983907219
Ni 3.863256280257844 2.8484202697748815 11.324707940737552 -1.2271643989533059 0.4648387393899414 -0.25513596601103805
Ni 1.2747482731082953 3.611232029251728 12.911818738240253 -0.18367652451847077 -0.35240619791912214 -1.9686299272382095
Ni 3.414806861300368 8.606121606488404 7.789565586573389 0.6848086990228077 -0.1145632146605769 1.1869016947785171
Ni 6.1593880694474805 8.25641367864408 3.148808518958659 -1.4585402864302688 0.25786956289211715 0.7019283894222299
Ni 3.3528882498616612 8.567712005401535 3.4369507440922105 0.08182561521823972 0.45537579420482865 -0.05058619758798385
Ni 4.164587443200497 5.1760676290870755 9.879299572543717 -0.6562738248079084 -0.5866090133219187 -0.8995156104845217
Ni 5.651172143955501 4.275311416703998 11.544635735678748 -0.02400690443755865 1.3353201674256423 0.6261286686830958
Ni 8.182321083954907 8.946354801301089 2.186044328068819 0.1855547153777901 0.5587791355938441 -0.2429939313318654
Ni 4.823250092037952 0.43435860328809633 1.220051979822675 0.33722074842793537 -0.6124858810886806 0.18344589656490343
Ni 6.4021655646363875 5.548664469259992 0.23415722075694706 -0.5151161474882548 1.581949638627566 -0.11345995429406912
Ni 7.983205784873293 0.1992721474051398 10.874057173797556 1.24886245275203 -0.526601265309719 1.023623274300424
Ni 0.42578301239016414 5.021453482261852 5.657175239965825 -1.262844625963735 -0.4705219058176477 -0.29963970485036784
Ni 7.654024925416089 6.283818033082407 2.5067116064304167 0.11258603632954803 0.8365937741493206 -0.4594453362885119
P 8.543692326089378 1.649059501933712 3.2750686836710154 1.9850798452641167 0.18024538734973475 2.8770410404401483
P 2.0093546916160814 3.38427615274414 1.4997699909286744 0.11136321966604047 -0.5034024585957524 0.8505366094826579
P 4.753096943614099 1.3721219009348793 8.030193712584667 -0.06602875739529919 0.06722380614466486 0.006256008212040838
P 8.899263827888795 1.7485852346644988 12.238864653784722 -0.14112399586824081 0.8104166015333203 -0.17012192576248766
P 6.772756205322335 7.812195516786392 1.0316114858294492 -1.2102187722379028 -0.1541116663771604 -0.9026726680562648
P 1.873462033639704 3.277674007277501 5.8657844221650866 0.341420902552212 0.9272274745774933 -0.5810258628071865
P 7.1409941211553845 4.372812711770662 5.891958030199163 0.7522505347155497 -0.7556667594859501 -1.166321042413688
P 2.150344920107074 8.631326767315588 10.181735969021918 1.442888953046257 0.6954178419972217 0.021995273324168573
