# total energy = -381173.3163722591 ev
CRYSTAL
PRIMVEC
9.18772025567046 0.00000000000000 0.00000000000000

0.00000000000000 9.18772025567046 0.00000000000000

0.00000000000000 0.00000000000000 13.44715730316421

PRIMCOORD
 96 1
Ni 5.098054629830932 0.5106599209631036 8.540572116546974 -0.333700908200135 0.3702964479359816 -1.2724559238012538
Ni 6.386145440836628 4.123145637799617 9.421736961678903 2.9141765118398646 -2.9080845400095146 1.2710500445926625
Ni 6.89071665961314 1.6411105848330372 5.809615997334931 0.559556637189817 -0.5512972253945021 0.45927538636955095
Ni 3.401303211374847 7.530926191926156 12.521145468363702 -1.1132514162822182 1.3677237805673284 1.228658467000329
Ni 3.1119819017992545 5.515636513610249 8.117295683778297 0.7888152212134609 0.44778846877587397 -0.16258525106581032
Ni 4.784973875778919 4.194910920400282 3.23806222999592 0.08803920022811935 0.0020717949273641742 -0.4731621716539722
Ni 3.2508818560121413 7.980527280655329 6.897705758380818 -2.207596996798869 2.5575591040528725 0.4455379821788005
Ni 4.59380498126195 2.207708102782139 1.765006991934557 -1.160900385618749 -0.895375105953587 -0.0643192309033602
Ni 4.436860344546476 1.0853545767378316 6.068016034526381 0.055290802152504766 -1.0644922446006442 -1.1390406094311802
Ni 9.061866823659132 3.0027674716015706 2.0820099837464245 0.1094822005932437 0.03854700703526265 0.08497701636302785
Ni 8.772132066673857 8.411265979782764 1.609988101376182 -1.4353803033740378 -1.0191868357956253 0.35833413336778286
Ni 7.4883135455682135 3.9989460359309965 5.905010258784961 0.5742731174643851 -0.3282000329865638 -0.021703196005046492
Ni 1.5531473514930332 1.5489669387951324 3.121367157999047 0.0864101492651286 -0.2473954028336707 0.98487315011542
Ni 1.9010403774403122 6.560758063525867 4.796507220965018 1.6885048953820017 0.6632376577202513 0.16983704753221718
Ni 0.39687919381848197 8.623658507996767 12.682699584311123 -2.136439145707121 4.52073932103042 -0.9144969143847025
Ni 1.2890003953069968 6.947037384532111 8.392074669797324 -0.9456640840161261 0.5830269523976153 0.02468079057613169
Ni 8.16135080221002 0.769809676124111 3.39905130115011 0.9900958319669398 0.6556575313801483 -0.1327594259536294
Ni 5.552819217321027 8.837227064398311 12.674012594847683 -0.5518492412432302 0.8648661387314523 0.019743758285830512
Ni 0.27091738721259256 8.225223833145856 10.342141641077784 1.0551789376195182 1.0129004885662816 -0.9008554123418678
Ni 4.957353882455873 6.290409396194593 1.099133400744517 1.149747711436039 0.9078405854104494 0.2866828875793837
Ni 8.967067926479045 3.9283843446785176 9.8974036126585 1.8324416781086892 0.31660255795695147 -0.2014356482741047
Ni 1.8572057642937527 9.035939077211932 1.1762927938835066 1.6357224614736476 -0.1620733444263983 -0.05129762183271166
Ni 8.60972073643036 0.028959694118204753 5.63559598259957 0.33316946117669716 -0.6595581519861351 1.1967346217085388
Ni 6.10398136530865 6.181488973043795 3.3848507607855485 -2.677683614851311 0.8923288629280954 -1.60162474845899
P 5.7199254725944755 2.6161206417867198 7.54631562328656 0.295195295925769 -0.5346498466458082 0.08812636062528693
Ni 5.48892781094476 0.3195121582026296 3.8974566408902245 -0.43144627997242474 -0.31856610944122554 -0.30635979718302075
P 6.1658606609577955 4.756740011557713 13.07905507807734 0.46614280291334564 0.7533342546980316 -1.7669240560218538
Ni 8.091845698782285 7.322870267653711 7.521291029736511 1.7558806537234983 -0.8011241204878009 -0.732196701388468
P 0.9943226448459622 7.788081293028451 6.364485390429373 -1.2384677397812671 -1.126799073059666 0.6787840900952826
P 8.665554512177925 1.0802186411375536 9.847138514133347 0.014484052548787959 0.2821114661586174 0.6503911407748864
P 1.4994543145556003 3.300660924137913 7.91955573176344 0.4083847701672709 -0.21027998603861203 0.11426676646608064
Ni 2.2492457858749066 0.26522835085536145 11.64094809017043 0.7547576174081195 0.5566170949455188 0.4842073737245402
Ni 1.8230366328135486 0.469616537217912 5.77540643988578 0.01183890161645703 0.7889342632898284 0.5430599250863744
Ni 0.3569015856182496 2.3661503378926847 5.958744640463362 -0.8790131196557958 0.5668757965590495 0.7238478152031405
Ni 2.3870340259417584 4.296389290176796 10.046169340838434 -0.9688096688946541 0.0632779341230394 0.1686931637357611
Ni 5.934155544851512 2.406273112072317 13.120310698159503 -2.0869883472751605 -0.3061312261119824 -1.8855755818191913
Ni 0.8739570786231308 5.977558335147959 10.639861445702062 -2.450480884915431 -1.0748108529178326 1.1549871054581078
Ni 2.459975336729965 8.751716952355757 9.323021339371088 0.28768896024639484 0.8989692510627485 -0.578483813111623
Ni 4.107903209962656 1.2173913039499893 10.492897429456322 -0.2729637382210783 1.7615674196956306 0.10012081398300177
Ni 4.142302034448239 4.391188187356883 0.35463129995308196 -0.7720662838898962 -2.408979166127219 -0.43486661850788333
Ni 3.0133057866883664 1.4967806879729868 7.725942903669236 -0.7089246182344049 0.07004430631259549 0.9799453737964994
Ni 9.004305756511114 6.222282450799134 5.100358910060896 -2.566835387148476 0.015936468724598363 0.18624762767975667
Ni 0.49169371012293556 2.0081783828693682 11.966127234201773 -0.03282090318476283 -0.7007438821958254 -0.597040493067888
Ni 7.2325182270577635 6.9367930764922 13.391271267657109 0.3060538359068278 1.7698880237461843 1.2772404896740905
Ni 2.0142330904911634 4.7215969817347005 1.5200265388893797 0.7585610503146097 -0.799650878376384 0.45820143657908186
Ni 5.230422114970836 3.1983005332207437 5.444498752300279 -1.0707474814817366 1.276453474996421 0.1366189089090357
Ni 7.303980314891329 8.303971783110049 10.90614179052206 -1.3162659790076685 -1.3908577954816306 0.4001263868132206
Ni 2.114076046069377 2.4214052872666962 0.7828746142700778 0.4807106734251914 -0.5481152281220947 -0.02490807609558936
Ni 3.096179023029168 5.353592692175358 11.981685719614138 -0.3330995271707102 -0.6058956294656727 -0.20623718342780611
Ni 6.548373016675822 2.4760905979873673 3.448120158503249 -0.8688886296272842 0.5742291516003272 0.1329175487980485
Ni 5.6945214261995405 4.914199160605236 7.5927090165130435 -0.9831142584427844 -0.09245892656236981 -1.975370588396153
Ni 2.622616359978842 2.742488545626119 5.647752255216257 0.9804611370906534 0.4089714959086763 -0.016892404879964455
Ni 1.0458841306934765 4.178042266085236 12.929441323321548 0.2543615497388587 0.6442050665688324 -1.2436991633835355
Ni 4.432303235319754 8.588065279883212 1.5012541889457516 -0.3753108704314375 0.5085811745832144 0.42115929622411985
Ni 4.44725165610983 8.25931946286434 10.472081730536843 1.1168694726507797 -2.0879617669320236 -0.15718156355173574
Ni 6.311054203518072 3.7831724266778117 1.4017318848030464 1.5057624526420261 0.9246795113446591 2.6142478149941684
P 7.85176138183977 6.2017570838384515 9.86576202300949 0.1064164171837264 0.3754967611899985 -0.4619871288737592
Ni 7.44089572153774 0.21757899627546506 8.140115224476705 0.4272983192423222 0.9666615122033998 0.4809425869303394
P 8.542898447305454 2.8447570593411373 4.164719153001224 -0.15788116072192165 -0.398993558760358 0.6381066669805784
Ni 6.043544541733285 7.458278888184835 8.52868504413259 -0.5968654009426043 -0.6848729766018399 0.9802251098204473
P 3.6854793976299463 0.8458628677491946 0.04862876555483316 -0.010222706169272717 0.6903411988052627 -0.7199567076788504
P 0.17028980032800317 1.138294220617621 0.7973544613291801 -0.5536994070780915 1.318588199382942 -0.25237871498087505
P 3.133536293424035 0.056094707001677444 4.248333838363389 2.0370431257052855 -0.45708532069676766 -1.2147207738733143
Ni 3.4924178327486533 6.604023038019085 2.9358101229895017 -0.8454705078136601 -0.2173230089283225 -0.7054140339779851
Ni 6.426635723824867 6.185329440093733 5.749237975168943 1.329231280919085 -0.27466940805827533 -0.3045109168997401
Ni 0.697431572585094 0.9946901536545689 7.94844008657588 -0.3129461921512869 -0.754180661858727 0.223430407377641
Ni 7.441024349620752 7.858257100031892 4.050714245483352 0.41294976383013393 0.19723240882603452 0.21498459060313296
Ni 4.515213222541416 7.188518234947332 4.9285448669491965 -0.6713302049203986 1.1924249385895915 -0.5567250812782928
Ni 6.192174291654032 8.524357627911249 6.329025384258938 -0.2421338973244153 2.313992845157305e-06 -0.6462244109917065
Ni 7.632615879267618 4.780223824427678 3.664188693575341 1.8102669417838628 -0.881936721060494 -0.6330315664505162
Ni 3.9612855707690287 3.4290960650257256 8.75385769116589 1.5905813461606348 -1.348874251960993 -0.23381329327386186
Ni 0.7645524626169927 6.262405224978766 2.458126767422674 -0.2882538316109294 1.6979794105313404 1.7293707803584282
Ni 8.19373751596848 3.1852172196343465 13.384453060485432 -0.141108312138957 -0.30344982262507736 1.4825795867676594
Ni 8.059082288495002 5.303923876692168 11.9886784934699 0.5557640029166042 0.8081198350793437 -0.6637413368295473
Ni 1.1985381020684678 5.244966276071445 6.819537553562203 -0.37685301810757676 -1.6542493166332415 -0.7646388810775734
Ni 8.518431548372465 5.2464087481452255 1.1141470543481204 -0.6706131242487161 -0.3416322472320697 -0.5430339569444453
Ni 7.556477241844535 0.8484593174820007 12.96408178484879 2.0433356435822168 -0.9998768226131038 -3.07165966579242
Ni 1.2004675233136526 4.122190114897239 4.27263260201644 -0.577557958863244 0.39212511377529885 -0.9387683853375575
Ni 3.330860960485166 4.93739815414853 4.8741103809904 1.37415770911813 -0.8792851423702599 0.6853707421738647
Ni 6.7020560127149125 1.024936128602897 1.4366939165378196 -0.964041043861417 -0.5680806155004281 2.4884208544943145
Ni 1.8572425151746133 1.9724197757919406 9.894418522360594 -0.7086752212277602 0.13949700178777913 -0.25994212915042975
Ni 7.502922020710329 3.218853463342071 11.329714067881664 -1.8917079199691744 -1.9940810203214623 -0.3564721404583796
Ni 6.44616881700231 1.2184570794949487 10.441905582262148 0.6334766244077348 0.5295276949278944 0.40760598301971734
Ni 5.369597700790178 6.533727790652847 12.064694934214124 0.7637197116974137 -1.0655209429754746 -0.8717587520862277
Ni 0.8028073732768816 6.746561329437179 12.998559623728225 0.3985024780565524 -4.947822181827828 0.8731435482488962
Ni 8.116707669684526 4.910983458529928 7.936727580845586 0.43537903936792755 1.5655979367424198 -0.04326780954969968
Ni 3.016493925603029 2.8035501341761155 11.84132491788704 -2.2993815230020336 -1.0152337646851481 1.958920927480562
Ni 8.024582399087052 2.574592146414167 8.227172548603495 -0.9446014470795667 -0.47499716798018193 -0.8670374353511583
P 2.91335257846757 3.183802310721211 2.9312520949907577 -0.20763072134122307 0.8459837000046526 -0.0006360909221021304
Ni 4.973257826148327 5.577313679414662 9.857048389157425 -2.7966220757614484 2.550904831961149 0.6802087383569511
P 2.407779898187604 6.8714500103219365 0.9390254319589613 1.1070321748453837 -0.2156070546784803 1.2196305524701059
Ni 4.845952774846979 3.5956786202469093 11.14722297510792 2.009815914558216 0.6091838132986412 0.05285211080402511
P 2.677467049663386 6.781226597809002 10.32503686235321 2.574673652245972 0.9758344369519195 -0.7438276007591771
P 4.615827946617705 6.613339386317265 7.004449610612643 2.3507436795240935 -1.436446539855023 0.16643779204268108
P 6.461346930797765 8.018968702035584 2.0408342968301345 0.5529509589478413 -0.3762588361670036 -0.09857095299737863
Ni 1.1583969524484052 8.409483562061022 3.6716656602864437 -0.5950908255406847 0.21179976511724816 -0.3122159988534816
