# total energy = -381177.8370881698 ev
CRYSTAL
PRIMVEC
9.12798410785495 0.00000000000000 0.00000000000000

0.00000000000000 9.12798410785495 0.00000000000000

0.00000000000000 0.00000000000000 13.35972741262811

PRIMCOORD
 96 1
Ni 6.7464930083997015 5.079759633536013 10.334203323357167 1.0301001402740193 -1.0758452077196181 0.019160117868218612
Ni 3.136576133855124 1.9839308204622401 12.476048267815232 0.0371311005243425 0.2762161837201049 -0.3410234100034772
Ni 7.193344339387659 2.4037815746421245 2.426567761216158 -0.2863812971785648 0.9681848908264615 0.26832289701495726
Ni 7.362513267712204 2.9246517282591076 10.92013409606043 -0.497887185204478 -0.08481400842260231 -1.0207027582195196
Ni 9.099422583921552 7.457279998077791 1.7292965775149824 0.8602867468908862 -0.7141051339940798 0.20331281069215956
Ni 8.957126440628434 7.084575281495504 6.537556191981941 -0.7133484583337133 0.6561774084393602 -1.8411595175976614
Ni 0.1010842081238251 6.026970537989588 4.380815290359205 -0.05196070933800729 0.6879256473852347 0.006739118496046459
Ni 1.397348309698092 4.8630795482520295 2.872234279874944 0.5093627899442453 -0.6841147582795766 -0.886827473493892
Ni 4.103594763688522 6.583403317449793 7.7852073889224185 -0.2185890201249397 0.6394310422189567 -0.06403075312866392
Ni 7.670902208706364 3.1455489421723435 8.32320346620651 -0.366500214118343 2.3925922401287636 3.0007558396930065
Ni 5.886107488191693 3.9109851723338442 3.6812192091215135 -0.25005135239927906 -0.41845295303655033 1.5515450581937797
Ni 3.282103583500526 0.26682192724547876 4.498661215586703 0.6529694430250238 0.6733798883605758 -0.5863781282580353
Ni 2.0992628988834685 1.886160983345518 6.2252184850894805 0.15099009002904318 -0.4499481954313541 1.3550693250281114
Ni 4.1775862023654105 8.340165998959193 2.5629170229033056 -1.5986011311413177 -1.4407112286686479 -1.6691524589973188
Ni 6.770353558695949 1.2823630946706113 7.6210159502981565 0.044107531842175654 -2.9414996251348504 1.3471593261524153
Ni 5.116572793193537 7.049313879125801 0.5146658628609158 0.3307819347811271 -0.5131726506086388 1.6279165922759835
Ni 6.19082697959936 7.253999793373339 6.824696098915415 0.8420031180903499 0.763556189536356 0.7030889853892344
Ni 1.6479936236172472 7.99528337774912 8.18147051952903 0.2786651594812298 -1.9827511971309402 -0.3553701656434525
Ni 7.815626395755718 2.6635366166391887 13.04041691660503 -0.8423787562622137 0.10571476313101147 2.891492439978788
Ni 2.535315824745006 8.897867568201793 11.360270881984148 -0.19195856202160488 0.7632689973132403 -0.6556685871237418
Ni 0.378653423785066 1.4674786111235216 4.378770621932901 -0.8536003360096461 -0.315249900583799 0.8016774218881096
Ni 5.6369682916401285 6.500694654008973 11.770160267174631 0.15110938921572684 -3.6467776477556035 0.5499579377577882
Ni 2.131922825800062 5.682170068635928 8.629515790830204 -1.175944167325749 -0.7705585889961181 0.3747434279637417
Ni 7.995438553477901 7.151309972855821 11.161731752193187 1.0581930418554937 -1.486053661359189 0.6137246385917882
P 1.9447626409208474 1.8451945909470633 10.658778005661697 -0.8501553148838391 0.5422489991493048 -0.12924575637341612
Ni 8.613832088642365 4.386781340731672 1.2284550464917359 1.4614273781700766 -0.18176362376647406 0.2231190467848093
P 0.19049281185440972 8.295320213341189 4.10225112443695 -1.092102293008429 -1.4626666498938163 -0.08902264718731119
Ni 0.28854379087974846 4.394759198787877 9.876619308727921 -0.5624234172146507 0.7443251092208859 1.0037193362876455
P 4.718738736532608 2.5877195811531006 0.45235915656131426 0.8077328840535702 0.6580499428717248 0.9468825298042596
P 4.970132545143536 5.50291471794055 6.035750745843437 -0.23463553206484103 -0.2708875724183399 -0.2953467339019688
P 8.102464166417269 4.769910215094493 12.22571330535364 -0.05825708386968031 0.26397541867953894 -0.5040886860294996
Ni 3.4578720442903306 4.215430824220133 7.081483633299124 -0.3637565899349348 0.42681957983369073 -0.9431369467188984
Ni 2.242471840581186 0.8981854149409053 8.657157152118305 0.5045008338662537 1.8706752676685912 0.49628744481752585
Ni 5.335215395047411 1.0714975352239309 5.831160675428382 -0.8643097520073502 -2.804145894942319 0.7656233564780298
Ni 7.949506537758421 0.22354980607700412 2.560458856799717 1.547033286366355 -0.8553132049356947 0.9093539367311823
Ni 4.317326510125647 5.020582912965786 9.747364316241326 0.6772648252372788 1.664535786160914 0.9216574366888837
Ni 7.090928358391522 5.277928167174705 5.527213411471006 0.8019085640623093 -0.7355105962530494 0.2662127926504899
Ni 1.4041030178921332 5.681540237736753 0.20379502300464766 -0.4331028417392412 -0.16628069763952652 0.5647327820741177
Ni 6.611782219848812 7.344878002535329 4.394294584399936 1.2002094676310169 -0.8097326880924184 -0.45347112098294806
Ni 0.7166234226771034 7.968866991919991 12.609218252659158 -1.3668542334781815 0.031160998983836657 1.3747107534081227
Ni 7.601018362850177 9.004491549843136 5.631832887815848 0.8935018001902741 0.9022114121491301 -0.11142544036254359
Ni 9.058657007172108 1.8633318952464684 9.917205976990061 1.603282081556755 0.5493910095107247 -2.0429139826637654
Ni 6.210516041186587 0.8209681467021602 1.2275614168536322 -1.7415472678199617 -0.5502276464794073 -2.178374609598642
Ni 0.1671224343014321 0.6549958383905243 7.383947599849025 -1.0015616665146942 0.24056372462381795 1.1282005813928828
Ni 6.725553412998174 8.465903979192865 12.443798187382303 1.158411300648308 0.8845965272808443 2.3876348961234877
Ni 6.3118549200652945 4.372532557635863 1.1311799461103071 -1.849516631313105 -0.38585419316492253 -0.6560267417941088
Ni 4.9452587886181805 8.378147540574606 11.21006716611198 -2.85900063799867 2.2804705450301435 -1.8174943127702374
Ni 0.32747555563434944 8.724481511247994 10.22868839177741 0.6796438669924166 -1.089521162544814 -2.0679611554403805
Ni 4.074850741927663 1.5095951295117724 10.335846360485446 1.3097855134896477 -0.1614678496319155 -0.7011138639407345
Ni 0.9701860402973604 3.124034283775918 8.072481477221368 0.700929001623438 -0.8142935679902235 -1.406790921772119
Ni 3.3983758442784926 4.845316491298511 4.41617801335182 0.32449610177241534 0.6694391585452729 0.9267387078665329
Ni 8.407548777186776 2.645517976132382 6.352056387400694 0.9248391768509749 -0.017594830263627764 -2.656169137818303
Ni 5.737640827683479 1.4841736939436583 12.125996469239908 -0.32079936964711847 -0.04842364271902628 0.31094767366401926
Ni 1.2779725343444845 3.7833576994026514 5.276638383029006 0.11864535514975051 1.4217303166907709 -0.002825642374253198
Ni 1.6125222776144854 -0.007870147844462485 2.7420436690236336 0.07382485640095028 0.2471534620261937 -0.8088271455590135
Ni 2.621237538570018 4.599335577226863 11.502404547161246 1.0019213638469584 0.26928063294253624 -0.19352050719208605
P 5.637798938188315 2.9468966253792135 9.606284933221541 -0.014633690752774797 0.7922201331299517 -0.20230031026724515
Ni 6.076234267885858 3.1193607559443652 6.48121827445002 -0.8821493512919323 1.6902079941160377 -1.4795737100618003
P 3.0693120194201393 7.12887338807075 10.054090138542305 0.5670434324851653 0.11757577623465558 -0.9006119288724941
Ni 7.5447169572544395 6.3160172807902715 0.308832561018796 -0.14769033623184888 0.4500207005405024 -0.6133932233942985
P 2.3308854940507566 2.1579832202513964 3.800655229169825 -0.8629632652817847 0.7753300422428325 -1.1292315937605586
P 8.655017552657922 0.7440374971624597 0.5304107225418638 0.02740513148583022 -0.30085326554249475 1.2989763386892854
P 3.4906049950792917 9.314377480220841 6.6500312113967714 -0.0615313837455779 -0.5881647878448129 1.8691202644766454
Ni 6.964350603625618 0.38368020459919905 10.21584988221671 -0.745697049867748 0.1721826649462583 -1.2077839375441652
Ni 5.097668738234268 3.8892788262724527 11.916142290425524 0.7363703731501834 -0.49838212256302555 -0.8619265964871543
Ni 4.77735865007603 5.927941039074518 2.811287643198197 0.5350830775284849 1.1478690063560875 -0.45408510041786315
Ni 4.001279190516891 3.8906115119431695 2.298634500819424 -0.9139487551907163 -1.825474759872553 -0.20950145600137468
Ni 5.778981467427819 0.3324539581330387 3.576372445973927 0.2099341726634191 1.5482324488807786 1.1695071534511536
Ni 1.6913424198517082 0.629102486047232 0.3659573107754825 -0.06492266881531399 0.34117227687651563 0.5846845426056962
Ni 5.8930082441304705 4.894059926104159 8.052709350979324 0.4652480590132181 0.2777056237814378 -0.3898895395765608
Ni 2.446746995546653 7.038999257153819 3.779574150015584 -1.320905791772525 -0.22120408915028358 -1.1853047826050425
Ni 8.493963402150273 3.646912593883022 3.820535065623611 -0.14367041643917836 1.0051349856882497 0.7526958497830842
Ni 4.441704420736463 7.3986144446141395 4.829781575250621 -0.18720587782796794 -0.574022949126792 1.8184368791891652
Ni 4.721495387714501 8.783849919483188 8.682633355590696 -0.5112846895573065 0.46854087083187695 -0.719645861306651
Ni 6.3781971081116335 7.17343620618333 9.639096384673298 -1.1365013879490944 0.6915925547138606 -2.4989621203452703
Ni 3.1091556697809355 6.829484639345947 12.374354310357134 0.8563413890898929 0.45962017130347943 -0.04109137072367117
Ni 8.652890732375205 6.441307989805688 8.54783402559456 -0.1682434777928522 -1.3606825574498307 3.506319824716452
Ni 8.570839283785697 0.8544495921828937 11.796011630791313 -0.2630793892278308 -0.3580626248739511 2.0438593772961706
Ni 2.014984222186737 6.380095728793202 6.05819554581415 0.6591686298572003 -0.9553129199597999 0.352691847480341
Ni 1.1646668683814683 6.532076663159126 10.961523114120213 0.2866924006610805 -1.1753114188377565 -1.2195942999155318
Ni 1.4348825800952503 8.75051452174719 5.764508135924479 0.28178159362302435 -0.9720968242863581 0.40157057545891484
Ni 2.8010223123400633 3.4872824088865477 9.355562944236398 -0.647587352777504 -1.5056449532275553 0.548791685363829
Ni 2.095255713887274 3.2438208184115953 0.7591625667266841 0.6254223866446906 0.8453537797301376 0.9501254622215894
Ni 3.9716406263195245 2.6062128768302997 4.988348350105737 0.5588148739277861 1.4667978984533705 -0.33116811447595224
Ni 0.45921701097507517 2.334171568307317 2.113348291064854 0.3806335681959315 -0.6746644114999542 -0.44088222857434395
Ni 3.948355139018175 4.913703347771154 0.22392131502767634 -0.7589991662932929 0.5776978268752179 0.5090658275291168
Ni 3.5097189936716187 1.3983615159271983 2.033630867995909 0.2506519620977554 0.9645074419748743 -0.13913601890393457
Ni 0.8335328167414813 3.5735327301372153 12.260501878149762 -1.5111957078424556 -0.8549913028199017 -0.5969980698657266
P 6.287939601864771 7.737992891444475 2.2804917197295915 0.8163270534804843 -0.6301771277208567 -0.7543763228093008
Ni 4.288819815949984 2.227629738522388 7.929172127699144 0.6707578773566963 -1.0589520315087053 -0.3073982657498641
P -0.05211896330585931 4.752366229758078 7.216256492141527 -0.22611823862244929 0.5002687980627771 -0.9722315500920095
Ni 4.08994842753975 9.026663423090874 0.09294387195160098 -0.3812544896093821 0.6988947448022286 -0.4626895542574225
P 2.7407411057002693 6.975267672544637 1.3145346744407436 0.3617197620105641 0.17195023722047806 0.5925642024640891
P 7.803486176974536 8.40425357494617 8.409147087193231 -0.42985425289495655 1.0417852899214317 -0.6545876953547372
P 6.946149403437892 1.8709994018451093 4.735462116103288 1.427651310160896 1.5374153036606168 -1.0017904946960488
Ni 7.32204891443628 5.55754570245587 2.9286260525127368 0.5725556205526461 1.0965842400391823 -0.686674805697269
