# total energy = -340890.9990899176 ev
CRYSTAL
PRIMVEC
9.10600047515963 0.00000000000000 0.00000000000000

0.00000000000000 9.10600047515963 0.00000000000000

0.00000000000000 0.00000000000000 13.32755214402942

PRIMCOORD
 96 1
Ni 6.368645645797689 1.8497929288198895 11.67310944449749 0.8720269181459498 0.9579953518879696 -0.526009654472307
Ni 4.673754890415602 0.2792946924106491 5.850048904296684 -0.28534745659741184 1.1664372562765781 1.2152123687977523
Ni 2.504195650241773 1.5018890761148946 4.580159775521527 1.3110692652980775 -0.641772802978256 0.7494048377366384
Ni 3.4605351341614896 4.055712428739597 4.6457184256694 -0.10297088183728718 0.5381347198706151 0.6281181883092989
Ni 4.979042661074338 4.5789341078626755 2.6599528771206313 -0.09790915104366363 0.08020376334410058 0.20211004863330995
Ni 6.980295695166755 6.18199084883525 2.8583999446492907 0.2807084151635037 0.24569281832026724 -0.9106263756857027
Ni 5.416294590069482 4.4335294928809095 11.945218591963117 -0.28615941097574593 -0.5345063790894085 -0.19614071842375252
Ni 5.61227393147965 7.914999322047602 12.554287090208227 -0.10829177982956835 0.6825566697638374 -0.23253314100985756
Ni 1.9128246638464295 6.5386273559595525 0.3924221782425926 -0.7319110518272491 -0.907665750395482 0.037953853535953985
Ni 2.94486232940088 1.7953936822078487 0.2201648785714645 -0.8544521424869801 -0.528925028346889 0.9574577342169445
Ni 0.6431067278794935 9.062428225142693 4.4210551828819415 -0.6275654011296224 -0.6077673925670887 1.1060039906911854
Ni 8.159968945810094 2.2929000160961754 1.329652720244772 0.9458384048104614 0.8952722618271355 0.3867736196553984
Ni 7.086207586252234 0.6433097916892437 5.046397925108477 -0.9038520330763465 0.12371891301791595 -1.1395543158428052
Ni 0.7620711599917046 7.77399290527702 2.3056265623072547 -0.34368347333414356 -1.6199860245749973 -0.1443162775532934
Ni 7.734636771387292 3.9890565055390383 3.911903185034435 -0.268884168835066 -0.34623889276614567 -1.5565643657852417
Ni 7.7611625506609565 3.844334840590065 12.680099234649239 -0.1239675386936123 0.644813903797425 -0.37553764173026294
Ni 7.969480522663579 8.882885214521732 6.938270592548873 1.0067748352845178 -0.331849456813693 1.305989279672009
Ni 6.7047025919338425 0.6422835454399675 0.3671047652269485 1.2194107231498161 -0.5579067602912198 0.6956970638005373
Ni 1.9242618003955965 6.5972973167766575 9.143087355815632 0.2997574613751547 -0.3837718567145971 0.16374867524629216
Ni 0.03232356975205258 5.120504377866782 1.1535982183913172 -0.20733350181577842 -1.3035325906014001 1.9741061198614323
Ni 6.3004599145236755 2.175141218441854 6.992540533954705 0.673404313840608 -0.9779530259568189 0.8176565709251854
Ni 3.528893879443812 4.157044001605147 0.3048424872373552 0.20965212264662603 1.2690345568245307 0.4917576752679725
Ni 6.150547829325478 5.888021836719997 5.102986254225629 -1.2769761802691102 -1.424075934104812 0.12421153638361833
Ni 5.335296716180278 2.6815076907556104 9.63118172765203 0.4604588651546909 -0.04994573579050753 -1.1863445367234664
P 0.15130166086491958 5.703051649838445 12.430087618444649 0.24718251549191622 0.07017928922856301 -0.7670024962137436
P 4.284354993718128 6.1388466187636315 12.635119234889473 -2.2381820686745777 0.03762603788289004 -0.27572047503060904
P 2.2991558383965556 8.908992117775286 1.3052950796752127 1.2214295533520578 -0.9276151969342152 -0.8438730814195531
P 6.2275663810236095 7.795546808311955 6.21960864724151 0.3797799619463847 0.3946697345740235 -1.038030707975006
P 4.707665636043865 0.956266635916219 12.71187280197488 0.41391906972193876 0.32714665202138493 -1.2846043862383294
P 4.26676220087339 6.202442925817279 8.162698924741177 -1.0922763566924478 -0.7714476764692908 0.6866341822673208
P 4.642084220894899 0.9564851799267126 3.814225850144348 -0.4374366932279047 0.7255671118870924 -0.29348525521319774
P -0.011520911753189547 5.919747142243323 3.3701243876203164 1.1838343687071031 -0.080610511864216 1.069109174547365
Ni 1.223063342726763 1.2476859679090462 2.44401955695235 -0.07667312448302278 1.4540143735354571 -0.232036146768781
Ni 1.9473364055035496 6.015715280851341 4.648757098015305 -0.5668323449156237 1.5837393835381368 0.35255609323342507
Ni 6.46128098824568 5.85794471727581 9.244003695061243 -1.7245119096042298 0.8453015863359636 -0.45968701998567285
Ni 8.954895465979387 2.1436253509285845 10.109174813203408 -0.36431477643124993 0.26422481568618367 0.27972625375589244
Ni 2.7108654361652555 5.22411245084164 6.736877733878768 -0.7294769884644599 -0.85747524558402 1.5632574615347012
Ni 0.7979906893164213 9.16254869995009 8.82013394430866 -0.7402013168604994 -0.30141119492849383 1.0935835055396457
Ni 1.512452036622087 1.0271932733218414 11.627169672291641 -0.24003999090986405 0.7650335454128309 -0.18024667290131538
Ni 4.19395062137726 6.891539508905027 1.5411177259985025 -0.40709227660809244 0.4470541617130107 0.5260960435385262
Ni 5.3780949182352815 8.136347980675907 8.25795133171483 0.6247107052896467 -0.6379560003353272 0.03602809726815085
Ni 5.4636731103444145 2.8963728770726043 4.8774306233953215 -0.2336860236673782 -0.31801897868850393 -0.3332499367056454
Ni 0.7858751557346803 7.209193228157528 6.8566653484305045 -0.029651761428161835 0.3756129750528886 0.10546613745531513
Ni 5.1414572848728595 4.43267352883981 7.16777094276859 0.39012119597139266 0.23926788863052986 -0.0957000592074868
Ni 8.52661294741492 7.23737629951077 9.574846545347034 0.2914358288833368 -0.0316173697949649 -0.3801427446024421
Ni 4.8105907589859305 0.2362606449443208 10.464207753650715 0.20871084177927923 0.4560867042289242 0.28097760966449026
Ni 7.986727287491701 7.354880129152848 4.861557954033178 1.1398569346848886 0.18148105952904875 -0.2623088296103934
Ni 7.5904887844658635 6.257306578451619 7.146766131560021 -0.9077991906495527 -0.40437796300072293 -0.19366140364532453
Ni 2.337728856248683 5.321246157505624 2.4644506901333743 0.04107183033964539 -0.051126386362170005 -0.3692224981455125
Ni 2.4718329246878405 5.204853259916889 11.37563917521412 -0.0150851764678966 0.23993200457709002 0.25553268722882444
Ni 1.0938309845215262 3.427908334594877 3.933440697268583 -0.4287661620371003 0.2859825190782494 -1.4162024448940063
Ni 3.4868150514233496 2.6339197324706207 2.736586245000269 0.5655089981185099 -0.3205008645700932 -1.177833928149294
Ni 1.1620076097951035 3.247299921922761 8.17906513932702 -0.14203879437302636 0.6547059661001563 -0.10893121318578014
Ni 3.50989876253174 2.517563258883634 7.10375849149496 0.3043481660696307 0.36697406843096797 -0.373798290441653
Ni 4.064900383180768 7.110329381410469 6.011725942059789 0.29097842963094406 -0.9945335560233194 -0.08987573921622585
Ni 0.908278924212035 7.632959170505127 11.682078854928166 0.16115854592161277 -0.8900660350358477 -0.5693147450178453
P 0.21138669414997005 5.405595039555731 8.027637815656066 1.323880558130133 0.20485650103019556 1.224847577894671
P 8.606964295273078 1.724640058810534 7.851714440208907 -0.5666181720222886 -0.5677083197626739 1.1480762372708873
P 1.782454055586538 3.1458044410493415 10.663801266634422 0.5940299883763382 0.6774188343166397 -0.8206462496811285
P 4.015709768818825 6.144974957057889 3.8825955226271947 0.02015307790910723 -0.1885438799131011 -0.24591727562624743
P 6.80027917252306 4.087829292281725 10.399329321735502 1.2305852517093967 -0.30318628455104557 1.0794547794477474
P 6.5169186509171855 7.818229855401108 10.280966796252194 -0.1601198202444533 0.7971633360678401 0.15881884204484262
P 2.2855878977450756 8.316746955337967 5.788795571155536 -0.23999525371485766 0.6399738020963043 -0.561880400226987
P 6.943935435420877 4.24588214187081 1.759862979101802 0.8769693497528896 -0.6218477819195548 -0.29814460836208007
Ni 5.597722542780949 2.882996162430306 0.8980774719222008 -0.7891983155844925 -0.5554269312921596 -1.0309241788372114
Ni 1.3274636377396607 1.0110756525479356 6.690217677038333 0.14701567876232746 0.18132525067747482 0.18260566005179518
Ni 7.182849568892607 0.6644530141044594 9.21613569132313 -0.7279705791222624 -0.13046085972743982 -0.046057713590011
Ni 2.998214385962639 1.6436239729204551 9.599209649516856 -0.9611475243637062 -0.6531211381115397 -1.1239744591266772
Ni 6.455626161974157 1.756866194357908 2.8927714538996776 -0.7305044012877097 0.41590756090687725 -0.16160000433440555
Ni 4.21328266030551 7.024632811295652 10.483705521786923 -0.3281154436925575 -0.8921902804677021 -0.5137503774889797
Ni 8.217609928577792 7.215922562480645 0.5157092287623591 -1.183026528093827 0.17102386875146675 -0.26760453079169394
Ni 7.487782205534291 3.8849567085405696 8.384442783788458 1.2925264692988836 -0.6284897127161047 -0.7804241689362882
Ni 3.085176690138232 8.117088789751156 12.646327810827666 1.2541522403960594 1.7045817463392063 -0.6470818738959951
Ni 0.09079410915958136 4.7432063557503925 10.326293734628619 -0.29528091366103987 0.1701268108584941 -0.023494997798146636
Ni 8.663166529971694 2.4987866859820556 5.797684848782365 0.17674380195437947 0.14085968646326066 0.0179108188421498
Ni 3.857611389227553 2.8621161034277267 11.467799184439288 -0.8301138228519317 -0.7674406121924267 0.683761488705216
Ni 1.24224057964758 3.520616525046366 12.82892861639545 -1.069554746725216 -0.012589406629236383 -0.838750415481007
Ni 2.9437878213492863 8.614759031647353 7.984736715796122 0.6550522936959815 -0.08979294969443245 -0.25479555195248377
Ni 5.399676139271528 7.932537478889717 3.884675333127059 0.045621140273224656 0.4549171094008553 -0.5622282704847091
Ni 2.704873687877555 8.142139396953988 3.4850612357391384 1.8375244919482354 0.22583747415723687 0.3854824116478006
Ni 3.4859590873822497 4.213656006323436 9.151883752238 -0.2964731341969281 0.573326951501032 0.1272302686052841
Ni 7.076436847783081 6.196032301509466 11.653358529549127 1.6958019432640474 -0.3783825673782258 -0.6654007268098411
Ni 0.33279881917970994 9.144154579066875 0.23012320064962455 0.5003276763251705 1.0732928736114098 0.5597412423967973
Ni 4.574927467670292 0.3911737455826477 1.4743334081917783 -0.5654287796998778 -0.6044223873542559 1.4759533397003934
Ni 6.066371961283679 5.792454362131216 0.4303076930617083 0.994606318242784 -0.14317007976399213 1.7297207074986791
Ni 8.083205362124204 8.946272083565324 11.521601988022688 -0.8137880891087146 0.3165765898150225 -0.2887796222074124
Ni 9.163823540011304 5.0023084921914736 5.637527602492234 -0.15518690171921015 -0.04392395507645984 0.9165049459536667
Ni 7.918669040223808 8.87193069599574 2.718553632334413 -0.8919475683292767 -0.20079055849093808 -0.4428732908624437
P 8.515039220859194 1.667108348048084 3.6833753556614144 -0.0006193787515537721 0.7994392765862104 -0.09943510076988682
P 1.775160149236313 3.4522213557622945 1.572011653681909 -0.03044803207721208 -0.8030861293101782 0.38837310293203436
P 4.6904188712157415 1.1093293972656997 8.198603884465195 0.4621658205434686 -0.1459702682169486 0.24653176928179474
P 8.566797727344436 1.8306430099003848 12.496872846851417 -0.19108695804992895 -1.129204340067049 -0.22475632527791617
P 6.2248345808924395 7.906612695644909 1.65612195852056 0.2185432544886688 -0.044737452116690696 -0.8213828707368371
P 1.7812338515279487 3.1411694868267888 5.956855915225142 0.16806041524776863 0.6473343562264335 0.1652651118908186
P 7.082820154089583 4.044912712221038 5.980139047743108 -1.2044304476909 0.7779746789545312 0.843600801594773
P 2.435035576920974 8.603677029115238 10.360865575888624 0.3875171826896423 -0.583256294799602 -0.7065897994536412
