# total energy = -340864.5963268821 ev
CRYSTAL
PRIMVEC
9.34664842845405 0.00000000000000 0.00000000000000
0.00000000000000 9.34664842845405 0.00000000000000
0.00000000000000 0.00000000000000 13.67976474874685
PRIMCOORD
 96 1
Ni 1.6650026234348851 5.861273949855972 6.298082091835722 -1.0896597450052072 0.4856986135580861 -0.3242999266012092
Ni 8.455454944133471 5.291623761573306 4.927711066185437 0.6155601491386302 0.563579385195965 0.8414780988248153
Ni 7.339848321605195 8.020190868491758 12.05477265257049 0.09937853650033852 0.7405674419506666 -0.2263442385903263
Ni 1.3933142438099562 8.139136317752348 10.472872015928063 -0.32790589878491266 -1.089041394694918 -2.3911069138324885
Ni 5.232823995637554 6.909061290611905 11.856744275387632 1.005157611396069 -0.6277420359168028 -0.12565263970551907
Ni 9.639852899881763 2.500555615899113 8.689153870786557 -1.6851840585388846 1.8005399443040861 0.40978884960364914
Ni 1.623512850586562 5.186100099609447 2.7200710033998377 -0.3474714796216661 3.000909077441419 -1.3872291975901077
Ni 3.146829628874402 5.868106349935298 4.250823040597532 1.452518505716221 1.248380885129921 1.3021778763457188
Ni 6.235224011105931 3.407012284152342 11.079665785490125 -1.3275870604474427 1.2705376237326182 -0.5350100581987044
Ni 4.15566948518362 3.699973635843679 0.7585786684515294 0.7624467585222611 0.4335407006076082 1.521649813296244
Ni 9.643404626325188 0.323126725174256 0.5774546398096659 -3.169388325394161 -1.8592343728215013 -1.5831022641747703
Ni 3.9707180039665397 0.6240355321151826 2.2854238065614565 -0.6789321856373727 -0.09772608849858008 -0.5260430788134037
Ni 1.2107648512664548 1.3907439154627408 2.1992822896653084 -0.3732879264641377 2.40440723048582 -0.2380288740171062
Ni 5.447198726443849 5.81369950881115 1.4507802429997165 -0.15012131427084469 -1.164159515985995 -0.3164120392127002
Ni 9.145975991275005 3.2474649936542845 6.057755456706235 -0.38698959232094643 -0.6402265415370586 -0.024873109092595873
Ni 9.101186851493711 6.57732069414749 9.77659997594274 -0.24935406922193828 -0.6609339492877392 0.5780505822289463
Ni 7.109500168452024 5.789837515100457 2.991778076321838 0.6790494279415273 0.23531636018194957 0.06188645309215148
Ni 4.5593979686671355 7.735763006913176 0.6561580938013997 -0.12659674878634325 1.0033755797949817 -0.9799032077046544
Ni 4.702990530115387 4.024031287212054 5.519032393762116 -0.4822003705968405 0.17014275169809406 -0.18577840135282198
Ni 0.4248808837838169 8.228789370503218 8.11155342325974 0.296040931755516 0.5738745964743859 -1.0975414617461292
Ni 1.7044454802539715 8.630153151907296 2.493219431463733 -0.3586971731341564 -0.9675847953486174 -0.6103204980062457
Ni 4.591737372599372 5.455283577426909 9.9526169958249 0.5742749172365981 0.08575503217963296 -0.713025527776656
Ni 8.766595527226022 2.755625654428228 0.5237095414018199 1.0170553912749194 -0.19506779707454794 -1.259112155504496
Ni 7.110219860389244 3.3998340580772095 1.7144987354185708 -3.448296454124132 0.6405924095169097 0.5076707469538031
P 7.125697910363748 3.994916477024505 6.552238028138082 0.8978860453008989 0.8311106395475623 -0.3831681616923272
P 7.232343170151847 6.039056551646456 10.942266313361383 -0.9920336724196012 -0.12218319309967988 -1.1877720131986125
P 3.9342380347331525 2.289283972406547 7.061850019554066 0.12545106521767427 0.6763662246824094 -1.6714798215789146
P 3.4118071148509657 5.8531610589273075 0.3936256910816784 -0.220571083551975 0.4332946460350731 1.5747700901599913
P 1.048647232421182 9.056715497762617 12.188506369143678 -1.090357285292864 2.18492500912265 1.4448391347940923
P 4.876847539521033 2.4475788120008706 2.9472235374187803 0.21734512041550955 1.335541539407829 0.8901238848569767
P 3.9372476555615283 3.415452307779744 10.466305995331995 0.4583011953817397 1.4841664716388052 0.14487137872581501
P 1.3213637433849972 4.551929996487408 4.547153859085855 -1.422840519035814 -1.3021274827237574 2.641183463042748
Ni 2.193770571024025 3.3814211604626125 6.201734969403849 -0.5527858941248867 1.99950244844735 -1.0384081459190824
Ni 3.0422219384670055 0.6400612956938568 11.05951534591281 0.39720818472516106 -0.011041345415826145 0.10175243604915378
Ni 3.718629546320195 7.810096902714643 9.24250070002905 1.3037580763486452 0.25305671488450615 0.48675662250895524
Ni 5.342282596634786 8.650369952689212 5.198324581228803 -0.05164703475233041 0.5398599300918379 0.39635509269624647
Ni 7.939445171795054 0.48199357965894174 5.106601245827356 -1.463271630467667 0.21650102724765943 0.0994016764287901
Ni 2.69879803133343 2.791002719134446 3.05870007983479 0.5402162849899922 2.4150066032682216 -1.17412639739072
Ni 0.6631652762083354 1.1683123736189929 10.506524623979514 0.48943339801017 -1.30369662698309 0.5025565656556893
Ni 3.6862247158482107 2.644279030426859 12.479707746915812 1.0037291064796585 -0.7471029290763391 -0.7969301370111114
Ni 2.652532121083554 9.229394829452811 0.005096727446314636 1.7145612261494216 0.5664623631707147 0.09875427265277832
Ni 6.855953633634167 3.556876446767799 4.263052195541156 -0.07354229216352495 -0.05807633531744192 -0.24120495775224263
Ni 2.4435130198880026 3.0124061296393077 8.484928665624775 1.080119666725256 -0.3997250376097438 1.5832822413960603
Ni 6.062965278599826 6.309268160802803 5.524805818562388 -0.41423660096235754 -0.9913477020961702 0.7229217038444453
Ni 5.532271921412408 8.14745483494879 2.8249805905549255 0.0690747433104746 -0.5305610212884153 -0.8041086570374215
Ni 7.394853348235603 4.1896912858522155 9.11730327756318 0.7893322700591955 -0.06610769026235067 -0.2497525902119376
Ni 2.030138795116029 6.482059652275422 8.772504478430056 -0.6551991036864909 -1.053930667034714 -0.47628194822987646
Ni 5.6420109218657 1.847168803388438 5.401414168593542 0.13225523262370126 -0.6848174407735561 0.09457263047126294
Ni 5.61169974066563 0.8699776336846958 10.994262653828269 -0.15160021280921632 0.07094599219125847 1.810351016857237
Ni 6.5282788292826215 1.087370397303048 2.915759914454304 0.049750074839933676 -0.15684706303045245 -0.520737093219458
Ni 8.248482758967157 9.129983875631059 9.861591855069044 -0.6502371316955253 -0.3541031260055708 0.41414532680013194
Ni 7.760662478611291 1.094165410788232 12.153855539028653 0.5098487284417285 -0.2927470914955926 0.8653443639194516
Ni 5.3964464248970145 3.773242013712119 7.805946990764958 1.8172037781130124 0.041281632357606325 0.36749985902745097
Ni -0.017793214816704882 7.708134313842744 4.616496644569457 0.3632043169758907 -0.5941852830072799 0.2437860882158576
Ni 1.3091289804522521 1.8963976012240131 13.047883034059604 -0.2581945503317037 0.8833747390586013 -2.4070981470544224
Ni 1.163592316108652 7.537707524449564 13.644060880215239 -0.9811507069585103 -3.2235707249738352 0.7391736469269334
P 4.629563259221846 8.91903936483723 12.449584433351301 -0.16146759252159934 -0.030168038942948047 -0.17399529267496486
P 8.590364469092403 1.7113339602245088 3.1369072267892975 -0.07677159773410004 1.020652107487242 0.5965758947266435
P 2.277366995524003 0.1771722656411266 8.973282639612009 -0.818707895007835 0.21490077264007507 -0.5706234365269399
P 1.6058570315033263 8.488476653408787 5.970424111451539 -1.1207176427522765 0.37660362110093204 0.4942099934632069
P 6.224933351068534 0.5000400886509541 6.993588641306001 1.2340960930761327 -1.413432852568669 -0.8274180211873233
P 5.154994453283874 6.474582333447159 7.873662524738559 -1.6466074838172675 0.2459113620889765 -0.62314978856043
P 6.774927537481405 4.8316564938527184 -0.16018847058758118 -0.4036176877959307 -0.9467156652090922 1.4083670080099873
P 7.16585111247152 7.66960742858012 4.160043716698154 0.578221817699488 0.6218956044383548 1.1944625378449105
Ni 8.418965628251549 6.065974899428203 12.702318744411437 0.4331576062365766 -0.15940222535213838 -1.0023234843813835
Ni 7.650633732053404 7.9107322674945255 6.657831789965956 -0.1505020946490311 0.6131834213763375 0.10226228580603679
Ni 5.932355211967146 8.994971537538238 9.051243969710036 0.8931942962521844 -0.47444000992513125 -0.6648703082276679
Ni 1.1811546687065344 5.7116901866965755 11.457200286453382 0.8809815562360763 0.23588277420838083 -0.623605645150926
Ni 8.939358978753035 3.899786288231932 2.892408247753639 1.3144757198764652 -1.1251342837627334 1.3993146679997321
Ni 8.294337416681477 0.9848657028161003 7.711830913338466 -1.1142150657470682 -0.6289291142463684 -0.41291325416524377
Ni 3.509844111338026 4.828684259618485 7.536346652422821 -0.5946246845375437 2.6212234749810537 0.18672482442649133
Ni 2.980094765652677 7.418070423197359 11.95786566589135 0.16899783946037347 0.12296120891628501 0.31551112466498565
Ni 8.683737487960334 5.7873699998871295 7.481681843799099 0.6567191398754432 -1.04354932380039 -0.5200912321053429
Ni 1.9194931697548099 3.115901568871 10.914975034303078 -1.466078760899159 1.1619367973030634 0.0014997244739780623
Ni 3.2215280439687475 1.874517097002809 4.910077679058686 1.0396052515509773 -2.4176167871975585 1.0023512522955254
Ni 8.663100087994328 2.979580699983234 11.059816307995648 0.3978892699525857 1.0762928367799982 0.2094551761444715
Ni 8.511226395943776 8.8392657195882 2.5098947871156128 -0.5656563223296516 1.2517683135449151 1.3181912210548394
Ni 1.6965288689445484 3.965025895008525 1.0167415129809847 0.0030804386975366305 -1.7717682714880323 -2.559516741999876
Ni 7.413537298657725 7.542343462123088 0.9830580609893678 -0.6630219421650194 -0.39773423243196016 -0.8844090938603865
Ni 3.4155364276165616 7.490871468639034 6.469215487858173 0.9770554538432141 -0.47303824448159826 0.40955642187786884
Ni 4.143453415547946 9.59704524958996 7.6840881911559045 -1.0993492043788293 -0.6475135621167752 -1.635883155421228
Ni 8.920609601791165 5.3204394790077245 1.0555702949913 0.11057903320184827 -0.10015423832409848 0.5731446602868968
Ni 6.110642532778537 2.684600472208266 13.179933419231578 0.6735290123439304 -0.5941225480901446 1.4461336852357998
Ni 4.608795006176346 1.9876208909288196 9.137152755057656 0.9913081071074862 -0.8315235587152647 0.8294473929125262
Ni 6.999424688651461 6.692321857726172 8.841696782872239 -0.7168968378066041 0.5670655439723524 0.26457268594390565
Ni 3.5908328208966482 5.14337656915446 12.190571978469986 -0.24274581987680127 -1.4823232477824795 -1.6997611850221115
Ni 1.3671155879654304 1.4158116268344918 6.908773413837016 -0.06753182430338692 -2.9425080117947067 0.005265876384629642
Ni 0.7774196425690446 0.7221323471528694 4.374419382169302 1.4588117949241004 0.09093811904246919 1.402566085057494
P 2.8882639437930746 1.8801998593122888 0.6969403253555986 1.1395936537211728 1.0674284444108328 1.8716913676379314
P 6.9206230948501055 0.5518214562015276 0.6397865042269182 0.9098177637414782 -0.1647722314148001 -0.4607866808077548
P 7.050494776248494 1.9428878310387372 9.72572429863524 1.4227345895855692 -0.599456044487916 -0.8208377968666443
P 0.33317904567400186 7.090937724460862 2.043893323100618 -0.6349370110033452 -1.0516902077399695 -0.4104460235716737
P 0.7560158174231423 4.081083229871699 12.671046727741935 -0.8458366329038272 -0.728437491456352 0.7419982608599222
P 3.3947775212195967 8.304366370559885 3.505042737985428 2.68987501471118 -1.5919409455123228 1.984176873833873
P 5.171977313672566 5.159854710522245 3.7849038270896487 0.17206619397305203 0.5214369474999601 -0.9766430488961437
P 1.0187005705139895 4.610290469941998 8.994869659069204 -1.037323397495336 0.4115647105571492 0.1395024011044178
