# total energy = -340890.1068029259 ev
CRYSTAL
PRIMVEC
9.06755107768120 0.00000000000000 0.00000000000000
0.00000000000000 9.06755107768120 0.00000000000000
0.00000000000000 0.00000000000000 13.27127756429296
PRIMCOORD
 96 1
Ni 6.338335992529073 1.9876797087469231 11.251495079257296 1.0294985021342786 0.6484036780312123 1.1774739737067141
Ni 4.526222205284823 0.05838596056996751 5.875168210245214 0.4803280932747921 0.8510284615174118 1.0143117670915112
Ni 2.6866337386606998 1.550387996610372 4.99314576717236 0.3830910285974886 -0.7993693425802233 -0.580899107421335
Ni 3.44751007401512 4.312309610812683 4.517131078701898 -0.23870815947231797 0.012704077830229733 1.2214511506186128
Ni 5.052629808162426 4.773276698480868 2.513619425995484 0.016976737063654632 0.2878185438457237 -0.2956606655979618
Ni 7.156909154581227 6.118928462180959 2.3393945952783834 0.41270036682348926 0.4670637720657182 0.8792393767339889
Ni 4.693337169301673 4.583320573619826 11.416377612230143 1.6527971575677471 -0.652633914062476 -0.4775147921957131
Ni 5.754467319278447 7.922201387248517 12.310237743068816 -0.5494617148476602 0.1140821612591003 0.35403781998527417
Ni 1.5752602888674647 6.442086910504156 0.5685907566542071 1.7875617868768634 -0.02334767358700495 -1.2156569125343388
Ni 2.9975872634045877 1.5634724726318758 0.3699343166562054 -0.3970672882719226 -0.21224225197130545 0.1196884517022842
Ni 0.381653219504571 -0.15224236694791746 4.6829430356471695 1.4125936444968252 1.9162544989602868 0.011274544472554774
Ni 8.572925113656835 2.338784349099418 1.6781797124203925 0.21420786033810849 1.0158845108952697 -0.8039227662788606
Ni 7.046620532370865 0.9572794889412347 5.104186089356514 -1.5594054347784627 0.17766168578295854 -2.7816173748225
Ni 0.7253496707305452 7.5563801117034375 2.361969170124631 -0.727523978503147 0.2954164107976396 1.6475963300930978
Ni 7.666469247792889 3.8239131815193783 3.686588749395147 1.084301051796455 0.8633504734178744 -2.1527260557926025
Ni 7.845897946000455 3.8996635021594637 12.544568648771184 0.3352677384666226 -0.6401396382502073 0.40502510966641864
Ni 7.918746650336395 9.00694343990027 6.837880068960865 0.20359511781926873 -0.6504093956073315 1.4686588629215094
Ni 7.059995170022783 0.917581750880151 0.30056301810976394 -1.4075565962935501 -0.2798306405442406 -0.25225247381565585
Ni 1.9528512455462328 6.273956380780856 9.285049761326142 -0.5875335820187172 0.07641627127721033 -1.258932435393522
Ni -0.06987726788947672 4.7835774363605825 1.316790655779894 0.14361976570690105 0.13375161466356966 0.46176704244315314
Ni 6.466315406643767 1.8731202700388987 7.283993601417112 0.3866190963554051 0.25275101071862915 -1.4011998008375868
Ni 3.4362028379799052 4.409441216593937 0.5323949067701884 0.2199090244879438 0.992119290154872 -0.8412533844085189
Ni 5.961216548499729 5.697985544408074 4.591742514942607 0.10844707446051 -0.3264082311934637 0.22537698958105057
Ni 5.451402563861453 2.74307924332727 9.164241873258163 -0.8526102041822348 0.30906742592217096 1.2702722858863735
P 0.19022271085898532 5.7199471528100725 12.356581089221486 0.38790644770826094 -0.7001309312021748 0.3770903309293635
P 4.102241657943536 6.236126558215566 12.50953253865373 -0.19649167400526807 0.3842457110272221 1.2336818883568497
P 2.3829342546771737 8.59644634082231 1.4291838565658554 0.8687752439778715 0.31755618011947245 -0.4013456039323023
P 6.510909622218096 7.413375765663842 5.861989431693825 -0.4394835484546044 1.1458591750149105 -0.3106139444736844
P 4.857015531508302 0.9905936711331993 12.470648159912901 -0.14466183381817022 -0.435857778776559 1.591729343722149
P 4.095450062281647 5.867131639837828 8.068843634729435 -0.6836725285358355 0.9839429249916667 -0.34147309594638614
P 4.881062676628904 1.0542750814582316 3.841848797299375 -0.7480997457719696 0.8338038701090092 1.038784812532211
P 0.18410846125309477 5.616178099733087 3.42709538980527 -0.3487655158427413 -0.745623002096703 -0.6321275665790081
Ni 1.62519529195161 1.2193498465112302 2.696776701153876 0.24187935811144798 0.338843628743339 -0.08263551271404476
Ni 1.7011360311616548 6.324444504472979 4.76071269988392 1.3648680562860882 1.4036228084567826 0.36294823510102653
Ni 5.8528683821927645 5.456843094431725 9.324943358487758 0.2954140968047944 0.17171729527406554 -0.02143400150405986
Ni 8.642826863933877 2.404641971652558 10.252619107085952 0.7489140141431488 -0.8973548553877773 1.0065066692247955
Ni 2.1312009051906946 5.290816236528929 7.052304073306609 1.1390231259296835 -0.13214184697428855 -0.765640068648578
Ni 0.22444274139090029 -0.0656962201462228 9.330742964075666 1.5126491524595305 1.5523361866365073 1.2679336104508678
Ni 1.5518841425171968 0.9403866415205405 11.62721812044027 -0.05081348310744152 0.6756239471997462 -0.20300993473976003
Ni 4.109813062987165 7.1847102657953155 1.6156453472905927 0.06205383190795119 -0.5159036763865567 -0.42558673586785406
Ni 5.7195663156701535 7.579466096423292 7.898705549225704 -0.6966851387454196 0.8845620744984831 0.4041154533679557
Ni 5.2570305416875405 2.955232732915021 5.068845309527123 -0.18460083610495304 -1.1625865150719203 -0.06223535179113797
Ni 0.5202897262513335 7.40493387572897 6.813433951598443 0.6225592061642827 -1.0250561500922089 0.2737762068200446
Ni 5.378327170751752 4.137342147672741 7.272128710998444 0.16269092340573915 0.8596051474428293 -1.1587895099233334
Ni 8.146759286536488 7.321213177803437 8.798844052342467 -1.6294975636098583 -1.732495956250971 0.36710725157472257
Ni 4.749483444786878 0.4154516089172899 10.337276483024668 -0.5126054652512592 -1.516399620640898 -0.35889334830536257
Ni 8.300835112286588 7.097435087897205 4.633268271275302 -1.860581116657383 -1.0895882683373235 0.15950326970637693
Ni 7.262002070096978 5.77432525585994 7.19800873601925 -0.32001261207976495 -0.21244254090756962 -1.4707481413503702
Ni 2.4424445915649975 5.302078134809392 2.6584626713678317 -1.7309378677352318 0.44247888363750243 -1.269835455459271
Ni 2.431753948994413 5.350254033009149 11.314719485014423 -1.3563733885515157 0.27859471125461055 1.842548170415072
Ni 0.9786426389805022 3.336305629158763 3.9147482799206377 0.7708390963510143 0.49703923538188594 -0.9508379149075818
Ni 3.8431907948400417 2.721344323699034 2.614521319461936 -1.4019991568104306 -0.5778634059188047 0.10267649052531994
Ni 0.8452118132343948 3.5118987533142874 8.026256068180443 2.184487150254283 -1.6065640947421365 -0.09842362878623694
Ni 3.6758854122532316 2.485642404292956 7.1416992446169365 -0.4598862804806725 -0.07112159853717429 0.24883599193493916
Ni 4.170638194762804 6.744598545313173 5.9946223129562926 -0.6300542289897472 -0.25901601779173455 0.059028157707749954
Ni 0.758785358105246 7.742555067818142 11.804933958273296 1.0849057752599895 -0.6889219498602329 -0.5015924019702072
P 0.15968138574766919 5.518720062117617 8.16600244316354 -0.04247359578317846 0.6092429486713508 -0.4041334510900846
P 8.712628871150464 1.6477644262672877 8.175199660092584 -1.2269126879538161 0.4886805790045455 -0.4760898868237285
P 2.0015893319049183 3.3978743001123397 10.50924621382039 -2.2476740673254128 -1.2860303200515788 0.39527600069945473
P 3.870792419933221 6.379185309560864 3.7774437964084964 1.281336257010019 0.15997840957058254 0.30804618374650816
P 6.861678763185424 4.043239103908938 10.677777529295703 -0.6779137716751873 -0.5430103027953616 -1.7699201625357002
P 6.307596994807037 7.597374509550437 10.098951321128624 0.3193616087593274 0.6433751144683695 0.07979675771366902
P 2.204530189727009 8.45677885353248 5.8770660486591435 1.0525924078392646 -0.1763205983740318 0.09648501700262738
P 6.824148169801498 3.941709735916715 1.3293709759685528 0.8376427842391252 0.893341620463326 0.7034641093404659
Ni 5.2839430329084855 3.0426983293830916 0.16313158888431656 0.2061065713872128 -1.0208644806083644 -0.27111228683463634
Ni 1.5260960276141082 0.8410960518579841 7.43174299686908 -0.5705990110469077 0.26810923834225436 -2.374026304201118
Ni 7.012363324880053 0.6789355976804611 9.326655312107201 -0.6542804485269635 -0.6721861251627907 -0.6116394739279853
Ni 2.385500371596152 1.4476617118926887 9.415798405501107 0.8332575106872361 0.5949435013295432 0.46209100144147514
Ni 6.139566208144191 2.3760066457510276 2.6691859571218375 1.1539087847922644 -0.5383239530632858 -0.39222821501206645
Ni 4.120476502904897 6.958239113256799 10.30461607125623 0.11258809321207708 0.3740160628794139 -0.3608409589500366
Ni 8.148618134481332 7.338405254405496 0.3339823838927539 0.5010709822490983 -0.19254528776301033 -0.4051708912156635
Ni 7.690425717403986 3.8288277941345243 8.511334680580976 -1.3958385365256736 -0.3739186180696012 0.08598283191972288
Ni 3.3396787581123317 8.247962222694495 12.326256478577886 -1.1010895841087036 0.5943323501081055 0.5792098926443703
Ni 0.06378206014058214 4.716441289123427 10.299851979986862 1.153212272945872 0.5747821958903198 0.5752097703460416
Ni 8.738906633804877 2.3096503078956117 6.030335769129747 0.6295832028905997 0.6716060842896046 -0.32956323188267755
Ni 3.7602317711943463 2.43108295022408 11.299842354170018 -0.34892620979032163 0.2633781514151722 0.09788652533584431
Ni 1.2323073768194277 3.32963191165923 12.952607534786479 -0.030576587235276377 -0.05524966450192421 -1.2349229598528022
Ni 3.2192707490412653 8.38874501875123 8.225683250009231 0.5614412558070395 -0.8678617310246666 -0.7456808519178318
Ni 5.759935052501571 8.184852068079342 3.771736679840281 0.5015630913941684 -1.3711436048821548 -0.46377713089464645
Ni 3.213222692557313 8.582436974603858 3.8009205925743146 -0.6035620962364895 -1.0804127724856425 -0.8609413497557495
Ni 3.3960698574731993 4.1740929316749265 9.202755389165116 1.044877298583194 -0.40014952674167215 -0.7851092331167834
Ni 7.373378798421394 6.0871829663034225 11.301315831199464 -0.235803070010381 0.5554626696261015 0.17544359508571722
Ni 0.5025980275919045 0.32466638204625836 0.5986551285855295 0.26367639938188137 -0.5876870768774459 -0.21431507533993416
Ni 4.847730359335038 0.5632517826545803 1.6516770745024083 -0.01041708156826593 -0.8753055888972215 -0.43083410030972247
Ni 6.123389697248582 5.703779709465414 0.16921500881697557 -0.9650237194896607 0.0591572270864465 0.10283589892131967
Ni 7.810616105252241 -0.3525899051981787 11.434001304257446 0.007066162818162023 1.0634352640910396 -0.27174040733693844
Ni 0.056057413485891154 4.853905361532297 5.805718930760598 -0.3502336157478355 -0.4657933899937269 -0.2853268877721215
Ni 7.834953412003258 0.09219160402344675 2.4854982302328437 -0.24054572690168896 -0.9317328186470147 0.36140480187330665
P 8.64168435251412 1.6577659349656375 3.685393646179877 -0.0798288965031851 -0.13234933499940432 1.2222271095526887
P 1.9280786963495948 3.447065764018548 1.7016166113620288 -0.5746477271949845 -1.7059238621893975 0.40771936866913006
P 4.764191012428514 0.8579227061567398 8.213394904961177 0.03530973104488758 0.17513223449288548 -0.9214993138444645
P 8.71213922339914 1.7178021898085876 12.45421775759068 -0.2027692794838637 0.02111312782953138 -0.6001571843199986
P 6.329613008514737 7.942820998109847 1.2384887263023516 -0.5034883334413394 -0.3411979879081285 1.117360039133953
P 1.962879956897434 3.2636836135965845 5.838061071490674 -0.7134225061047584 1.7223131021806983 2.1991028432849284
P 7.043972807493333 3.958901812518774 5.570911071878235 -0.4899766721081497 0.2526013725146424 3.9589697353496853
P 2.062142437152044 8.227115923059404 10.046596188695801 1.1680195131620337 1.4028483921846033 1.8049367878202012
