# total energy = -381168.87036207353 ev
CRYSTAL
PRIMVEC
9.23972291370261 0.00000000000000 0.00000000000000
0.00000000000000 9.23972291370261 0.00000000000000
0.00000000000000 0.00000000000000 13.52326844970644
PRIMCOORD
 96 1
Ni 8.271205985219652 1.037075747964417 11.199687215927305 0.793892121515736 1.2827850736414037 0.15032957362690885
Ni 2.7912833559667014 3.8788726695098417 10.461465688167939 -0.08267305082019955 0.3721340153653527 1.0199900484232112
Ni 4.3467260430380374 1.8940600551578641 1.6656476350733675 -1.2336582342077655 0.1365602877569584 0.7590505883565185
Ni 6.7191080778701915 7.081111184840887 6.600328666934732 -0.8967375335187523 -0.31315907949304134 -0.5814853189421082
Ni 6.1696956695215475 1.3480755840379937 4.054073524902941 -0.952276190016005 -0.16714330275013795 -0.7488667058449813
Ni 7.29989858548815 4.604218643284582 6.133464867738615 -0.4970140385709053 -0.8311687464790073 -0.4171388622108171
Ni 4.585267971434946 8.081486753094552 7.432902549964574 0.0898248313736324 0.40960424439666876 -1.3955220337265193
Ni 7.555339967231224 6.366557207516842 9.544952617675785 0.1183172823863704 0.197635300691408 -0.44803632312062197
Ni 0.7110114675302129 2.272833259352885 4.233188326954015 0.3867090849660501 0.20456750903486706 -0.026167402423987192
Ni 6.798588175018202 8.035057145076793 4.1781084902743215 -0.5534057870970728 0.2365335204185023 0.3700287960968917
Ni 5.3096714934648475 3.621490945939161 5.006814625261132 -0.22505920123031561 0.03235810461573137 0.3885425386303631
Ni 6.771506546938591 2.4821037453218806 1.26820002674607 0.027176046194159646 -0.9797160313945128 0.07297587813709368
Ni 4.1415117954610405 5.105787765998212 0.8000352745531579 -0.8631712675275328 1.113506726826134 1.1817815999431325
Ni 7.8658223788174375 1.814127211583411 5.727415077308923 0.30223086261631177 2.3195263733810245 -0.5974349002928292
Ni 8.120931130532922 3.157481297174226 12.921374694898882 0.2898772261469653 0.30171381377057716 0.2583542158380196
Ni 1.088420888612115 3.093191304619487 8.887248807956048 -0.3366664185863621 -1.7235875980177477 0.17908247738988514
Ni 8.813060300163613 1.617792337798467 7.785819313348272 -0.0015709440315456815 -0.5247526421367544 0.6664669632908263
Ni 7.310653623046891 8.741332330603045 8.243838849699692 -0.22060167967959426 -0.018372588969916746 1.5504849923603814
Ni 1.8075208096465558 9.101367376577167 4.283914406161477 0.8664568802573399 0.624219624585841 -0.45322995150641937
Ni 8.70299671992331 7.469068673686585 12.786074659259791 0.07893158149989633 1.449303598323349 0.07586091299437257
Ni 0.6373209808068641 5.218493907013259 9.247157269725227 0.8476065803200564 1.6268691248480756 0.5578237136591102
Ni 3.9145564796918477 7.614816064108896 4.917087675318754 -1.351997628081323 0.9792982271308037 0.5802398765707814
Ni 2.467985448595287 6.626378217956515 1.486829428130228 -0.0605628491847215 -0.44601209360174154 0.04221622835673375
Ni 2.445366606719173 1.8190150250443848 13.59953987117689 0.599359885229684 0.7132679828047651 -0.8315073607653486
P 7.230046279694269 1.6782293658669558 9.339304103118323 -0.367341993293348 0.703572609893872 -0.02381098637666867
Ni 6.025944059264775 2.404499311940557 7.340930347335964 0.30883242709322944 0.19742164201870516 -1.4375472291183693
P 0.3659207495178661 3.7822806053869273 6.954003087603496 -0.5615387006168523 0.2587954171404962 -0.6449987661147214
Ni 3.0728639140445484 8.773985511644788 9.014786552312412 -0.18491579624221055 -0.805149182486794 -1.705473147805224
P 3.774861107827075 7.352537287354254 13.147456856845652 -0.22237316975772026 0.9750870172629337 0.24912626948184835
P 2.571119236594136 3.406639667285045 1.6950604452630054 0.3817805373161812 -0.12423699030491507 0.21423819935541166
P 2.958993567932936 6.241968782738444 8.962884256368499 1.4019353934520309 -0.258305107767639 -1.460974349793058
Ni 2.0846201020749278 4.323127790525131 13.03987968606158 -0.49260691064214523 -1.1236353306197036 0.2721409852094668
Ni 1.9144613635167118 5.868739412336588 6.980089597517234 -1.5011396091580342 1.0264915969871549 0.08173356972506568
Ni 7.660561932625498 3.9718242827752444 8.650537268683184 0.6012879554903321 -1.487416603144987 -0.9519861695794122
Ni 4.112840935027388 0.9537888849450992 5.998705355894357 -0.3763377690340551 -0.3723934396743264 -0.36499817565151976
Ni 8.582418334921966 3.5946033520423097 10.619850247721772 0.4660952375048618 -0.15642617344294996 1.3635817333744966
Ni 0.8126678238231836 8.204753897485578 1.3968585495009505 -1.4502299667923604 1.1446468998743642 -1.8258100317247847
Ni 5.217634612775318 3.825254557006946 2.6077325629087964 0.5892410516281271 0.8909911179532783 0.21812133645990173
Ni 1.2275249182056174 4.882426702471587 2.616008582789693 -1.254943368838787 -0.9369945812665863 -1.051201441029009
Ni 6.539746575215322 7.692383538598266 11.268709794596809 1.4080687600432782 -1.2507200747860587 1.5122058942745247
Ni 1.5160814671398637 1.2320154235780814 2.072007880195477 1.2539180128980663 -1.4640617304691301 2.5646286093051445
Ni 4.8722260482921635 1.0134867351744992 13.037837707281097 -0.6683821780356682 0.042814266952048846 -0.47388747985577095
Ni 4.208509026851441 3.4426745869406186 12.873164592261219 0.7602836894326712 -1.5078211349432677 -1.0414356198914967
Ni 5.33608786148928 7.36371735217047 9.526277289571206 -1.3235925945760687 -0.17929330784911057 -2.37671387833561
Ni 7.758253523784057 4.604939341677694 1.746354767434266 -0.4519415717122991 -0.38035743171640946 -0.5059887312656899
Ni 1.8913897752141562 1.8765600198174393 6.7428098152805696 -0.14035729290554536 0.20947317386660053 -0.16460279571647135
Ni 2.1302828130846314 8.44957883751474 6.610727975158411 0.14382519684948777 0.2788410229374617 -0.18512071316416506
Ni 3.2479474249556923 1.8983934852395214 9.177377033770657 -0.3890387615404913 0.33804607254270813 -0.3822189104051804
Ni 0.010797540284488002 4.518723486470987 4.546211662362097 2.175454093517737 -0.8536219332762007 2.750258915115876
Ni 7.88578942019582 5.836603655782207 3.6471718320136994 -2.2213200028119164 1.1020126101436052 0.9827931276579397
Ni 5.839301654894881 0.1461613300122016 1.6482834236608754 0.9742298114689609 0.14771476171188108 0.544068825966863
Ni 4.526808244086019 7.782415399399268 2.486942588251015 0.19155798414907654 -3.7444659410377126 -0.41934589716446485
Ni 3.710524916657393 5.6348173454339845 11.832345832514118 0.2473529796315095 0.67631968771519 -0.08626693881904499
Ni 1.2179156062974645 2.2083492326153853 11.608847097114962 0.1840400785054766 0.8077318556123056 -0.30525319438240334
Ni 0.20470236692342794 0.9886411200581308 13.503686984893067 -1.143354920535818 -0.5314879039780588 -0.36435360008898543
Ni 6.327778090133652 0.3117029789930097 6.256296821176879 -0.32584258849798076 -1.480830465287037 -0.15151099552951972
P 4.237623393988548 0.20943772495508983 3.57104852622745 -0.5227530952082222 2.257765390123144 1.299485674225536
Ni 8.637339248366256 0.33560152250304587 4.310095161249699 0.3201699635932357 -1.7024341038685842 -0.9454504253434233
P 0.8124756375850205 5.154203914458519 11.433206430907605 -1.1227601271036018 -1.049968339952856 -0.236878819573063
Ni 1.6617734192242442 6.636541913243985 12.653195431043715 0.8675262020621187 1.8182383900251136 0.8607107218021821
P 3.8679790361062723 1.9799617597829582 11.241473863143288 0.3163408196551326 -0.6002137485895469 0.3387880929150552
P 3.783916036355911 3.0812813016871705 6.403348860485183 1.3382072591654504 -1.1711765707337767 0.8700597671172499
P 6.11476551635427 5.167693910021888 8.031104391582266 -1.0272541861847921 1.531125871107479 -0.24555732118366747
Ni 6.187851725194163 4.796155408926948 -0.279487760820927 0.3576839013782937 -0.8388224063695231 0.38621980403445744
Ni 9.37055746612729 2.7146675729451593 1.5131053523652327 -1.4135323542610108 2.606964393958878 -0.04851620243283257
Ni 3.301140510201112 5.230320752438678 3.4576161429854975 1.2855526090842118 0.7722223498517862 0.3292287313613943
Ni 4.313610875846865 5.787097220009243 6.747961884819018 0.9828178102482881 -0.1772575083660044 0.06188568176120309
Ni 2.997236781382787 8.907342433539375 1.107292098844049 1.0607152940567153 0.4026478676834936 -1.0644907019387473
Ni 1.2723745335923236 0.7501795772512238 9.596219220678078 -1.5370304095173724 -0.15035939842357973 0.14915200837903989
Ni 0.6124966170533693 7.161506014564771 3.255361378681752 -0.25037454006665266 -0.07482630108227113 0.7578786795356044
Ni 0.15923369009648505 5.36490655749075 0.3138576823939533 -0.9795046867146551 -0.12904341055462293 0.40093679852965786
Ni 7.003238799492894 -0.054146624657844075 13.110105276664202 1.3270198750900633 1.6229659331389277 -0.0733188632988092
Ni 5.703219014718654 5.418275197472954 10.816599985068903 -0.5320980267582319 -0.840025939759321 -0.7174910197471773
Ni 5.138209953965239 3.3951916505021593 9.148788406871605 -0.1701959735335327 1.0721790717219406 0.7681924027567867
Ni 7.644327739334512 5.72994029360171 11.823204050589188 2.345163871443471 -1.5821812950223975 0.30339043014205164
Ni 6.089162243952836 0.4929706365004297 11.004046245338806 -0.8953270263244709 2.2417774993353197 -0.012226366862862815
Ni 7.365824009011873 3.500977238998739 3.8681148600342046 -0.1474440245489977 -1.0587142044662865 -0.6221506578719542
Ni 0.6413180849717361 7.747230534258647 8.298174888678801 0.058620123636053886 0.0772711630783379 1.8037239984590225
Ni 6.0248537719521185 3.0840162596917993 11.353392779759705 0.6995992270684209 -0.7347060980738831 0.1802016785959929
Ni 9.028789352501647 6.967370194851116 5.592047591692014 -0.3579052733604804 0.9909262982880354 -1.9780771886940383
Ni 5.22871304063866 0.7830175527527387 8.944736516446573 0.13843436485121965 -0.7769904606643909 -1.0536460459147596
Ni 3.2518096291649305 2.5291339353338986 4.028067400579204 0.557547062958956 -1.5472968244403869 -1.3264496044088896
Ni 4.00153923190661 8.559245109666536 10.995675056311127 0.20990409075643202 -0.030448546297844332 2.2121650757855256
Ni 7.7362445036251914 7.276300332975245 1.9663913786295886 -0.06970466358498963 0.929582090852599 -1.479807166228845
Ni 1.8383537652595427 9.124032417068225 12.061808809102418 -0.21158713488580977 -0.4282444852056754 0.046562935361203685
Ni 6.028521941978596 7.266238274640649 0.07539798753164384 -1.4042668697986849 -1.0148524700863297 -0.012365977764520638
Ni 3.054652420034001 4.212805498041145 8.127457146879776 0.33738067104456737 -0.7595799784974273 0.03943223785369338
Ni 5.445292147491646 6.072004078362989 4.647771925535986 1.6457646762009976 -1.3963301314501113 -1.0581174514225518
P 0.04421115052819326 8.499159191071614 10.710753414400598 0.08869097487950532 -1.0080269625240639 0.1641831916805495
Ni 1.8437867223768447 7.204507685353755 10.349194738105655 -0.5790682248601834 0.38507900556179486 1.5545257380886581
P 8.837896675556994 8.71361316163722 6.768287427449359 -0.19878509802513505 1.8400914813444633 -1.044029348760602
Ni 2.3520546442572146 4.114827475469939 5.339000222175289 -1.87167619812928 1.1573334942030973 0.33947406323848633
P 5.9379172183523 5.882377243467774 1.7649894407576916 0.41780940591528043 -0.5616816539526198 1.032866390165247
P 8.012161111511022 0.1929568310603087 1.5343363878484577 0.922701818792998 0.7769701489494167 0.07992994085742362
P 1.6796800023761675 6.338653244091244 4.8440485890661025 2.4572392866851875 -0.42441405571599167 -0.36118522966333283
Ni 8.572735105229905 5.995185021435697 7.457460809695996 0.4187460587969369 -1.5642601917676027 1.1175256181775401
