# total energy = -381162.15051028365 ev
CRYSTAL
PRIMVEC
9.32617487545569 0.00000000000000 0.00000000000000
0.00000000000000 9.32617487545569 0.00000000000000
0.00000000000000 0.00000000000000 13.64979963444111
PRIMCOORD
 96 1
Ni 3.529043147150897 3.3080967430643646 0.763292372238341 0.11126474641496321 1.5708884957173979 -0.12075674506579849
Ni 2.086759560743481 7.99745591167598 1.0031718435206887 -2.410845529911996 0.3508540229406538 1.9916402720904538
Ni 1.23900095714423 4.85308016492832 11.682413114328046 1.3815745704074915 0.4853479150868867 2.467054987224029
Ni 4.567615284480697 5.7390574323216965 1.1247375977154266 -0.2302348318939841 -1.5500473906023304 -2.189224150718636
Ni 8.837800206413267 6.1182690205434875 11.090653342309281 -0.6525212997440116 2.4469456180686633 -1.8984197847717112
Ni 6.04441504333859 8.874591965483013 10.170315649582403 -0.6395197452780212 1.2839598106757952 0.3772343127063955
Ni 2.353422873058124 8.899259697482881 9.339847773819733 -0.17485944044747304 -0.20803489875817718 0.7211520135385322
Ni 7.217218812681283 4.9167313070451835 1.8825806860945908 -0.2486274754685589 0.07237244022513986 -0.3992776656596801
Ni 3.381465759186468 1.6564778400334925 2.324232878961191 1.7063735481323061 0.40327598818579585 0.15077591713570807
Ni 3.759632815845317 5.270100065258796 12.210605679801974 -0.043281436396454494 -1.1024892926697079 1.3396689313126413
Ni 0.4149998508971397 6.573964567226875 2.6743775785916832 1.1863728188582408 -0.11731532348441732 -0.6278155694672156
Ni 8.293030365464949 5.556646781968039 4.211195001915343 0.5414707262223836 1.9955709746034276 -1.4217832814158933
Ni 6.002810978139569 3.3932260654442503 0.04640797777109417 -0.7549859313688416 1.529905882657449 0.0027947891363177676
Ni 7.298599012844176 5.341156190062954 6.770205001997396 -0.0848165795257636 0.36240238989988555 -1.0707351401865626
Ni 8.75786556332409 3.136103429816134 2.858731803746388 0.2648290249290859 -0.4658026459651074 0.4765665693498309
Ni 1.1723001559105601 7.047995373309787 12.733542945849841 -0.3722815966868105 1.3721833590005788 -2.0323086963440935
Ni 8.923759558338705 8.060780637679423 5.106799679419669 0.24420980601683748 0.010847741347781319 -2.1079546651141827
Ni 5.861771238618205 1.9218168355451182 10.862005383180975 0.7260435373028786 0.16174475744238595 1.3162073578555913
Ni 5.375103465858613 8.86792375059458 2.820976650833319 -0.7518450717470149 1.4149647158321632 0.23930774072952976
Ni 4.556041501716297 2.2376104360167766 6.739424895119375 -0.40777336183551705 -1.4132500471339013 1.1945221874382523
Ni 0.14975318451473854 3.4744663729871053 10.472344748859882 -1.3116444210752574 0.08192048892489118 -1.6606580483730626
Ni 2.4792422955194553 9.142355766408615 3.1359728633707666 -1.9152078028633275 -2.008524706550618 -0.5080898367690927
Ni 1.3343890716601665 7.400300947611118 8.052330190811716 0.13042383584191733 -0.293527678415359 -0.9006165568581845
Ni 3.7252192313162 2.0978110777264085 12.534528906732719 0.4803476336588179 -1.1582619195546375 0.514668518427875
P 7.401019063060642 2.399904527609104 12.368697397088386 -0.2896993058082043 -0.44175666075949727 -2.99370921725887
Ni 2.11433705924012 2.231249984892425 5.2672257382257675 0.0534015555495919 0.6574642455715838 -0.44343713378571364
P 6.314799499346218 6.974197353152903 4.691900551208954 2.297053131979173 -0.17976690505141943 -1.4484042264375314
Ni 8.359852406969317 6.874789657354569 13.460012782642027 -0.6317683834673765 0.1561225261596021 1.008236764542025
P 2.0973261166436132 8.460183394059897 6.029198456748426 -0.21107137159165587 0.2635159625446172 0.2892884435230308
P 6.460632892647519 5.8670125487822595 13.283111103665428 -0.4375400515749884 -2.0833733762303925 -0.7375237700283362
P 0.4853798280377844 8.5726850390937 10.806928726054918 1.2726947792849372 -0.12300054679465268 -0.7533743639073477
Ni 8.091986018122356 8.917455064262368 11.933050328091245 -0.8062881811872437 0.05266724848672865 0.24985492011775678
Ni 7.27854773730553 7.278948762816303 2.7148904813544155 0.2991316548656977 -0.23834331993373145 0.6285524476332401
Ni 3.49906882176429 7.281774593741051 13.20085704093604 2.2548862688031357 0.5986456327714786 -0.8579017915984773
Ni 0.3948665050214061 2.8581274676278277 6.956579276585436 0.4689859287890955 0.6479326519320647 0.41579726058125804
Ni 8.938289738473221 0.825216306806479 6.117048224279299 0.6099679997628333 0.5078334977839125 -0.6956109318446342
Ni 3.983442355555274 4.776558901768049 5.136760948161739 -1.03318032186124 1.6511951031879497 -0.5807934350814062
Ni 6.032943848495551 4.530152040834772 11.24915447866367 0.17509495349704685 -0.2524337365885265 0.681530285381852
Ni 2.7084703427121815 3.3098500639021626 10.89348215530678 0.2685530107478924 -0.6277096400169706 -1.0374678934930002
Ni 2.4959827790505567 6.154771668198492 6.418449672001544 0.28636484211833263 -0.5499497102276723 1.3073321668531483
Ni 8.424762582666514 7.6424550728952685 7.1918469544938946 -1.5691234333971749 0.713691700605745 0.7421494417258058
Ni 6.547664754659908 1.5847688830024957 3.280074386036008 -0.26662442626661176 1.2409812502317403 0.7377767665794068
Ni 2.3053744211627283 4.154932055371371 3.176594882377128 -0.1611734583199482 0.1584879410679851 -0.3422621675065847
Ni 8.236597682542 3.6515237990806773 5.208340271364834 2.569510362877478 -1.8741989645511334 -0.110828430208493
Ni 5.965235820397615 7.622198621513902 0.6485459169616763 -0.3120889863573141 1.2451623781926233 -0.12962268009686065
Ni 6.701611919923359 0.4509811653881383 5.771175845264738 -1.052215227005504 -0.8105194456597719 -1.146568028156477
Ni 1.9687741250042248 6.511600437214355 10.423273215603281 -0.9828718034146751 2.0206497719489267 -0.24192846618182848
Ni 7.786637733280131 7.791580605854774 9.369563764168005 1.9440442674790455 -0.2631452094687597 1.2947062505590219
Ni 4.931065637511647 4.824737920108813 7.51006536037953 -0.5041226245912286 -1.2163670512274858 0.10010847268782759
Ni 7.373767980677423 0.21833694041410742 1.6105809366342672 -1.1945363285056394 -0.6379207762220176 0.5487101813936164
Ni 5.0169876847384085 6.718706798091887 6.177011796931984 -0.3719352690909853 -0.10451020129994905 0.9168517877701242
Ni 7.93475603937537 2.051329423175428 0.6089124724702434 0.5524503651623388 0.35069898542002825 1.3312187436627592
Ni 5.5381716299484784 1.1580497610161182 0.9470152153679453 -2.0755379393463738 1.033656233056394 -0.46311790004409276
Ni 4.812707154785626 0.5755275650071326 8.636050800265686 0.4671591599930019 0.9743303416025672 -1.630103315514657
Ni 4.330124246531115 6.96483387378509 8.458971923970376 -0.3655216522551576 1.3042357873160118 -0.07231433329369481
Ni 6.362726710970915 4.565750049546869 4.417757646809664 -2.318365263193388 -0.23465198712507326 -0.23071768506767362
P 1.0509759496397526 4.423404645571827 4.965919417485147 0.11821135293612545 -0.28880430479776065 0.6124817673236226
Ni 8.200216275157693 1.3702109085643228 10.09020474179198 -1.353233043150321 0.15185372358091911 0.749453945807019
P 4.682252623513733 2.94058950405234 4.8171781229220105 1.4698459412510751 -2.2088727781874993 -2.3397768960999445
Ni 3.7995301910798864 7.685122322006571 10.83361370963572 2.0279797299514364 0.6132014190984665 0.2634090046531077
P 3.6259234496138952 0.024984821938618857 0.5674818741200678 1.261117873080615 1.2052817399476017 -0.45619186234822084
P 8.365149674181389 3.2417223579441146 8.569139227484495 -0.19982073837850103 0.13947617585217267 0.1553907901999001
P 1.3969583775154086 1.8008843286104146 3.2864208478983556 -0.5163286797391172 -0.1998585335949719 0.4323538793883586
Ni 6.3578491216189565 6.945631280141336 11.227260351010404 -0.31727104477888585 -1.0274205365593272 1.092564063136196
Ni 6.2396212053383024 3.259292871020769 9.03846031535949 -0.5507801765487675 0.5280873629369421 -0.7091035670144303
Ni 3.8479143852633704 0.9668818326481415 10.457056350724764 -1.8213800209778892 -0.047632000055666354 2.5752297818597585
Ni 2.285920020802908 1.0437761427951788 7.398273437238047 0.16794343005393012 -0.30371901712606403 -0.3182868876379099
Ni 5.032068109178405 3.8963452103202005 2.478707905710914 -0.024515468642861006 -1.1002434340583247 1.0143624178237884
Ni 4.936204359754342 6.7146126074121355 3.0431541099761774 0.35853802184847283 -1.2794920047124287 1.1758153550573684
Ni 5.391722709119015 9.268613519079397 12.436359726930446 -0.6914349460900737 -0.016467401527403898 0.06741149667543873
Ni 4.138434052381667 5.404406306669042 10.084389871885774 0.9329528070970449 -1.027627767474127 -1.5765919738600782
Ni 9.033593917417136 0.29727181757875176 3.412231876802485 0.13564754613470187 1.4054583190036245 0.016192807709778566
Ni 0.244275830021379 0.21752742845282627 0.2569519666316704 0.21577391927364775 -0.9744426988107154 -0.6926089117935168
Ni 0.6137406330964559 1.834803625882067 12.339746153062984 -0.7936568655764783 0.06239861684187963 -1.313669421925086
Ni 1.094864927632713 1.5660419242668682 9.751743873786983 2.1486657696802993 -0.3982011447660497 0.017228705173460652
Ni 6.700222319897656 3.0446975918839194 6.576650505531587 -0.4789417544502268 -0.4969826711123376 0.6269570781216621
Ni 9.130138477592045 5.6863085883930555 8.514704211175673 -0.529790718781294 -1.1182828080585387 0.565199180187575
Ni 2.7997083095003514 3.7530858412275823 7.012406690772359 -0.7966861393211053 -0.03358734903714216 0.6625501447349235
Ni 3.1739956774968396 7.199900106320695 4.5183973302817915 -0.2540193359080915 0.6677085490074113 -0.5489307820448547
Ni 8.30166640320857 4.3825746528703435 12.302414408479896 -1.5181142893391597 -0.3827143619843602 1.1259148706824997
Ni 9.31754795756836 3.8697096554651447 0.6876524325843028 -0.8468046532440512 2.413853720610701 0.4198976559028768
Ni 3.8412368442002682 0.4566729297887129 4.71047735853241 1.2532672666879447 1.4944298012380262 1.0082197952611605
Ni 1.9284384195602056 5.465977711834687 0.4563595703198299 0.6535469127950486 -0.6058501209397179 1.2743670247810377
Ni 2.3850199528371614 9.263512101535378 12.057523050930353 -0.7133160624338812 0.0274714659473914 0.5108072357002558
Ni 0.12895115191522777 6.104214475317098 6.049809302767219 1.95194706726589 -2.024135673614998 0.7126429476262565
Ni 1.2972335917783233 2.1097112766042274 1.1599066023927433 0.069265519165042 -1.2760205012240604 0.7741388501482087
Ni 6.580492889495273 5.791479860136917 8.842217082736571 -0.15981360185794413 0.2644158486510672 1.9191593313119077
Ni 4.372922062087786 8.89906384781483 6.789233196174837 -0.6709324552613477 -0.762248526468526 -1.0705006555782532
P 8.872484250007789 8.289859466077443 1.7050103203942164 2.7805372543844435 -3.1006095160575504 0.1670689978687768
Ni 0.015619477335871167 0.19647731960711648 8.236548253816252 0.6886864368106591 -0.16503885481262545 0.8165790215902905
P 6.397979651220254 8.291911224504652 7.758982827533738 -1.2982949963515447 0.012767584078313497 -0.22997489336437812
Ni 2.0655611657205317 4.812641871562942 9.0629070170197 -0.21272150560056913 -1.032440101261106 -1.367072777246891
P 2.8439237036067313 6.455829912692914 2.388947204990335 -0.9194614574788293 -0.5579394133013681 0.34340039487608603
P 1.696319258220047 3.4019553649345626 13.194414519474599 2.3541069395693714 0.8612177433455878 -0.8735680373808246
P 3.9028642064139274 2.6492677859124973 9.11409372669126 0.07323993043175774 1.0681612088117993 -0.9720541439738809
Ni 7.095017945991577 1.0857905596796422 7.894798044005451 0.2959424585044387 0.34729407350353736 1.1791529040710338
