# total energy = -381170.2737945026 ev
CRYSTAL
PRIMVEC
9.23194937726070 0.00000000000000 0.00000000000000
0.00000000000000 9.23194937726070 0.00000000000000
0.00000000000000 0.00000000000000 13.51189109336110
PRIMCOORD
 96 1
Ni 7.946603527777198 2.6301177534109255 11.600120720445634 0.3471585763669376 -0.025849099852619996 -1.3242690518178033
Ni 1.835016113453061 7.172652283838416 5.361234879378798 0.529228932740553 -0.2786268500441266 0.1702941896742938
Ni 7.037274978197288 7.161490857043535 10.733589641780286 0.8132116477799544 0.02663791430250251 1.5654930357334393
Ni 8.728254217495078 7.620854194065577 5.321320546254179 -0.0005702706811732115 -1.2949633608751503 -1.3973655146931612
Ni 7.434534991770895 1.5783956166645703 0.121972515148021 -3.4535433043453683 -0.9535365447856676 1.1525453287858343
Ni 3.892042145486171 8.569677023073526 3.259581604064918 -0.026414999658419026 -0.6042154135497723 1.3242731655828612
Ni 5.811539827673681 4.857704050154881 2.946672988739567 -0.5454240544431768 0.2813087677516639 1.0268957744041087
Ni 8.45911519735352 1.394495185106246 2.2118559782031806 0.9711527152055338 -0.4481970170682023 0.6451810573288566
Ni 4.933045989007666 6.174890891191378 6.645579983707183 0.8506134854671801 1.15147703542232 -0.3490894748410633
Ni 4.19911524561132 4.137805869809171 9.743100255656266 0.40197243888302386 2.381313839001467 0.7487216956266848
Ni 6.062787329925678 5.542530054823379 8.969842331115577 0.26883866030911124 1.8201230086423361 -1.5740483815026183
Ni 0.1317657670454643 1.292500608406629 12.968064819148179 2.817762200174173 -0.9367989203160124 -0.3800820665678357
Ni 8.683497726923052 0.7569247597056992 4.840553857800168 0.06471929455525628 -0.3979376066920179 -0.30480813642518473
Ni 3.4317833093747123 5.439926169464985 0.33536348579118 -1.2189942044376878 2.1829187773258987 0.44378217582995827
Ni 9.012829056992336 3.7844437755156752 2.7466969637338274 0.17208830546023912 0.6842587400566086 -0.13265272517243606
Ni 5.544847274116609 2.8410493327404733 11.206979079488402 -0.6428539518575768 -1.0076153289079421 1.9739369412734198
Ni 1.9688701474472448 3.433241957376029 8.921401369547821 -0.18859221665253328 0.4035588095335372 -0.05261094132749649
Ni 4.554609920210536 1.5617227160925655 4.967566094112229 -0.5148767777839391 -0.608769608579358 0.43890299336078603
Ni 9.229770635365279 4.946783129678288 7.205594648794719 -0.4118557594350068 0.21322981269555535 -0.14826909155345433
Ni 2.3430687514810575 0.5461242740572825 5.138193752053514 0.20408491297149367 0.4216454918319191 0.1276107918731544
Ni 4.620064441282249 2.77956454990019 2.486525859215551 1.4555652629623448 -0.8059068865884248 0.4747716822329372
Ni 1.288318535339565 4.977451665503427 12.86353607234501 0.39594165930791164 -0.585739980453404 -0.16811929351016208
Ni 1.6264109853661184 2.1181692327465025 10.934133431672615 -0.3578103996538289 -0.49039859013691667 -0.16600687515284956
Ni 6.90244235756931 3.311878750886785 1.4882945603453042 -0.3936202102635866 1.2135169833732005 0.3479057389456073
P 1.2291786676406382 6.716861711224659 7.6316380341310035 -0.45190171961329917 1.8931641927997265 -0.16107498506887097
Ni 1.4338048255467752 0.17342678499191255 1.3369746013277672 -0.025861698258110296 0.6443323361753162 0.18780417353359913
P 8.009777757353183 8.148690899605095 3.364528558174793 -0.26964495826049045 0.056118697370438834 -0.500422550031822
Ni 3.1309233111792194 1.8556218244589937 7.585507829491915 1.9059459179454272 -0.12510756583532648 -0.9354740308570018
P 2.786645455071136 1.8844716662571743 0.4575612605039612 0.40603066811279753 -1.47858949177166 -0.6602788322022435
P 8.033513099197382 8.043252805788448 12.52291499138453 -0.2824020008158427 -0.9670368932649474 -0.4362786683640616
P 6.90534118967319 8.082848636659616 8.84519439703856 0.6535140026745843 -0.51458650023703 -1.4299226226935762
Ni 7.939097952934984 1.0615264669830493 9.861801891140574 0.8661637744969535 0.4684208003142449 -1.1547186822880693
Ni 3.1998767410642155 3.602814403503704 12.17144360032312 -0.31546510191839866 -0.8150800684472608 -0.2529713542595514
Ni 5.153283373307635 5.4761984985610015 11.93552667320394 0.12754985672823194 0.3048978679255136 0.45683875190360035
Ni 2.9430623733388406 4.043270708204891 3.184752961597406 -1.059991014296181 1.6216179037514653 -1.0503766311348686
Ni 1.7105417400243017 3.4995827455877815 1.1515185862996853 0.09038841718658626 0.07086500244167795 1.068389008551889
Ni 9.230786149796575 8.95527708458598 11.069657525308811 0.23986207057110304 0.2050940709622984 1.2191592692606423
Ni 7.598531340475819 5.077313661897321 4.919841531816005 1.210502879137225 -0.8962204846730178 -0.9890105693225613
Ni 1.2834348341199688 8.438417166853835 9.403195573967318 0.04122378253647739 -1.9868472215771844 -0.8943947443181886
Ni 3.0910228259786634 3.432549561172872 5.246626690247547 -1.208753757656602 -0.810801752786881 1.6806815426828408
Ni 8.197260185269169 8.558423276784891 0.998889536860714 -0.0019728074556546672 0.08950395769910392 1.2150704439032494
Ni 7.1484091847785685 2.595248680619972 3.7757362008647815 -1.292039502360136 0.3822363939066772 0.37341828139441496
Ni 6.392626417210608 3.1941160046539543 9.191531901052299 -0.21916443301243543 -0.7298107176547948 -2.0953282345994237
Ni 8.803328429815977 3.484156158181458 0.13932950316874418 0.17631699882960603 0.4315478385472955 0.10426826049247204
Ni 8.811747967646358 6.529877808574946 9.247660306864963 -0.9079979369239202 0.3206461318987059 -1.015037332403626
Ni 0.11114436172559339 8.822124678744329 7.205446014409775 -0.006948920514007388 -0.13025414303327243 0.44479184804139527
Ni 0.9561345329132788 4.7423970024559114 5.026517630043897 -0.5721918094553242 0.22434006367610396 -1.7888877047771385
Ni 4.857990240585519 7.740260227287233 10.384333918568977 -0.10116725296964511 -1.190814399569362 -0.16910042647650875
Ni 5.3640118497509235 7.952133465453073 12.859860833298656 4.455353082315127 0.33591154269820855 0.5761428236832723
Ni 1.0955092726339626 8.553465719970292 3.5768006165536512 -1.1424820310125614 1.2155823505426615 -0.46914559429541136
Ni 3.3580200338651234 9.189583959734087 9.547340461930279 -0.7706894581470275 1.203742677595256 -2.511181545229598
Ni 1.0139080721046438 2.8935514288384745 6.56460378615058 0.21578317524502838 -1.0238999250005785 0.6185642260722767
Ni 5.79219889373218 5.901098968564609 0.8492248663661897 -0.2432883226438326 -0.5041413936443059 -1.474204475330087
Ni 4.9978819694712255 8.39337448585117 7.679199190923281 -0.6798863220205258 -0.6865321094718176 -0.7477287355857961
Ni 2.8235547886740564 1.394430561460618 2.771747858364024 -0.4483854789299246 0.5751750604533643 0.021588010583420886
Ni 3.8851920390496106 6.221761498170374 8.728290222097643 -1.0720926826557216 1.0820497938684333 -0.30476519900239124
P 4.18330091633123 6.240603906845602 2.362797427296326 1.0668185787409756 0.22222404577436566 -0.6966365448956713
Ni 4.913058818609886 1.3858910082883564 0.19338256676181584 -0.47154340510362663 -1.1954246446478638 -0.6064504735278782
P 3.7518642261698254 2.224705928538825 9.784757580822964 -1.1398913874672498 -3.116379120186981 0.5744199274548946
Ni 8.122139813201393 5.824206062216754 13.550399568240662 0.02184434956860109 1.2707350844554048 -2.174968926351202
P 0.23610248930162453 4.038663965466558 10.901299080524003 0.928886093226839 0.7809265624940035 -0.5312521338181689
P 4.595018162626741 8.070856334420947 5.484165670871987 -1.1693857973819408 1.1529464208789948 0.10041469107433675
P 6.807851804268778 4.134953197452166 12.762265280476425 -1.035923688934332 -0.09573554043111254 1.8370966603821974
Ni 6.128823463808042 7.793731678069653 2.0662792148920914 -0.4197611303250126 1.0512042692424863 0.7275890274131277
Ni 3.9374541044638516 5.999530012805315 4.528970027210188 -0.775503077485587 -0.17480853260487958 -0.41273867626059246
Ni 5.804145036223971 0.6682500395649354 9.21501521067855 -0.9488638219003465 1.1745151481887062 0.7734431096327647
Ni 2.4413336206330056 8.66267044913211 7.185380372442304 1.1030330809883198 -0.353113765509108 0.9472746230363557
Ni 1.0940136968351448 2.4690387007086345 4.080212353630626 0.25420291267380735 -0.571383454621416 0.04243220102228176
Ni 7.81066307322417 5.796491750191749 2.210031745006598 -0.02682406217137961 1.1999904096416751 2.3697449032169446
Ni 5.24552901146681 3.7880996274683407 4.919558110970181 0.8927122144094431 0.6453530641303467 0.1914176019164703
Ni 1.1378008327227518 1.3415499554382244 8.518260604222073 -1.4861701323323953 -0.6355736161460797 0.42358204673299954
Ni 0.952912582581258 7.564807029407416 0.14003205451621345 0.16510364661228985 -1.7675336645813944 -0.12214822609668642
Ni 2.2258691541601276 6.830636255327309 2.661720562512856 -1.2852001108407995 -1.0925357810014216 -0.7714561611097229
Ni 7.022236132664732 4.764387505868156 10.773044223826009 2.669437315682119 0.004723373617598317 0.16747368950636318
Ni 6.156879357959937 0.26217905350742987 3.9950070000651436 0.9615429600299117 -0.863339931894913 -0.3530042365144372
Ni 6.584844835156184 0.5200938695983542 11.801163958799172 0.8371517035353196 -0.5260592767633199 -0.7027470286687832
Ni 2.0484680149620975 0.11617854372000876 12.472731960969632 1.677734544239375 -0.21528360990079054 -0.39987467581373065
Ni 4.395127994750193 4.210368991899955 7.401948980060482 -0.642856522960738 -2.563899444448604 0.43185559959570147
Ni 7.67524883978554 6.578087048213378 7.026750555909311 -1.7032026066034927 0.9829332527802298 0.8437854068017532
Ni 7.499361740285079 1.7252113075818407 7.561592464634896 0.8193694398512339 0.7767462058640687 -0.7299999508474654
Ni 4.783479177176521 3.7123884106405387 0.3617271636225608 1.5236442180184533 -0.6064972676054136 -0.6327220056298974
Ni 3.075651630268592 5.8341765675422055 11.058821063131944 -0.1168124157060698 0.6715865439055789 2.0149537500054135
Ni 8.66418448882968 3.4148242183720696 8.747638541598644 0.7836344483434697 -0.2808958485839614 1.6821956653345222
Ni 0.35429452118041194 6.443152876142269 11.526453457209549 -0.8251760192306822 0.6516065012392261 -1.4061777136681524
Ni 2.3118832264908957 5.058092743297701 6.800413622657004 1.3076311861508063 0.6120382520283008 0.9584902892465169
Ni 7.164389689147417 9.060013550250096 6.420864180765198 -1.7604405051800391 -1.2023995333038002 -0.20896152433750464
Ni 1.7450969265364906 5.612083561417778 9.438758889351302 -1.8664362898865792 0.012932391790951922 -0.9961073282683424
Ni 6.575566726033888 4.410545350207141 6.795670247067914 1.3882751223561187 -1.150912935388734 1.2406097258249345
P 0.5898698661727001 5.471000911062641 1.4860511966470777 1.1095001767699022 0.43667153292710603 -0.15565304272235128
Ni 4.3426351306015665 0.5726365862736075 11.371066824492143 -0.4411177416239177 1.4541935794257987 1.792213426716262
P 5.598171013709023 2.288904904495481 6.768200581701358 -0.9105281595449416 0.5957827094013869 0.14427719678524187
Ni 3.682126080587919 8.147259947451905 0.8385915070755833 -1.1268558944395302 0.06732562182985179 1.042671806291443
P 6.077327650191961 1.2542711060430238 2.007744963072192 0.9967935557020898 -0.6775005953971687 0.38622057536540577
P 8.432167137126676 2.779426070659559 5.4347932056122525 0.22221813223709472 1.4595810689899573 0.6812983718767042
P 3.573613747629257 7.499121709601319 12.274904210583554 -2.967803038916069 -0.15070032670276626 -0.8797625962273108
Ni 6.196087446957337 6.9495160674345655 4.71635275007292 1.5366725119573215 0.40900363469819234 -0.9622060475352076
