# total energy = -381171.81478156557 ev
CRYSTAL
PRIMVEC
9.21888955530745 0.00000000000000 0.00000000000000

0.00000000000000 9.21888955530745 0.00000000000000

0.00000000000000 0.00000000000000 13.49277672382498

PRIMCOORD
 96 1
Ni 4.213115371839018 8.920953218102762 13.167263044579173 1.7786927665220076 0.5878174318077232 0.7669497885989373
Ni 9.077941683684504 3.850213795256406 3.167995706838223 -0.4438639369104872 1.0161297941368563 2.1197897100758976
Ni 2.1237555238749226 2.3784181213985622 7.647165457686544 0.5274078203714142 0.15903635737228738 0.2417718859993062
Ni 4.5457513349091005 0.5752660663029661 8.97561109076631 3.6741524402241303 1.9304834980754755 1.3050770522703845
Ni 6.838599725992921 1.6309229217529908 13.518682494561158 -1.043419225980429 1.5492488059604352 -0.28073823996017455
Ni 8.328261607279119 8.61965225970191 11.142712910155874 0.7301477892792393 2.244390511478135 0.4315321548180116
Ni 2.30126523699821 5.5170258529838945 3.113741621525221 0.21117344438715888 -0.3891644884850781 -0.09114714972948174
Ni 3.0708581142525335 3.5452160622535067 9.428064035944525 -0.44955095999293543 0.2750995536171585 0.2405261865176632
Ni 7.975611435577996 8.646829545304996 2.758558099049429 1.590727641930512 0.23433239900212546 0.5040082105005513
Ni 0.4286894142762189 7.402214960021403 13.000748700702426 0.6079486553399595 1.81961470154735 2.518972502028926
Ni 5.978578763772287 2.793765959105993 9.470512411643107 -0.5889286625940309 0.32115263922147913 0.08374828616224932
Ni 1.5798594940204596 4.9122759349795055 5.4732499572287185 -0.31418983475040085 -1.2746686151818563 -1.2120028607215192
Ni 9.189978845127625 6.293348519414017 3.855142213466518 -1.9565125751493853 -1.6630478887614777 -1.245263936767494
Ni 7.078207877319192 3.3705642048076134 11.791107815687635 -0.6239329465833577 -0.9503046681119313 1.35278747097247
Ni 2.6208288150665364 6.3695518582183315 0.37405643261373006 0.5328757854645209 0.47180128675070354 1.5321342577673354
Ni 4.3646831305229945 6.380310302010328 2.0036638188661913 -0.6440266320094392 0.551730713387495 1.0791665587833672
Ni 0.8193002063734851 7.692462470173237 9.33501778642215 0.7486440483112139 1.8223868649758486 -1.6117656935477338
Ni 4.802893813649575 5.013877313755499 10.065557604900421 -0.041388333138799686 0.7333601255689499 0.09292455334487869
Ni 6.669184197659157 7.139412083261831 10.93272412820347 -0.887494931874562 -0.7139840350351833 1.2326120523314383
Ni 0.921040790377635 0.7441588836144465 1.5799774958032682 -0.12099971431454001 -1.1659322916157018 -0.3271415098150624
Ni 2.085091502226568 3.403337356204824 12.746949913104503 0.3292207609415943 -0.9409916182411213 0.1793637560757298
Ni 8.020276954148876 5.762875192354023 12.861112028527106 -1.4549312289227716 -0.7747384314054206 0.7481007742132342
Ni 3.5583437605909545 1.6002148015549296 1.4395581399279125 -0.7762921490457857 -0.5770200840819031 1.6679800359557728
Ni 0.012340405192772373 3.942116902507824 11.424077098595653 0.26128218811809195 1.2461967329944086 -1.3324544158420728
P 3.8289181610151806 2.105511341986012 10.657903507375993 0.9159195057638418 -0.9237318027194091 0.9004782315081071
Ni 0.664037516865317 5.288139269892492 1.1668283631895744 -0.8210519697599794 0.7303629906138389 0.14467726043713794
P 8.27611035061132 6.788126307174433 1.7859440763619725 0.5074604307152099 -1.1125711023857419 -0.9003067389272496
Ni 7.302024071305542 5.088236874703431 10.06230518076176 -1.5145594821083657 -1.2501449190088791 -0.3271721059426817
P 1.2832325124855395 5.279224603956878 12.441244169404753 0.38195794343430994 1.7841383630176113 0.5585775611059993
P 3.299191563987022 1.6255944037480432 6.116544973209724 1.2635614495251013 -0.010665707243962276 -1.5433964609447162
P 1.7113208551805776 6.912903973605162 4.7863873923903055 2.437359517042125 -0.07070070894967179 0.9838146269439186
Ni 5.63529498358159 7.214398528680934 8.875265324710515 -0.4081914232095422 0.07447560261107174 -0.9778992899007481
Ni 5.970189574525743 0.7468950499533191 2.0978163351023964 -0.27422460721137293 0.935512597404421 -0.766465649873667
Ni 8.119831739504285 9.125548027936317 0.46621582498718506 0.2356518891444974 -1.1052701978489545 -0.532896097179495
Ni 4.377478948846293 2.625641075271696 13.137997680553733 0.8591588039340301 0.20879697373518236 -2.061042573943676
Ni -0.024282554368565988 5.284645310854645 9.055124010822835 1.3908997044631595 0.5156856468384796 -2.099256623119553
Ni 4.744602776720023 2.913122918638956 7.526877390336107 -0.7875831485785726 -1.0143426203294466 -0.6602171257263727
Ni 2.337560004101112 0.8376937342687634 3.6460310697737524 0.22581844799384335 -0.02768075374472007 -0.1251903553571199
Ni 2.2899536598492993 5.88523750979289 10.024646939934064 0.5247554703502317 -0.8158511422853304 0.6878816815211767
Ni 7.7752665337034035 -0.001970076639545388 6.915182883035651 1.2118915319546355 -1.1949425628051227 -1.4995342123441273
Ni 0.9471025903776108 2.9742994679137484 1.5509674950109358 1.7598190695459563 0.01348672163252516 -1.3537521488785846
Ni 0.9687208857437032 1.2424758029701903 5.817505408349727 -0.24080078033528848 0.8273578573733493 -0.42495424449017777
Ni 0.417919907817085 6.4965236202981576 6.714680338154339 -0.5881642736241806 0.02850170698411866 -0.2431355991160522
Ni 7.959164937099058 2.0245141807551 2.3102057158238116 0.10440170074654279 -1.7651955033665212 0.2419768029212607
Ni 8.106095594474231 4.638548674420864 5.210384392022029 -0.33708396573975496 1.3830185019428698 -0.006773571278407688
Ni 6.635986977354978 0.36968206964946104 4.256242257788748 -0.4026121293495517 -0.14930550323776867 1.6955404620725445
Ni 5.928086907175234 5.011157741417334 0.9727430871374029 -1.6357404591957763 0.5046808110875437 -1.2311231264907376
Ni 9.394877878307485 6.526014847111005 11.033407305606984 -0.8489448395155056 -1.9799998596380481 0.3446769475956645
Ni 4.493424919344947 8.198256830625542 10.775263655490491 0.13176800857463755 0.30088309033916566 -0.21261634748127253
Ni 2.376897004667046 0.8182345027724955 12.920655912510071 -2.3715482749742707 1.1169949424850505 -0.8619278820387348
Ni 5.193230804735169 6.9359880723670795 12.868627267069723 -0.042111070237437154 -1.5691121205432654 0.40688658835518954
Ni 0.24838269014479866 1.0807949227439524 8.335391496249752 -0.8539317512071358 0.6888846688643943 0.6330919873748064
Ni 4.431566172263293 4.237231986200509 3.241315377075155 -0.897368482234532 1.0409753924256266 -0.12752903079262554
Ni 4.849974681212319 2.0251318463369885 4.0467402331904285 -0.9389064535773185 -0.9916883732650403 0.24756458142168333
Ni 5.757684957688304 1.2757283366100602 11.398764794294298 -0.198395061675568 -0.42634829662422696 -0.5192939330150282
Ni 8.142058481562984 2.2091040008468985 9.985382768593457 -0.16550011071976015 0.399459442653183 1.0598773715364522
P 6.015297599782157 5.1591485710599265 11.830196828131887 -0.4949108761849734 0.4900232090753689 1.2124065239178412
Ni 0.19898327192765333 3.444260005727248 6.721426721330845 -0.3013088650226746 -0.021671571436162676 0.9430150764290534
P 2.5785509888196705 8.533345018244615 1.0575679311981658 0.5200482946825495 0.4123982622020381 -0.02395651081559745
Ni 2.598113471875896 7.446825165256593 11.901829441630229 -0.1793377879338008 0.4937248262966723 -1.0847517661806287
P 5.323401521395819 2.9687865721231628 1.6534455901576388 0.5739419593772115 -0.5787645775768355 0.10700237159418345
P 1.2538980067904837 9.014156188742929 11.124672465720092 0.051330274842859985 -0.17528392957940134 0.7443276803240472
P 3.435022678666768 6.847578924153508 8.556876233136705 -0.029126742162627253 0.14948419490747802 0.35450087566462174
Ni 7.302153135755489 7.1930107055468895 5.080178643582109 0.21323778311535532 0.6765091780181768 -0.6826487152570114
Ni 3.313748190163167 4.222804424474312 1.1588752274060659 -0.3704941657690845 -0.45796309531603063 0.6296485089108963
Ni 5.604568425604967 7.78771203423399 6.5518895036585585 -0.6740913126053035 0.5743913882098043 -0.4416088223277233
Ni 1.4849510288631373 7.670530732571559 2.6499005824170574 0.3849496790727822 0.514122673226734 -1.458803053173352
Ni 7.60267970745666 2.3523655402878685 5.4941233663408315 0.499296921067811 -1.0176822262256409 -0.873011393546406
Ni 4.163978691966407 8.730020802185004 2.719023814252861 -0.5126705141612397 -0.5455518382702926 -0.06587551964688654
Ni 3.725989262182592 3.8535141576193315 5.432610327607249 0.03194852788213852 -0.4619092244479723 1.2279997503704077
Ni 5.872506223694565 1.0581164551104398 6.444905215430855 -1.5428220764984848 0.29083239097138297 0.21916777544654512
Ni 1.1517711513254216 2.001448519771747 11.006151659444999 0.4696945248203459 -0.3606375846899789 -0.6848287536274658
Ni 9.208508812584276 2.266546899962515 13.020137868640152 -1.1459669042373686 -1.1620332136716116 1.1210734834297982
Ni 7.3359311460844285 6.277574999852659 7.210539501627523 0.4756949653781549 -0.17528212980718846 1.5607508930627636
Ni 5.768452620369581 5.2599202498005475 5.738477401869433 -0.48829825596446225 0.10940661016030191 -1.296157895403884
Ni 1.0885387897407617 8.60603596023252 7.236675052741755 0.5930910215018366 -0.3996594744791311 -1.4346444536492775
Ni 2.4127400461951343 0.7263304736321496 9.550848578512502 -0.5520271615819912 -0.7645890016762446 -0.38918094354531035
Ni 3.6775347801168428 8.872222169358555 5.156493530946735 0.5460840566246788 -0.019100211164560652 0.5043941330850603
Ni 7.1998511213940715 0.4428127526561138 9.037070659942058 -1.4655835664302952 -1.3010357923214753 0.3389981520433323
Ni 1.9961476584346454 4.8992865199812865 7.770327974715081 -0.019182229355405676 0.2569120840748543 0.07413750254536264
Ni 6.688046045129956 5.801069050649 3.1551104652888893 0.11042271012964208 2.1377522080915896 0.08915505900011743
Ni 3.860824736819891 4.989226003815657 12.350451016422877 -0.1348728727522064 -0.1067311202106678 -0.38684843875739183
Ni 2.262232459778579 3.258149068903933 3.6705883470429193 -0.4107452999796474 -0.6709697362571864 -0.31515322710493465
Ni 6.2989812607652675 7.6189694848178044 1.4284936290117574 -0.2685211290686924 0.11940614457517498 -0.8290622416589657
Ni 6.970586563842109 3.816620162713105 7.136774559038275 -0.4053243860743922 -0.1406966785228351 1.4182521283341831
Ni 3.371919381532055 8.697727033030453 7.64218725747431 -0.8889028679656819 -0.7602834323223552 -2.096055342573435
Ni 3.5252387291795952 6.45096386946693 6.004271808200986 -0.4904440986628714 0.5686290318047305 -0.7450697006963942
Ni 4.38289965574406 5.165094754646763 7.763837876660613 1.2786322278152946 -0.5536459281323369 -0.5820111095385913
P 6.427861332926449 8.691200059418858 12.468297000002533 0.4111579620370338 0.717384833186616 0.8697247523753344
Ni 7.717445660127229 3.847254531796911 1.0366189271939406 1.8536723053526913 -0.7497192836532637 -0.692453102941943
P 7.914407229635358 7.232817869466201 9.19986057254891 -0.06822242261250831 0.3981710628590626 -1.1728814692400251
Ni 0.42688619953267626 8.45642260607631 4.554432762945881 -1.6318192697644995 2.5295875585406113 1.7515362607118738
P 4.805659480434151 7.140094281068692 4.213726584198409 1.1417927182550207 -0.6021775571841371 0.1510011457726367
P 0.3063353938377054 1.4645496268822578 3.6649353241352487 -0.3477704989193237 0.5098854952169348 0.3962147104636402
P 0.48168051175759863 3.2558720032512998 9.038514338003607 1.2593944626316054 -0.44938229562555515 -0.40293660256850605
Ni 6.535547178628506 3.6699015397914168 3.522586454733188 1.7376055095633949 -2.132445965387327 0.5171419196690319
