# total energy = -381179.6462826052 ev
CRYSTAL
PRIMVEC
9.08474028317989 0.00000000000000 0.00000000000000

0.00000000000000 9.08474028317989 0.00000000000000

0.00000000000000 0.00000000000000 13.29643570406275

PRIMCOORD
 96 1
Ni 1.034479368135391 4.662870101050702 8.82763661481987 1.075778873258057 -0.7216402660288604 -0.41588416386810956
Ni 6.617061314201659 8.264151969168294 12.65255571583037 -1.7828813506820587 0.8444860324132036 0.3180140935924975
Ni 5.9522127711415695 1.4941490534687933 11.60753532362501 -0.06830752612714687 0.21117987214506212 0.9081591450921328
Ni 1.3047231352726834 -0.046356703888508474 9.898677519945345 1.0720543732186183 -0.09845962423049495 0.9175259310190135
Ni 0.8445692332858902 8.775895385406693 7.704792704047765 0.1741888967430097 0.029978291529645144 -1.8443032054329656
Ni 2.0414047192025935 3.910699035056412 10.867854866950552 0.19217119225304322 -1.4322083334039593 0.9665519832087289
Ni 3.1859638845075335 2.3944013849465886 12.713479800651566 1.1163832770429805 -0.025496087388575447 -0.23978390903499996
Ni 8.040603766729483 0.24757734030408074 11.340024246344 0.3799208583996231 2.4016985733054055 -1.3705337392122976
Ni 5.964495339910509 5.185106392235938 5.32091417369072 -0.3193122435786307 -1.116022294159136 -1.3725106604330104
Ni 2.1260199895531073 2.728765248512261 7.014281586831983 1.2338996607946104 -0.9695907700350528 0.06155580922561011
Ni 3.5051925708771607 3.4910385456241975 8.845706163104943 -0.5706152089968236 -0.6236421548158163 -0.6860335725688443
Ni 0.790988343979438 1.8620446931632764 11.508304523218674 0.35092729938075046 -0.22430175423900078 1.8072389535908164
Ni 6.841517990661843 2.1700264711483284 6.861506236080052 -2.3812423623335826 0.30608160382096966 0.26445210120564133
Ni 8.617512024520838 3.208821090885233 4.5266916621952005 1.0811105698836154 1.5696569373031417 -0.403110409142209
Ni 2.70340973857579 7.195241435622934 11.065134543061417 0.4305268534819488 0.1280129124075795 0.4813930442041968
Ni 1.1290060900590648 3.4808908908054814 0.4068882531657566 0.6712389307581731 0.5097338001304189 0.26367717071282976
Ni 3.8720434654470672 1.7974703597242112 4.781890191064564 0.21766522275908964 -0.3325855636487692 0.12861815009174624
Ni 7.8104327886748734 5.145705873929069 9.77611165582607 0.766801435946531 -0.9844028953472207 -0.1382605582775167
Ni 6.550070439865746 7.151334886170065 6.291567790980656 0.5804555921260132 0.3486675568122963 0.37247597208580363
Ni 4.706658548880793 0.6784938228610844 0.6092535668482566 0.973447938997614 -0.5464524957076912 -0.19877944159818026
Ni 5.916582420023391 8.793465272980013 7.777430652900522 0.06632623403105996 1.08648237571849 1.1694572740498248
Ni 0.5970373166828781 5.056866199379179 2.5153401720935875 0.5414133906218869 -1.9496778116157392 -0.7367704368020794
Ni 8.129343509137021 6.381303220915618 11.950504253121109 -1.1581274508593022 -0.9848502672972844 -2.082465519704143
Ni 6.582675572492758 4.267120647860977 11.704306884855491 -0.47369053335361644 0.4094499782069916 -0.18666774593631077
P 8.289898122933954 3.366305062489931 8.202212210391206 -0.324293498843306 -0.14708124189294022 0.5964247138607599
Ni 8.073426933121624 7.022522354679841 0.7260933192108286 2.745096139968014 -0.30776901882572155 2.154669038451586
P 2.7780499641716485 0.6408484763635044 8.300392814828834 -0.6761656786358291 0.48248036373110453 -0.27961235388584743
Ni 8.959298120841112 8.210842713594232 4.716232048118003 -0.6144016100541548 0.7983594132584702 2.881012109272754
P 8.831793791941665 6.7342817171791856 2.937966829205579 -2.490040392375608 2.6452645750906574 1.2034593420268822
P 5.854579068064807 2.8899557941241536 4.7988432247773725 -0.12398245109194776 0.3468826969977316 0.5523503492493649
P 2.826735086976931 5.205192752848456 7.144081629583437 -0.7987674473301662 -0.41686066884876594 -0.13619236289457837
Ni 8.22566900962301 0.7229790702655682 8.802160277838556 -1.6851244089455428 0.1093680436128826 -0.3157723487461723
Ni 7.37493759705016 1.3028335093082313 4.35870482242943 1.3041488840291604 0.18861124281592678 0.924385120032692
Ni 5.606129592700209 4.5545527434826125 9.034502508804243 0.57427080347154 -1.6263669884006766 0.6075925575521214
Ni 6.2118001380081775 3.05355379589268 2.5844278044708253 -0.5744260981024817 -1.7213610226800742 0.7120127702414254
Ni 0.8736894595669228 5.873402649787618 10.594745772749855 0.5335632984498488 1.16984808173034 0.78766568099005
Ni 1.950593656026328 0.45464582399521947 5.601016700907932 -0.701198967455373 -0.25096743645564523 0.008050381108302265
Ni 3.8025361180719566 5.29844761114221 10.19243622865181 -0.8994870712394315 0.2965952615970892 0.2438737628336574
Ni 1.9541730436705302 3.2732500684808787 2.8792630548926144 -0.3532353786886368 -0.5722139209425113 -0.5238275592193237
Ni 3.2335406690067434 1.577101816360198 10.357564100672326 -0.6607902246210232 -0.7465097755770305 -0.29396373751151306
Ni 1.9507935203110294 4.644691535883063 4.866110275215782 -0.31613513140222976 0.725196615921551 0.1689315049988123
Ni -0.0955006060745838 1.9412272888659907 6.492609458014018 1.807373936506784 -1.1652136682821224 0.11219008644271002
Ni 1.2443368670721395 7.758904142182699 1.4369188240184927 -0.2996291633274066 0.21593127078711846 -0.3072928505202514
Ni 3.669735385627914 6.329338506893184 5.043829597172502 -0.10944286271487604 -0.0699031527490409 1.439735752129256
Ni 8.649390377930754 0.28512729702941675 0.3061194062412412 -0.8269130565264468 1.0024384126926928 0.9284891148987365
Ni 8.59460939444207 8.940147488470608 2.6893501946210496 -1.7014776534925857 0.33926374699989315 -1.6393544017992798
Ni 1.0050993182842463 2.1895041541665274 9.304313842307362 0.40168653221148887 1.0687726171435528 -2.029304105189815
Ni 6.2862586687997615 7.603509660827154 1.7693303769122382 -2.230367200615849 0.21654473600140123 -0.666032446856569
Ni 3.384392780255432 4.81071516328865 12.78399101182029 0.6014563627473964 0.2254422956013472 -1.091334561604469
Ni 5.472447640455436 5.178265582855013 1.3582976652609862 -0.8278250268177549 -0.60794197047174 0.34380534362398857
Ni 6.497815014156474 6.713214204623587 8.784662159712926 0.6327376893591813 2.4542778900640183 2.0711380105064654
Ni 5.278570199554608 6.6154987388849005 11.221606474606306 1.035877409077429 0.7787110428999234 -0.8727835938063161
Ni 1.7654920741719449 7.274051556976887 3.8056521839652597 0.6936280970866506 -0.3987940411550422 -0.47038666579136407
Ni 4.622597447683316 6.298305034323144 7.739163910172324 -1.1173623531267982 -0.256521533504655 -1.3152493648176962
Ni 3.9660432724383456 4.09759939547311 3.79021539339412 1.2520331371705276 -0.7021973268129004 -0.1982017147178393
Ni 3.666437624930336 8.34801320608107 6.476295081538233 0.8306257294913437 -0.494747868244548 1.237532372451191
P 7.750618859107793 8.97698611003721 6.646822014667758 1.1375084890573701 0.7630226856303891 -0.5590632424931662
Ni 1.1157696235676864 5.975406112907177 13.024137943103577 0.8159624710522142 -0.1589761935583133 0.5302535173503254
P 3.3662959777497172 3.7421498498714123 1.3620732832938047 1.724203634335192 -2.6020034504091774 -0.6742664047305872
Ni 7.8785774250179275 2.516391276536314 12.936541061014923 0.9308128779359067 -0.866076614099786 -0.872767138746084
P 2.627306869805525 8.498810808888477 13.197682826932096 -0.28608742008722987 0.94344830731173 -0.6889738861440908
P 0.11218927384717282 4.255201468700586 11.976312183120221 -1.0167157485473135 -0.22406598407911088 -0.5163438492477688
P 1.6371701186532621 2.4624279196668644 4.8713885092799485 -0.7539382068306177 -0.12363586638580643 0.32116420918570493
Ni 5.67137619691509 0.11849408355548899 5.450329023457112 -0.5588796657274504 0.355999057476703 0.012187543205127398
Ni 4.472472115651724 3.660350848987149 6.574422994482623 0.4406659987984798 2.592806871511573 -0.7628617345724925
Ni 2.277090134566925 6.972874249411905 8.527429557509713 0.09280396860661436 -0.6690912882875509 0.4801208623599925
Ni 3.4822445170973246 7.947194467852095 2.14758716282046 1.0681884625053089 0.9791365047419588 0.005813264247667408
Ni 7.02849102900025 5.149539634299255 7.271900290494279 1.4156658556642456 -2.3103657899276793 0.1952889119464185
Ni 5.759470922767455 3.106218034911569 0.3392387351643499 -1.754974339859145 -1.1457910407811365 -0.4937641641750399
Ni 3.620287144644679 1.5034427427074206 2.4770861480016886 0.3413594531866573 0.6851498844123103 -0.6665860053671938
Ni 5.554973420556797 1.8601914061596792 9.307478057323797 0.1931602956391899 -0.16155835246319272 -0.8421165037397624
Ni 8.618620362826912 7.557995112356457 9.842992604805398 -0.9123904095646609 0.4538274758811023 0.3150035889009479
Ni 8.923685939203363 6.640854248821371 7.821575222546992 -0.5134834969808382 -0.8928250858382236 -1.0255446596928532
Ni 4.151762616627262 8.368653735846625 9.291389890879335 0.24469831561748182 -0.26660977097859245 0.7104549388360022
Ni 6.598773732151456 7.427111260097507 3.9629626370318762 2.3912105292898884 -0.2715637725497581 1.356044801567503
Ni 2.822556106478624 5.663844947277922 1.6705774338411454 -0.5706429769109657 1.1548811760078628 1.3066022306656595
Ni 0.7336890705035133 8.278787485652584 11.99508670724588 1.9560387208367602 -1.9527569647616951 1.02712151726167
Ni 1.7221760328329656 1.181824769661587 0.7237621748719901 -0.32018179066777763 -0.5920700364364899 1.0675480007078324
Ni 8.848055476924209 2.4757734030408076 2.0901734216178425 -0.694412540661159 -0.4946820480036191 0.28994124661568127
Ni 1.4884074976537274 0.8907342491558894 3.2814535888938607 0.05006966296288151 -0.3707926708461098 -0.16389651367806612
Ni 4.33124982902957 1.6000771243606757 7.1647176169788835 0.015053037678380529 -2.1264216135701184 0.7423595008540828
Ni 8.526991673031413 5.875028818285873 5.182405498970402 0.053206408819650296 -0.31400574376405277 -0.2959116052665033
Ni 5.042775767307711 6.046049052809002 3.36406476555323 -0.5297894332297135 0.7548236947593646 -1.5979028195227125
Ni 7.779226706040772 2.513620430771132 10.281960892613814 0.20196015331900702 1.0648714823169338 0.03972251540060256
Ni 0.5777113488262484 4.3372820965314745 6.709767454186505 -1.9443756826765353 0.9535509429633706 -1.2197652782757575
Ni 4.066547753422642 7.032806280601763 0.06293908020059708 1.3059959645402284 -0.7343955088119997 -0.1993563971475728
Ni 1.6243152112508596 7.001899994394715 6.215844664351323 -0.4618775998790884 -1.0010479601030695 -0.39699144072866466
Ni 4.2776044380676 8.86783295636946 11.707205825457686 -0.21403122555092818 0.30604149461165353 -0.0784088762272069
P 6.230978024599324 6.213707933453057 13.075289572876883 0.3166673497566159 -0.8463135725402456 -0.23334843782230136
Ni 5.842187482413303 0.3404996971060131 3.1166309641445253 -2.228617307804278 0.6722054084365003 -1.6132620755876022
P 3.8386297909410345 8.416303198267544 4.160946380509303 0.20793616839678383 0.8168762411157352 1.3827765611353928
Ni 7.299352558472075 4.814131025609007 3.2724388011797942 0.48980132287255 1.9838683414545188 0.3543944319937445
P 4.574829883639618 3.1130588442924942 11.006948598940632 0.27185867808235764 1.659121300013562 0.01984274575754002
P 7.055808842822882 1.2311912479828981 1.51155178182218 -0.5096124440612062 0.15334599185572945 -0.5960012531700961
P 6.467244863337333 8.75082150241685 10.120103527070235 -1.5334717456318363 -0.38056414841057684 -1.0445618242253043
Ni 7.867230584491001 4.491895290228641 0.9082832418267169 -0.1129102524381862 0.7970008423480467 -0.43297274391928015
