# total energy = -381163.89367969753 ev
CRYSTAL
PRIMVEC
9.26328455396954 0.00000000000000 0.00000000000000
0.00000000000000 9.26328455396954 0.00000000000000
0.00000000000000 0.00000000000000 13.55775329189420
PRIMCOORD
 96 1
Ni 7.922387104270544 6.878646511536192 0.3424738214159396 -0.7970733474571949 0.1521781967998734 1.879285377935105
Ni 2.576369557004013 0.10848788396598746 1.3245616971411702 1.736150779394739 0.322421992852206 0.7094838331719845
Ni 5.515276283547358 7.629167093421525 6.184016883636411 0.35703624049196575 -0.32735516848776525 -0.41666603633945665
Ni 1.209525597288749 3.538343136540529 0.3780216760830626 0.487549807834212 -1.4008838122590648 -0.8271429131490659
Ni 3.8012999965888987 1.5642630811916733 13.159494361793154 -0.7563774123997297 -0.002520452429008562 0.7553937083302217
Ni 1.193351902370496 9.0072196275074 6.2505448673325175 -0.8319688737827995 0.220759031193065 0.19316338096298344
Ni 4.851737944091806 8.380780742890108 0.8962885547393563 -0.22893076837057993 -1.1546310076702695 -1.0197766468608245
Ni 0.5735140343618801 3.9178135903356273 2.631803831058596 0.11221811146716802 2.043154637919662 0.20210439220635518
Ni 1.0616650484427255 5.290650895189557 12.092702085322221 -1.0826270065281418 -0.5314598789536009 1.10786855470375
Ni 6.555700620393546 8.556653464378055 8.133567761354376 -1.4114304774266595 -0.9796162725918548 1.0286847479837316
Ni 1.921446072230004 4.8648177019523855 9.863848355544002 -1.0365081006828922 -1.397680731940735 1.4747608620541892
Ni 2.5180293905692137 3.223919467233388 7.857003136223009 -0.3350947032238681 2.2116277152248167 2.636320735633808
Ni 8.874032121473812 1.9594996453824576 1.354748889008068 -1.018886016725755 -0.44640547238541833 -0.6171784014683436
Ni 1.6489758188935209 1.9125255291565344 2.4104196659836674 0.458829557081384 -0.8979672921607954 -0.8384927909442462
Ni 3.726536026551544 9.20719541553446 6.523692266773539 -0.0017437221639840937 1.0522990449685619 -0.50514926608353
Ni 3.328909534932977 2.432834962067968 6.155721254485611 1.637070747971426 -1.6813382024302332 -3.135381372321097
Ni 6.863871572593115 6.37530741601894 4.831034503002289 1.1293053844212875 1.4384448012319742 -0.08385318717122978
Ni 3.5319051537408805 6.126773490098703 5.651061214583854 -1.519332478016977 1.6878528636202994 -1.2130022485203111
Ni 6.710536422546239 3.221029322436999 1.849968715570081 0.908541725242532 -2.9250224534154334 -0.1549308198443461
Ni 5.41806737491497 4.861779344602336 5.618997281256225 -0.2541892858270525 -1.360637306034192 0.41984829072218016
Ni 4.3571341259559455 5.549087272351267 3.263798833781253 0.5431103187083357 0.05613309554814203 1.7052438054032375
Ni 5.905797835874803 7.687136728472172 10.24625897587235 -0.05346249069451438 0.31112893643689 0.3501564826529969
Ni 5.6366531017110875 3.45301902205483 8.005337965240747 -0.7752976463430002 1.8368984283284624 0.3098315577817051
Ni 4.766682464859617 1.1806519391786718 1.955312640741535 -0.3396095603750861 0.7317845535517139 -1.4344140828060263
P 4.57041199067408 1.6280593222581166 7.909593581904222 -1.1040936610423502 -0.6931267319701999 0.07986077818238504
Ni 5.464550537056891 5.049249698414253 1.3737256538474343 0.3038833106180702 0.690927667436352 0.22157432800550872
P 8.452135824193261 3.9592760522222834 0.6718910431828085 -1.1996150285801277 0.8489504959424605 -0.05233789017176793
Ni 8.572864212434725 8.830309418143827 4.457992768722235 -0.7548193238839903 0.16568111638231467 0.5956880928050515
P 4.0745205759782905 6.088117803447002 0.17842846171013813 -0.8373046841734161 1.5025470310285218 -0.8117959983793503
P 9.089449804935427 8.237033092408177 1.5512917037609577 0.1731763963180953 0.040655825848149335 0.6227216998840759
P 5.802808637649637 1.226162456437193 13.095691636427489 1.5936260465242296 -0.7759897873140185 0.8141680981559527
Ni 5.85663758448238 3.5147310240854157 13.30018327569891 -2.240049975121252 -2.2490817463062167 -0.5818879536971656
Ni 4.522122488034416 4.092574717671117 11.262194893539904 0.2635524722095074 0.27165967469767405 -0.10912276037129594
Ni 2.642685411482692 5.289076136806909 1.4909867946616908 0.7520651581776209 -1.3783416652924907 1.9845507122335242
Ni 8.745726366426432 6.540166092112955 3.186885781715814 -0.25834007477063253 0.3839814016222419 -0.37083380849669034
Ni 3.7136322710984353 0.9147789971370225 4.040020398799858 -0.029067092569285424 -0.2587936173682833 0.44129823306583993
Ni 7.785549864103055 1.6329966529519477 12.321760881691407 0.19717198790174428 0.609727087396621 0.4413776801535237
Ni 6.4097483081759075 6.132896521221822 8.646185889059266 0.14449214100952534 -1.5733253872936646 -1.1502904713133868
Ni 0.9785826488311486 6.555691357108942 6.044032905689007 1.02563053453844 0.458469602638804 -1.0376399002944903
Ni 7.818944005099793 3.9090505231004227 9.4519369527379 -0.14571727166587808 -0.1857202944213769 -0.25840435234966463
Ni 1.3154327301641149 8.612242435285523 3.2891654123403273 -1.9214082752470842 0.38896522799007854 -1.289799557286024
Ni 7.086338615638229 0.2811684775794612 1.3808166982116514 0.2892023115671277 -0.05327300039152761 0.030391724917979916
Ni 8.35190708478003 6.778741987084096 7.142373150535139 -0.9318436331932662 0.610091155604259 0.615923703125636
Ni 1.7406638099020375 4.17022883250486 5.752026385123087 2.1562777776996027 -0.9255973951732381 0.4751768880911558
Ni 3.4431258340979607 2.1582712064110243 10.02083416605324 0.5835851388939304 1.0070219182983173 0.21802800541514708
Ni 0.14898881691076787 3.166959530204557 11.437090338502149 1.0292190232206468 -0.38790593348762875 -0.38721584939913956
Ni 6.830208796342868 1.4778922155457441 7.7161919469604845 -0.5892299958845336 0.4085572911893932 0.6607686273544684
Ni 8.591501941057592 2.3863888530644624 3.639592689917099 -1.8890452855353468 -1.0898487210875618 1.0810329225681445
Ni 4.653929764662036 8.099102784657438 12.121187611807398 -2.2098711375450266 1.8436298335150252 -0.5861996936986421
Ni 6.873635074565531 8.683328881335164 12.414671626267626 0.3535040589689912 0.557359372428182 0.3309122897114043
Ni 4.231857464974013 7.605064026882411 8.106763521024789 -0.6091110510791767 -0.29452680910383466 1.85262175260099
Ni 3.5225214464372208 3.183670495629831 1.7506042406103866 0.4285746148515845 -0.11249656193953528 -0.11333885533517254
Ni 3.2336829692058044 4.109267156527183 13.082174651533608 0.5631214717229399 -0.2260686163314365 -0.3270980581716367
Ni 2.2511819509872435 7.281886553624669 0.5662006711671717 0.35530717361600095 1.4694294225389468 -2.1259220482258807
Ni 5.31635650996513 0.5132535890287114 9.851023338010027 -0.9084262827105903 1.506212395695251 -0.5688725152741042
Ni 1.3614805179296572 1.2525906074118645 4.5310421047794245 -0.0989177948138361 1.3393480576381127 1.323189188490063
P 4.169663772144028 5.397493619809906 7.495106059649799 4.631497303012295 -1.406510671527539 -0.6634919398229024
Ni 1.6567199248223066 5.605380252888623 3.972868996049915 0.9965045637067611 0.27681679341858134 -1.2818759315635728
P 2.6723927652071127 8.191003831211843 4.8700672053373655 0.8235605951144462 -0.4705342471128219 0.3146760303582
Ni 5.18252983729388 8.20332399973491 3.2014059803322867 0.017158514057157546 0.8272367584144527 1.4995797208700818
P 8.94943525814883 8.925221032194468 11.34442321831101 -0.005420399684622923 0.9469187823588336 0.2502598688656594
P 2.61598862525451 3.2712548515588598 3.786341644610665 0.450133829079599 0.20028302272690024 1.084756394166319
P 3.1684416557411663 8.595383257306587 9.984674934602264 0.3703121316652655 -0.2296159673630626 -0.8540875600587097
Ni 7.487235046721941 4.408415669522641 12.28698558496024 1.8842252384388838 1.4213515931951133 -1.3088043805233007
Ni 7.136851306582808 4.5895591999501555 3.4909725517335626 0.07543616675212815 0.45220331001411795 0.5560918185696682
Ni 6.085079446096952 2.8047651021955655 10.442411806343419 0.552870226308577 -1.1836209671447162 0.09055373911985695
Ni 5.0240072478688695 3.346704304656897 3.678909775089512 -0.06950051799398353 -1.5214798633772828 0.5453916585433446
Ni 9.111561265284722 2.4984931233397774 5.936966935909704 0.48164218410052534 0.07889250073184478 1.0979844628208189
Ni 8.436795824889352 8.058464755100522 9.367838370805284 0.561432256945975 0.8395418010340508 0.40371718948827245
Ni 1.5027919245607868 7.136212139945144 10.837389924893758 -2.4019379430097216 1.9736998855619492 -2.140834703671655
Ni 5.92025782314135 6.459547726205992 12.823654904810466 0.9653029412929762 -1.745878033984832 -0.15819046443222434
Ni 8.219368008668711 6.88338004996874 11.704923391565965 0.9553059779812645 -0.7308586993033349 -1.3743901368439104
Ni 7.927305908395168 1.2423546779246537 9.916777837441714 0.19094297627289697 -0.12117429221919129 0.9948649712208093
Ni 0.5389934779573198 4.787163587118643 7.74946288627199 -3.1654026012735357 -2.8420730090053956 -1.7321547708614684
Ni 9.067449504001376 4.687712963612133 4.988683564689159 -2.7661776432286618 0.4088866495043539 -0.5170287911299354
Ni 4.070018619660838 5.549439277166211 9.592137691545032 1.528090169604949 0.6709653653818122 -0.31378411467154993
Ni 2.254146202060463 0.9232789870894791 8.330357905806187 0.9828568910163396 -0.4203936217026889 -1.8088155540493172
Ni 0.7632798300986219 0.3077615150200804 0.10906035495450295 -1.149841042480794 -0.053107421347940796 -1.1899253120961895
Ni 2.4571325575837637 8.95395574103549 11.996564938718494 0.30962998329386027 -0.1707374478592995 1.9212457815272912
Ni 8.984950691319838 5.8966827638246535 9.411168310868067 -0.15867794559160417 0.2588218995030575 1.500581679772035
Ni 7.417741885624155 4.609558631409783 6.7952676868172945 1.2457213360198867 0.9104502551191546 0.9864515503461334
Ni 0.5964258425009451 5.887567691774503 1.0955584804796077 -2.142518776242297 -0.4596852202134599 -0.1790675649915497
Ni 0.6808819872192668 2.768656818809912 9.103082580886854 -0.3833360547287592 0.4636156656161177 0.6489312683999082
Ni 1.5206978536999527 7.869790174290108 8.229013866926657 -0.23705596858087566 0.23111363495451162 1.2906585628522094
Ni 3.1633097960706555 6.132664939106726 11.676479549861503 1.9787569883698823 -0.3290490112504204 1.5434427408016194
Ni 2.304177202205644 5.765310861573412 7.872634928991938 0.393862922402012 2.0310447420300055 -0.22549088945109555
Ni 6.7849576510532525 2.7096589591682423 5.905296692177736 -0.830010721615164 0.6468512459424278 -2.5890723441698054
Ni 9.033138297828861 1.0937901194487403 7.934417331985514 1.0231679319305604 -1.8340002808450606 -1.1768391683361925
P 6.271243676779732 1.158392266275715 3.336074685574024 1.4336666631170407 0.6015849179054608 0.22905932352864422
Ni 2.936646485100016 7.2315683916567695 2.832336342490347 1.2104177756225865 0.6314071434732157 -0.0870171867215082
P 6.411017378166629 6.687026206221768 2.5413191407201143 1.2334175789518693 -1.2103439849618576 0.2510512544187031
Ni 6.391833115752138 0.490119462059155 5.332725660188524 -1.6291586922132009 -0.20397666952840354 -0.19382235470322104
P 6.457204115201228 5.824114192238402 10.817527590046266 0.4185421703162469 -2.800073010424526 -0.5494244338518215
P 2.3258069717555414 2.379348756765566 11.927379318669553 -1.6252485585255172 0.6536315020890548 -0.8851714259477077
P 7.7892737045137865 8.802519564332394 6.573788109910946 2.6659056483797765 0.061927590742732054 -1.3907595793408694
Ni 1.412873220911598 0.8666729075325137 10.38499518938362 -2.2288841883124193 0.2875838021270983 0.8660676152387213
