# total energy = -340857.5241834553 ev
CRYSTAL
PRIMVEC
9.39173724222905 0.00000000000000 0.00000000000000
0.00000000000000 9.39173724222905 0.00000000000000
0.00000000000000 0.00000000000000 13.74575678534675
PRIMCOORD
 96 1
Ni 1.3894417587326842 6.698966399181612 9.643637555440494 -0.1758220614710585 1.4094517564337339 -0.6436646206843302
Ni 0.8943281633826532 1.0137910590321921 11.755989492383238 0.351036314154789 3.2469813905882923 -0.6501785105434479
Ni 5.429851575909768 7.261728676714318 8.45494605512668 1.029731186970375 0.805249198399768 -0.41883193364252386
Ni 0.09975621373590471 7.674993283417672 5.279442906583718 -0.3256052756761941 1.3520950728911358 0.4309143187283547
Ni 3.574504524143882 5.925566242432879 1.2980066240490982 1.6310340548590425 -1.2516109620314444 -0.58339256326715
Ni 1.1154002624938557 3.556030977308769 12.018355181084997 0.5162196649650787 -0.3327534566852011 1.1474265195020303
Ni 4.7901709716970515 3.73561977374041 9.405684748102837 -1.4849087491214685 1.1086943930391553 -0.39129156213040994
Ni 1.9905129318121255 0.34436400596799926 9.790084790066466 -0.6726934038165124 -1.4682976229273488 0.3047934811371654
Ni 0.35606798871630546 2.67319830011126 7.468948902807163 -2.827313591308034 0.1798052144885226 0.15392269029480588
Ni 4.5539218254655935 2.1649738397984333 12.799196411121713 1.3777068599219693 -0.19912114120831514 -1.6105739872324778
Ni 1.0499868137360697 2.9984153716955553 9.846566696861776 -2.7374278247894788 -0.8968848577298941 -1.3295999771124134
Ni 2.6578240265123374 8.491285503407871 2.790031509378576 -0.048802109104367566 0.27710989917896794 0.33002371645886386
Ni 8.184607720818246 7.683971784065546 1.2713491175230247 -1.0100933581347895 1.2862084975006558 0.3639725626004829
Ni 9.115882977871125 -0.0628626529670302 9.73066233039161 -0.2312930979551694 0.04005264504651167 -0.44700685341484303
Ni 7.748145523528856 5.9653684241752325 6.370017051281977 -0.2071103300613788 0.5386209154784143 0.8688796307662197
Ni 7.259052031646699 5.291389196148672 1.1109899027613854 1.3167992258033192 0.8335285049604355 -0.1920323526823338
Ni 8.75685565280111 0.6843016862504931 5.991143107415846 0.27551375833644165 0.24358014285263857 -0.7903113461430131
Ni 2.9551945976563117 5.605815161828774 7.773252454263126 -0.14311968614203094 0.22024738166396904 -0.5681330660049183
Ni 1.4260131829197364 8.31730357401261 11.92044350451148 0.6333107882538319 -1.6187508666163153 0.0004905664831733487
Ni 0.6369438520277887 7.748211265688412 2.5511160489902855 -1.0195089950217346 0.4913432134383731 0.7936314116551816
Ni 6.726916208729806 5.883951455434207 11.592992138676003 0.22743618610292446 -0.5698582762261412 0.06187051225255151
Ni 4.776552952931971 7.768215665667462 3.517099409593672 1.058833246542654 -0.21437523915390824 0.741916242669077
Ni 8.284084999962893 1.5904718909165192 1.9182482108549417 2.8323647805786965 -3.7183175647771187 0.10099627460941962
Ni 4.736177875227775 7.095363446090424 12.351895210069028 -1.0223022414961556 0.14521513521847895 0.947483396613052
P 3.50191578825746 8.966967594740693 12.952475195299217 -0.10260527096775232 0.4007146552165228 -0.1562924760785631
P 8.261638748343207 8.346192557268742 7.320343447000351 1.0600496354482583 -0.6152991821677597 -1.0861108513116844
P 1.0222436224036218 0.5667171380168274 3.8714919124150184 0.4258448746252473 -1.471785581475949 1.063146272095711
P 1.5851561677295978 5.859626856398648 2.1262075666559332 -0.0898932227177226 -0.8297929491774031 0.31922456896083085
P 7.587781612898677 8.598078945737345 3.280066992489794 -0.0497215355948434 -0.15817015271725018 0.006191730633008691
P 9.026360940030605 4.635385752892017 13.029382251894733 -1.120649251408186 1.509489523784626 0.07363305210511835
P 8.188073271800532 7.709986895775391 10.811422109841931 0.9768525938037887 -1.340938284943368 0.1401076387885845
P 6.49507178718857 1.207429894134566 12.785986932919585 0.8930690835282297 0.15428058785485688 -0.18985745651820207
Ni 5.9905758464962515 2.0730850842139135 8.574341330269247 0.5819638012404235 -0.6906890690629847 -0.7713209210834393
Ni 6.476908167677076 1.4778180046495208 3.870749965185748 2.2995357891917108 -1.408086243544775 -1.0815941943882534
Ni 1.4015758830392255 1.2146051812632017 1.8919663738120431 -1.4197099438266323 -0.15703243956838117 0.026339409225477218
Ni 1.1710369129520215 3.7071346351786922 1.4440462572858277 -0.6578982477852089 0.2710027578399655 -0.28004841298200156
Ni 6.20728078786555 8.134465236551508 11.18140301786761 0.881574709735385 1.7567725694101486 -1.9668723211171546
Ni 3.204357382371899 5.77350462738086 3.6716291731501487 0.7272954074321087 0.9672402675250052 -0.6902923478451982
Ni 6.6808591300925935 1.1539345597304957 10.617634885293702 -0.042828665129752044 0.06999571246284719 0.7754102606614646
Ni 7.903231277920431 3.300932614759022 11.056371761303714 -0.12558964767806757 0.6397958817575432 -0.2911141838778599
Ni 8.297524575723466 6.3799103071213805 3.307489925587835 -1.374855506516103 0.36319197568071643 -0.09626827300613097
Ni 8.276346208609494 2.643351359673034 13.345645241347558 -0.26310330048723074 -0.8023045139491471 0.7027783961273509
Ni 8.402317578055033 0.026030138489171555 12.346603905398513 -1.02411101257012 -0.7767382354442687 0.6165325403542284
Ni 3.052652653328895 2.2417512904222527 10.85668746504335 0.5026959194470311 0.5559509221164296 0.1641024590412851
Ni 2.2061847821026928 1.8381883481218841 8.161158431678484 2.6938836216499413 1.9581678513646215 -0.021606008305549887
Ni 6.45817165220374 8.442626913599675 13.557906951904608 0.20806652332706102 -0.514888604858481 -0.3537971647293778
Ni 3.4277961992271018 0.1252050036998635 7.025827024754796 3.1140167906023914 0.5574761005117044 1.6102160896724271
Ni 2.6482068877430662 8.663736579659194 5.144363430518608 -1.471755499568962 -0.4120010267636195 -1.1443795051455905
Ni 1.6249865246831905 1.7624252051026361 5.673272252575031 1.0888187371611506 -0.7050448235640244 0.17396238255450042
Ni 3.3217447041268975 1.1855941054250392 0.8160207987886051 1.4348388290482708 0.6439389573916394 -0.48571841105242797
Ni 7.74676493817819 6.545364539248577 8.722204838846789 1.2974958974890172 0.8033931190276357 0.8531730186642403
Ni 4.234151961387331 0.6850210933107725 2.9943618979721003 0.8442888288007332 1.7008569891894516 0.38258426416439917
Ni 5.369678716442268 5.302640497169752 2.781068974683737 1.1045158361814333 -0.6090300613295963 0.6608262200652812
Ni 3.4590425084901533 7.77180330923178 8.978769251554624 -2.0291593520818343 0.5518525836773399 0.0868678056278375
Ni 1.1427020421835736 5.813147149592864 4.530820969771476 0.39448641491862385 0.8920902645547281 -1.8663385879664502
Ni 1.5188505039492721 5.954351916581136 12.311208326693798 -0.5192648795493057 -0.15238182817024723 0.7552093602335574
P 8.718462231620661 3.900923738074336 2.474772496619533 -0.26547797136699436 0.9897284213251922 0.47551215994338747
P 4.696610486912406 9.361148191698776 5.212500483029411 1.1002472907130665 -1.0810702035639832 -0.4989639632084246
P 5.500590139591555 6.631900004697858 0.4678644093879578 1.3330887069919624 -1.7289210944155193 2.2627595009036257
P 1.7521224695265716 2.020481964832383 13.414181442684235 -0.345555750656192 0.7445071433247048 0.5669354461523913
P 4.367505236177252 3.1666589497353224 2.523885646502371 0.08331968326526296 -0.05856741602124753 -0.010383143006536956
P 3.9635854078678676 1.0884365853389952 9.097436667073541 2.1926637725278044 0.5974739810608808 -0.5544278006036838
P 1.9515747898810731 6.935403380154657 6.253068323648584 0.6512254637507235 -0.7495958707015219 0.43285653005639
P 3.0995268130920124 6.953660917036946 11.131973366445198 -1.434275243235317 -0.7756545154617868 -2.0585102944401257
Ni 6.906223253049067 9.244850311444983 8.607441568431765 -0.6126368048442482 -0.5049896005772141 0.4601742440347365
Ni 3.924741183307609 4.502295446740317 5.429752962670435 0.5635287344636876 0.6660766698309432 -0.467733287328917
Ni 5.052472796586672 7.009663845241207 5.984957709375375 -0.9286670352374975 -0.8053178468541745 -0.18368449493827074
Ni 7.820471290777056 4.073327855640263 8.07809227390632 -0.31046687737285883 -0.615283755548792 0.18714417135209704
Ni 1.2897484696352113 9.461048099011993 7.363505992269703 -3.1911506567719172 -3.0273428461529153 0.018394957567419934
Ni 4.039104365723052 9.188518672442942 10.758721316394775 1.1870240792889946 -0.154960644641017 1.7624727051187195
Ni 2.2938002973161007 4.702790249910628 10.288644213750917 1.9666476067008583 0.734309891076729 0.05297758063829585
Ni 7.032861435827241 8.107689394138236 5.484804507908556 0.15217382592449924 0.29698195551254664 -1.3366257736109433
Ni 1.0494139177742283 4.597499485513853 6.350649411076907 0.4132405555976754 -0.15958374523532518 0.8542366840420642
Ni 8.518981736054922 6.749775696780984 13.009148693530946 0.4718087429498713 0.19862080453312891 -1.001638542499217
Ni 2.1717264987584977 7.4977712047300304 0.6604973894491314 -1.4916933761434696 1.5212055266699736 -1.6740902626185683
Ni 9.08379141227093 5.630759615511571 10.755655853412069 -0.6166610955122928 -0.963107219193238 0.12172785072981616
Ni 2.1346854877174772 3.323134681214644 3.9532798547706793 1.947874439858413 1.0494412638047927 -0.7998791923371062
Ni 6.885918317483476 3.017677824445335 1.9622344114661538 -3.183500596425827 2.406856206246945 1.0122610552100695
Ni 5.953271866817009 0.9624746076305348 1.0570015021606485 0.007336642870729301 1.209213213791524 1.3848856370585956
Ni 0.040218235694970184 2.498577732594603 4.030077028042365 -1.769157573338063 -0.7011963963522118 -0.16092688952678094
Ni 6.388381653966968 0.8019050179583177 6.308944463402273 -0.6471546361154596 1.2558476258206113 0.5447262570452038
Ni 3.2071561200215495 3.4963089212210785 0.30980335268963927 -1.1182061891843322 0.12434986173369551 1.8109421134740167
Ni 4.323880617443597 8.672067050448591 1.2267731158232287 1.4826425787951112 -3.5140745289612063 -1.1051352149329872
Ni 5.853400134715028 3.6676235972857985 6.4689590014131 1.0450477627227872 -0.06402741069455425 0.5313480359660849
Ni 5.441779082000563 3.9621296886205664 0.5943513851991548 -1.334827801170256 0.49835692575204493 -0.8640351581897249
Ni 8.595449259355123 4.669242965063132 4.659907578406242 -0.5922194175301607 -2.4201868619175806 0.42198873410395066
Ni 4.648506009591891 2.1060031226770923 4.799289409227408 -2.038154099381277 1.8793833369655504 1.316026866413669
Ni 3.6703565927758945 4.954197659788185 12.524844987559266 1.0989082601866687 0.3150087311072704 -1.7332891415762277
P 5.9433260172499605 5.324279059400612 8.212251359737651 -0.25654261655057753 -2.0302430720643163 -0.5061411976831541
P 6.4626515107905975 5.12912815462846 4.854506249038127 -1.8789123108664028 1.0668460895448013 -0.7979148695218838
P 8.43159162253142 2.020031161452574 9.286619122931755 -0.7416838149432968 -0.055153762354008234 -0.12668930850014953
P 2.8865597830803025 3.2885449135513376 6.683956524981369 -0.3360573242474535 0.1070856753366091 0.3059175674392796
P 8.034499587078733 2.771952415500796 5.915225000734789 -0.5941899109929701 0.09416871016462491 0.22672219075503536
P 0.3495933251737904 5.0919274840570905 8.397529670491974 0.4036786229408531 -0.03675983322785282 1.022799235737232
P 5.752777063646698 4.044955417923497 11.230503019318535 -0.5393652498436066 -0.7319758436269136 1.0759953601442371
P 0.7105083893967568 9.158812608060908 0.17174200010183133 -1.4560326895170665 -0.6376906624890825 0.48126526037708084
