# total energy = -340869.1964676521 ev
CRYSTAL
PRIMVEC
9.28250937364147 0.00000000000000 0.00000000000000
0.00000000000000 9.28250937364147 0.00000000000000
0.00000000000000 0.00000000000000 13.58589075874946
PRIMCOORD
 96 1
Ni 8.060457479377751 2.8708851265614075 8.632719523066289 0.3280493663413125 -0.08193000200658793 1.2760307856367057
Ni 6.49887025891888 1.4652533411995146 11.020181787365214 0.8823558108757835 1.0657579986869452 -0.14714731924418528
Ni 3.360825238450794 6.065423497306275 2.641572806937265 -0.25094738185098714 0.38910432467110406 0.19406223862816901
Ni 4.58741598862725 4.901693898637273 4.2278477885522525 -1.2548130139085099 0.1400852701910813 0.7971898184304013
Ni 0.9563490632543499 6.838238790979205 3.1975069171494876 0.723475005244754 0.33798333762557276 -1.053124883303967
Ni 8.939733869719166 0.7424373544491708 11.605814357136346 0.1123248122483614 -0.8460225236623883 1.3578841687690872
Ni 6.522290029334313 2.6473530253430084 1.3141628691127343 1.8573073310021173 -0.1049038371939419 -0.033366748385903824
Ni 3.9362386939728795 4.359966668575989 7.531379524443344 0.19910751436156032 0.41330663294892045 0.30947108911849286
Ni 6.7080608836046425 0.2500280951438091 4.0394249214370195 0.18458489526535307 1.9668548376156576 -1.1392594103102056
Ni 6.4631975765144 4.813277999625385 8.033758198503431 -0.4894771067639119 -0.9145277676226379 0.18780005976854106
Ni 5.549715140203555 0.7758840911756413 13.251568872199991 0.29081850701431206 -0.27459998827292065 -0.5450957245694806
Ni 1.2451000732871866 4.4751904538184615 5.741791602893704 -0.7045295744905028 0.3708127254507679 -0.24701385112453592
Ni 1.1832692802879028 2.610102316394483 1.3835059967125767 0.4361228595124876 0.9447616268065149 0.5205658577489164
Ni 2.970532861563256 5.073086146338636 14.009091232159317 1.8606227685285954 -1.1424120970065745 -1.939064297765951
Ni 6.68126227988314 7.617913858864186 9.709672513827394 -0.3871191759202752 -0.38376234363290035 -2.9708459395074516
Ni 6.642712019663049 5.8854634937216606 11.344300085253712 1.2300923712333782 -0.8256267336148555 0.3475568402466208
Ni 5.814424451712425 0.39907919998513947 6.4384754700746765 1.133819727351873 1.0408710056372785 0.17817539219458348
Ni 4.82121454489102 4.188388770692973 11.056591500990853 -0.761299018071063 0.5927655198416178 -1.0302086408274256
Ni 2.3291114839547107 4.36064429173902 11.290676886785274 0.19793277732716877 0.7224738176737494 1.2599706468500493
Ni 3.849131628741641 8.574467137318353 6.595827922788588 0.051540848191769295 -1.3302376106964122 0.9240557617177312
Ni 0.6076729593368898 6.947725985608623 5.556832968168103 -0.4097644241236169 -0.7108817419607757 1.0862525190958712
Ni 5.1003860055506 7.681164875753109 0.3978279177608033 -0.0023864979543055673 1.1585539968737597 -0.39730048732865125
Ni 8.892151728161693 8.156141583001324 8.657473190036892 1.6137639549246852 -0.8652019248043163 0.9588746691691292
Ni 1.4486469324507205 6.753508048073115 12.379069641739791 -0.3446988019725354 -0.7877448709674175 0.051570930098756344
P 6.89705276852664 2.2015141141051147 7.003512936944218 0.7429595963319269 0.33123444893751347 0.177148750702282
P 0.5701744073958588 1.6939557999769292 3.55929920640068 -0.20632125850118013 1.1709760246871963 0.5903337704716737
P 7.045387263666792 8.209831615535157 5.452846588421041 1.8158143539646534 -2.739514532115179 2.4261834458206475
P 7.524717467674752 1.5737844373934236 13.010242201070223 0.16579861579678543 -1.2451932314305585 1.5039662799735518
P 6.697116805396242 3.909514350324037 10.225026279083158 1.784541769103617 -0.42039336459237275 -0.6721244186869199
P 1.9807853306296648 5.134907656828837 3.9989930966258833 1.5286714960297156 -0.06600253214305407 -1.938376013449675
P 3.499552336690442 2.5232644439266405 11.545683191550088 -0.3897535282193288 -1.2744243603815344 -0.4368242564548864
P 8.17048305953396 5.362598322116246 4.61331975847319 -6.941978535471916e-05 -0.7737292734146158 2.0045909187138506
Ni 7.724272847932762 6.893850302893138 7.241523895829676 -0.8316300023861419 -0.2587051714195351 -1.2786301709327657
Ni 4.312300984436772 0.5899266584727506 4.395538171631469 0.269910038996419 0.1950181747835351 -0.9378368746622237
Ni 0.7098873081000807 2.010925637620909 5.898381961611933 -0.05040416348416481 -0.3173476636530922 -0.4689141950108957
Ni 6.957686117854267 8.755123329084164 1.9355006100701382 1.988475501209227 -2.148204513773165 -1.3662664792955115
Ni 8.381131038145693 5.41949082028358 9.210934439829508 0.6827708426571725 0.10456959378297473 1.1270186452696396
Ni 4.446795258534749 0.47514472066261015 10.8410646356053 -0.9289663116454712 0.35456849567776355 -0.1496708569969874
Ni 0.3675335211187882 4.13235026336124 12.949350797990101 0.861016168857743 0.2599354442822104 1.5122496030282666
Ni 2.519672112911669 2.013478327618627 9.49776025747861 -0.35202413198935506 -0.5778893740607338 0.7590829842563507
Ni 1.9950896771259714 9.674416616080721 2.5435912823157456 0.18918562726215804 -0.10019280487151777 0.5735326397539348
Ni 5.307051787765891 3.1606664951024137 5.901874041528813 0.5153889415336672 -0.42832907449968166 -0.40630860436453253
Ni 0.27379688790074747 2.974886358323001 10.947999140236998 -0.31233272693700403 -0.08867194871611181 -1.861215922027904
Ni 7.393286421574039 3.5439505776325797 12.545822491401664 -0.8360877810471795 1.6646296314263007 -0.6745389416656835
Ni 4.8427314009445155 4.240630731809919 1.8611718468420244 -0.007149723670903816 0.7601911297188649 -0.6679191223563207
Ni 5.200432888443 6.810716151549258 8.051134127255175 -0.6012702148785194 0.2369448969243081 -0.06806712798156664
Ni 9.511601406771694 -0.303648508859522 4.415713705122529 0.49328439632514404 1.4419150191687617 -0.7856591920829824
Ni 7.69644388570309 2.3433044403420253 4.8304636369409355 1.4302972324241754 0.11752126884763632 1.096081589371151
Ni 1.0778106946003387 9.084670966535082 13.894561778596223 0.026496246518315655 1.0378862119773415 -1.9340439617332241
Ni 7.241461703018823 0.5262217268896872 8.80197215242411 -0.8181741339915523 0.8958533311415863 -0.8114944079785315
Ni 8.620424839786368 -0.01944314352444079 6.546185064214774 -0.5121910034216598 0.42464108412513324 0.40873958240352826
Ni 8.667459313307969 7.393147183937798 11.005263867018545 0.7675326576856006 0.026803493346089325 0.5925516040585987
Ni 1.8963423455051363 9.050242140347672 10.947537799535594 -1.048452417528962 0.8328499908361721 -0.5271424825251695
Ni 4.911876811100899 3.268167232788153 13.151331697871399 -0.6356564056678731 -0.40928774159751447 0.6895608689958125
Ni 8.10514347810145 8.536139657316244 13.317745735951755 -0.9187811435823532 -0.005288502092448956 0.020727719465654625
Ni 3.100506553738 2.105059562227685 5.443173285706051 -1.129575093142906 1.038486821675818 0.7669001663079245
P 0.03875447541990848 0.723871408033037 9.595130064751585 1.2978147142810166 1.3737211358013437 -1.0630634825739176
P 3.0028452756798307 8.270251467153884 12.535334184389221 1.1550305571015334 -0.9486373077118372 -0.4041337082004008
P 1.7963604401763136 8.795892108974998 6.276912471240893 -2.224740598457691 0.9348752209307384 -2.050244711997224
P 9.22005636150499 8.141930061595843 1.7652148374514227 -1.1741518513120164 -0.5221941373809587 0.3048652149153653
P 0.5583884056136653 6.2335483018105595 7.679614696736312 -0.8265129928745507 -0.3880846251573381 0.27339825465533557
P 4.084684579222023 6.171522576120539 6.175534476546045 -0.4325433696913454 0.49835692575204493 -0.915866026818087
P 5.47661538117798 5.602746114592523 13.827582906059723 0.5372677438846295 -0.9184913802560761 -0.521562674444547
P 5.144654291365581 9.090156929402907 8.571284164953925 -0.9751497521800692 -0.20439267401989958 0.33576396137675074
Ni 5.253603100468207 0.7190472880628032 2.088749265518626 -1.6396979011816277 1.9043747168035656 0.38452750393369906
Ni 8.02968596176889 7.231028162809966 3.6776326321858277 -1.823635392670969 0.5735020436263155 -0.5715490336650029
Ni 3.460825708797782 0.09869256481724765 0.6498461828519246 -0.10194269768308896 2.490283875844982 0.30015263993104435
Ni 1.5428643996392404 6.74780858749639 9.852582310659667 -1.8297430482306034 -0.8837586047605812 0.8039407640009897
Ni 7.7197151359732 6.20406705296418 0.7190797768445921 -0.23818956796468657 0.17166433054894306 -0.015256926159070497
Ni 1.574833360919759 1.9032856622989305 12.663720567510838 1.2580646880765882 0.1031328613364482 -0.12334481750794886
Ni 6.680213356356804 4.162564830425145 3.4761539160459 2.0865384042219355 3.8724958227261563 -1.2384898512684541
Ni 5.263247627405042 2.843520289785865 8.83381765633383 1.1169111245219927 -0.5841027019602972 0.5796757765371953
Ni 2.8148837492660044 7.912976975073199 4.53613848020399 -1.078308838768762 -0.5551263693326052 -0.7804771336614107
Ni 1.045266217756698 5.198047283608769 1.3775549801397136 -1.0094806642514549 0.9203346041124021 1.08322684489567
Ni 5.759880428342992 6.56846122951123 2.319396409948848 0.40664619020960935 -0.6064263051581621 1.1688476654902837
Ni 4.500420313505003 6.462157935497147 11.957607527603747 -1.4963352457908552 0.2196287742433637 0.4552760354021708
Ni 2.66249279765675 6.412023103941956 7.928345097110372 0.7653330789311207 0.5944907300628406 -1.7624611351544939
Ni 2.3949244733504353 7.297648730495878 0.9632004832082265 -0.205387176722685 -0.14749930326696534 0.5071920075451717
Ni 0.01297787594840097 4.087924174891856 3.29298866207506 0.5211880647139475 -1.1735543269373336 0.5037883811802614
Ni 1.8482682309662846 4.215178091905394 9.052143198207792 -0.8020690008995736 1.1896170368271513 -0.4060846612791846
Ni 5.15143980550497 7.643728516622932 4.693802825223076 -0.010456162336317475 -1.033382153459401 -0.8633134495323518
Ni 2.0135433051822056 8.874292180686746 8.286496786299363 -0.11450073685375764 0.5900522346755128 2.1187139605132153
Ni 8.746082165237699 1.1652612126676338 1.6515959980293338 -1.1677035245835117 -0.9781546004446638 0.1208009680401726
Ni 3.616317018440629 2.8873801452012104 3.245669215524624 -0.42080474109817856 -1.0435680928534674 0.28896525585565713
Ni 3.6155837002231026 7.697065813811625 10.01187759252457 1.3112543847256901 0.6856378797923224 -0.9744727807177024
Ni 8.595659105553958 4.409293921840994 6.869922779230887 -1.0301819013545483 0.5219861351352106 -0.30383857342306386
Ni 3.87787027686141 1.5083705958882512 7.567803161832608 -0.5473456969459218 -0.0686368844421076 0.422811230005246
Ni 6.105199048725272 5.687643942662099 5.859825203635483 1.8359347788636122 -0.3259402904181096 -0.3712973783966702
P 3.322739103684834 2.5971253686969904 1.0344010408754998 0.3462160099480102 -0.15578853985895103 0.05248290039006445
P 4.052381447614531 8.256290573493633 2.596970350795311 -0.2398433015180257 -0.43936373504728854 0.30056864442254044
P 6.7008205265202045 8.257042456729325 11.55473178140382 -0.6359055455642016 1.3121843527391273 3.369424779327894
P 0.05291123002180127 5.226312523765325 11.205044812247262 0.6795855029506555 0.9783538609396634 -0.5154683886213509
P 5.919270391800537 2.417768728202746 3.670853615802796 -3.268321032606332 -3.998022221266456 -0.36113355048979096
P 2.0906902381678005 3.320260673759776 7.178417686082442 0.8135173519458313 -3.097775131932549 0.6187300622261795
P 8.40581322979636 4.169990837691235 1.2749953220386494 -0.674438154421761 -0.6357574500221116 -0.5388320030479559
P 3.913422286647817 5.634761488418453 9.58801130853613 -0.34409947782563965 -1.1423665884806196 0.5770673923800707
