# total energy = -340859.3261580302 ev
CRYSTAL
PRIMVEC
9.46708710248788 0.00000000000000 0.00000000000000

0.00000000000000 9.46708710248788 0.00000000000000

0.00000000000000 0.00000000000000 13.85603892231910

PRIMCOORD
 96 1
Ni 9.352639534669589 3.679875709861656 4.978834857000408 -1.2004948600819196 -0.2681719732593898 -0.3490660778022956
Ni 8.924367446121751 0.9379639667224929 10.719419947451117 0.0370357125970588 1.3451854902554963 0.7359196587660101
Ni 4.286659193733293 1.2194649630384968 10.93202705715011 0.048813679068593345 1.1535974241994325 -0.3803630881433643
Ni 7.750448639367875 6.4326206408279845 2.0416180526398593 -0.6213911539981105 -0.20054064726366108 0.4541483495556307
Ni 2.0875305851972326 8.524136869715889 9.975308790781007 0.259628711675069 1.4278572555241151 -0.7546442317587069
Ni 1.5389602202185761 3.206597088996819 9.491982750322558 -1.4650958281605995 -0.3774495140409951 -0.01765962206329217
Ni 4.431704435977456 5.271255191636653 11.46440396955657 -1.2919507993010717 0.6685107331937326 -0.22191037118868878
Ni 3.3912999593175295 0.2608920942964676 3.5147091205862466 -0.8890141967325657 -0.8655155993899932 -0.01125757519169029
Ni 8.71295792294739 7.404218328072692 11.931366149874098 0.9343496874445715 1.222631801190275 -0.6978346789688304
Ni 1.845343561694187 4.585118583263315 7.626031233317551 -0.4776433473537774 2.2082875951079908 0.04946905326440513
Ni 1.2727835978742859 8.497884637045498 5.49185536301744 4.571074321839546 -3.2448923692697473 3.0428311715965015
Ni 5.368112960281 2.187361019207068 0.2452297453134546 0.05081528287965443 1.2854605635910379 0.12782445054585728
Ni 2.6956110600085896 2.592230468317038 2.366860778429457 1.1561572145068089 -0.4215747864949836 0.10216047012084986
Ni 6.534477031488186 8.154494451895687 10.969742985651939 0.6336216346260313 -1.7587294360262034 -0.15669871037804628
Ni 3.9131163360067793 4.201569014417939 0.2212571872290823 -0.43209779751349453 0.04583865560066944 -0.4170689282048301
Ni 2.1535919193385915 6.668644590595573 11.521323884344689 1.1779146607885584 -0.9231067675409005 -0.5024400946824831
Ni 3.6960833630645804 5.640802938585343 2.678691481851892 -1.4269877084349682 -0.10661233524461639 -1.8663424446211923
Ni 5.343687875430797 7.0256011116331125 8.606692709800855 0.017802318288743534 0.14395169512502307 -0.3294529315570584
Ni 6.0783717067157 0.2980021292206169 9.678291238624121 -0.2289585362847218 1.6278062919503642 -2.064151294775987
Ni 3.885292566869282 4.463684256374347 9.088245564835878 1.8393623164879225 -0.5965627821005209 -0.34555317955303066
Ni 9.287401837110387 4.986608282260292 0.7945716778949371 2.483797753900006 0.34339936643482144 -0.7106480286834148
Ni 1.3606097653763478 2.4157828979922096 0.48036568230625604 -0.6943251231536751 -0.35172845512580714 0.026097468418000216
Ni 8.06784220320038 8.700167888206064 2.5237947887181478 1.2768381120293495 1.469824086874204 0.3192582504122437
Ni 9.427344319380031 7.634022401581913 0.8287895176943824 0.5747184325319199 0.24042719904595367 -0.5650942791785946
P 1.9536186374429292 3.575699882849401 4.116809236444164 0.15117829478044933 2.040334137751731 -0.3824623938745543
P 7.940386808883222 6.384679311494101 13.568719700272952 1.1047680614015556 -2.338234234203173 0.5216698894463725
P 5.622559861644903 7.367504964100179 1.6671029250629128 -0.08707220832915973 -0.1505450320718246 -1.0740539201471504
P 6.0619179092468425 6.043504424737679 6.495364707631549 -0.556713511314067 -0.8857648365573325 -0.6162471479033257
P 9.502210044572045 9.410360365030705 4.469515035350796 -5.518539206509837 1.0928756808393436 -4.117285155395548
P 3.980957482532572 8.850410561296258 8.596300688234939 -0.29760493380852615 -0.19124405245308354 0.02425398745135823
P 5.290738456993908 4.284216685248273 1.922802322056925 0.29687705450356616 -1.0250417519145056 -0.5065343193565148
P 6.139727898542893 5.468322077776884 9.862464898773077 -0.644538024428219 -0.9465698836598473 0.13472220610695507
Ni 6.552331957855426 4.710642691801619 12.088687364027274 1.3861886721407353 0.5528882240307058 -0.3233751007940947
Ni 8.193063364949843 4.884581484031369 9.913954492371246 -0.463582241275021 -1.2213349367557225 -0.3883394214806215
Ni 2.4332970092220054 3.400085416193882 11.5734231583554 1.4440420928140936 1.1541502113791091 2.3384268098299534
Ni 7.968428321025197 5.615308072887052 4.581000400352525 -0.492984348586222 0.7007994180241093 0.7189385508269811
Ni 8.526683516159572 7.771664381673806 5.7817650261411755 -1.0396900979552997 -0.7857838905863048 -0.5006878878780667
Ni 8.423160918160754 1.1748465812946982 1.0244155131701949 0.052148142758465035 -1.2646356564258865 1.2406521490270956
Ni 8.425972643044673 3.035962310182853 13.609789817752464 0.8231677305514016 -1.1878139221801414 -2.9036424450777605
Ni 1.7731948905145793 2.961285926733864 6.188300682589764 0.3580433416002414 -0.9394551269919369 0.9960775034716715
Ni 1.246029609584879 1.578674650818032 4.306055361888755 0.24312660025498775 -0.8625202642070953 -0.5908029967986083
Ni 0.4162914897579423 1.1508475153663025 8.48279220670899 -0.43208468488737206 0.8509065912275668 1.523159565072551
Ni 4.799737448981947 1.1728679600800889 7.573766285281695 -0.1792665683762332 0.4118238777558069 0.1391506741919539
Ni 7.135381454238902 4.5726693636594336 0.5388874282403671 -3.8237027124828535 0.5237907924441173 0.3656594633846025
Ni 5.9555646521898025 2.9098891105897766 9.440881307297591 -1.7778928963285316 -0.6480357531688324 1.770795623162118
Ni 0.24440421531386639 0.5290937265824083 13.020034783539764 -0.753818907643934 -1.089998616401865 -0.00881708407099772
Ni 6.769819350980884 2.3881295364234347 11.54395116934487 0.5887926512367988 -0.4532446067944388 -0.13625021271570728
Ni 6.562887760029059 8.821602215095032 7.337783990697573 0.6086590511434228 0.08466462732893161 0.471424105916943
Ni 2.1173803109850953 6.342976792592884 0.5160263061875504 -0.1391964398282248 -0.06654400646882087 0.04688483747699668
Ni 6.564743309110703 7.788364323408595 13.246123972050839 -1.1195403346147237 1.2949674746402087 0.691025626466797
Ni 8.905376469296362 3.5841823929369125 7.450295587946496 0.7358332696997908 0.11146143580680158 -0.008175336721940759
Ni 5.817042232992845 6.082650830108061 3.521733699252467 0.841217646074577 0.5150194740093904 0.40393084816097535
Ni 0.939911346549503 0.10974815450947573 2.0843496439144156 0.6017037028715122 0.5165467092871943 0.2586234103390062
Ni 1.7143853451310707 5.659860185020792 5.0797767270418 -1.9352153563335057 -1.0349309860037597 -0.3891223223932331
Ni 7.859708292180347 1.5738748376323528 3.8521037994431766 0.41322358631681094 -0.19039044620353662 0.21035171981681192
Ni -0.022562908807552535 6.755950068304316 9.637692582084739 1.6200472168302358 -0.8985311350840655 1.3261963507475032
P 3.4023007145872715 0.6633796242791855 1.1568070467280087 -0.005411143713242293 1.1893424430095256 -0.29293298225415354
P 1.2461621488049963 7.848025906635716 12.914922661608252 -0.47553041477583263 2.1474702067103015 0.9887148924590133
P 2.1439544246186286 1.4067996835872527 10.82739965008074 -1.536422600730044 -1.116623932298877 -0.614082021931207
P 5.354821169920657 0.6107113783306867 4.806978823943931 -0.33985895738173083 0.6773334736916851 -0.07813016864452352
P 8.369302659357343 8.640828185942086 9.809618671586135 -0.23244469506110937 -0.7843304459692299 -1.0495903877881474
P 7.344320067666789 2.2928811725947997 5.956295511317879 0.8765736569763678 0.8017545549829481 -0.4855212074399574
P 4.844933323041972 3.151157826639152 12.196196552425482 -0.9104625964143288 0.3303577027595149 -0.3122450523192042
P 9.072148676552622 2.9287002127592925 1.9705647234436505 0.5657223996808967 0.5624910372277926 0.03715398334247794
Ni 0.2110582942410504 8.235551652084611 7.997040698522393 0.545678336545828 0.4101351771994743 -1.0310956714180692
Ni 7.259371894658704 3.816684586284239 2.751352322446381 0.15568980949755767 0.2290276989597604 1.181906555556771
Ni 8.784869916948217 0.5251563650362072 6.633301114133844 0.034527344352908274 0.6416578746669465 -1.9312399166255256
Ni 7.7333889483213385 6.483951187362013 7.756305926188348 0.585569773424127 -0.34810808476440047 0.340103212182053
Ni 0.2848125834015081 5.185682190876586 12.098566269469593 -0.5048404765938596 -1.178071240971081 -0.1982222835431296
Ni 3.8479543751447878 6.086721677583094 5.529363015601941 2.4709764337656215 0.44871458013456916 1.1815352882602812
Ni 5.126901046754531 1.5899499516151598 2.6608857843378377 0.6975212614934696 0.8275013249297491 0.21114927601744282
Ni 7.347775554476993 1.826731268354847 7.969550170852619 0.03106972482161101 -1.4030062579187061 1.0566354675603868
Ni 6.572070834565763 4.039681824131719 7.755224784835676 -0.07542022591252817 2.3426439332350943 -2.2924768254624004
Ni 6.305439792038214 0.23583271460713284 0.8985685769600339 0.4268319211288649 -1.48316399851622 1.6553962857534912
Ni 3.578218128031631 2.2115872952270936 4.898275625595639 1.0229846122751607 -0.9288524117754262 0.5000592531551324
Ni 4.778038885231303 3.9727305837981435 3.9578663102619798 0.0565958941171735 -0.5529226768130671 0.7613812933722243
Ni 2.1599064664684695 0.6380504326060403 7.139241185670463 0.11721145091670136 -0.11697208121238564 0.2605679356598867
Ni 5.5342887410467325 7.850951236565449 5.4167548540640755 1.5600911479915778 -0.45418125967609524 -0.4771224418533009
Ni 0.39475575990629935 7.3922613970006745 3.272505056326328 0.9390026128355505 0.9185913961690503 0.6304627772820756
Ni 6.008211123837854 8.660425056345154 3.185739202585205 -1.3430730718981836 0.9780805526736186 1.3541470703241583
Ni 2.7801426811820193 6.859169719514296 8.141614479826424 -0.28816127189712304 0.5032944722629784 -0.3394298402641122
Ni 4.909053904317326 9.583816335815742 12.910045218307932 0.28262465834961 -0.07922340170870226 -0.009344674439693584
Ni 2.5485871965498177 0.42746075917897636 12.698200209124613 -0.09266692880811782 -0.43371810672573696 0.5450201341365388
Ni 0.2141975803404019 5.203432979285163 3.0229583192719076 0.45819629437275927 -2.0856405749980147 0.5596993334152683
Ni 4.1606995991860325 4.179046814085138 6.672195694986002 0.3540064525267064 -1.2188072852378622 0.31172903191473406
Ni 3.663402978218497 9.049787416701392 5.812109880587049 0.018933603679709327 -0.43611283221015856 0.19580904611594666
Ni 3.2529290135149926 8.089455563166661 1.8229283394461937 0.1680061649710655 -1.2796827805669961 0.16379546932382757
Ni 4.507535804058896 6.624783575823873 0.010732836703361856 -0.4531168229673229 -0.24783043348856026 -0.5078666650146931
P 2.9797278125044815 2.306125627519386 8.219125309168493 0.5483983065801523 1.309820737602957 -1.4366136615605065
P 8.925636035800018 3.211576776838372 11.091703682586514 0.07740588888398926 0.22574517155374674 0.2519552542902112
P 1.7434966381211365 4.398143612026306 13.600713721300568 0.008424476618269363 -0.35948650180467123 -0.5501281447870655
P 0.5594357409021355 6.3045688200203 6.8075968155491955 -0.5177227318731664 0.49889300076117304 0.7650086057121663
P 2.1846913006304183 5.426373414609737 9.734130958768285 -1.0885729396989317 0.6124838242061517 0.845964416730943
P 4.6916990504119855 7.724357347179055 11.862182570390258 -1.5981643007142152 -1.2051454714800536 0.6181412796022451
P 7.322167083732886 0.8718846451155462 12.884259713034098 0.7130509816979527 -0.8078958919939958 1.0334932251159685
P 3.0125028682220774 7.108769472256764 3.9849970886200063 -1.5947676163278406 3.1269329844434277 -0.5474567686024895
