# total energy = -340864.12707527494 ev
CRYSTAL
PRIMVEC
9.26406829230705 0.00000000000000 0.00000000000000

0.00000000000000 9.26406829230705 0.00000000000000

0.00000000000000 0.00000000000000 13.55890037216750

PRIMCOORD
 96 1
Ni 5.764288587118654 3.2304362059396956 2.1901424769873157 2.5397655275148776 -0.7061840793747902 0.6316701673266153
Ni 7.254793802428524 2.7153262154065105 11.405421576461125 -0.8212795123897534 1.1350404871328514 0.2645585448765186
Ni 8.671621882427162 3.9068521539781202 13.043432066706997 1.1655635954223733 0.9152515331625399 0.03468006788068866
Ni 2.3719349951649122 1.2352986613611947 0.24630007867038797 -1.5353087988405751 -0.3978172790640697 -0.1703888062706291
Ni 3.7919406505956834 8.420009786984807 2.604393629365476 -0.6837386058870806 0.21418137797554726 0.7876042316244952
Ni 8.83757840222666 7.439917679572287 6.306583986122958 -0.3436035120258276 0.36364191873394147 0.18694619640867804
Ni 3.3598089199622474 3.7571170177986355 4.891305784753462 -2.9040759330707533 -0.766583406398454 0.4655455356489789
Ni 0.06922297126525667 7.527036978008955 1.6568980727270166 2.0417587860134 -1.8762129096573688 -0.8963994334530433
Ni 5.235560416162042 7.154825241238596 1.169944365024389 2.107651274941151 0.4056527159480885 0.22186152022862435
Ni 3.2248870290188574 8.923233977869518 6.825550608295785 3.1205193676075997 1.3371417940154133 -0.11312416822120519
Ni 2.166874843006718 4.715475620943565 7.944281350859775 -0.35247150393941873 0.07681504937752577 -1.4041347150961947
Ni 8.193929463819297 6.48833111036581 13.18573278806349 -0.9546138370102463 -0.7166584965435527 0.5616749690844004
Ni 3.094560115959834 2.242238038751327 11.099261720371711 -1.8279918698674518 -1.0911664114577209 -0.2043523077002674
Ni 7.864369497572375 0.24564974107465698 11.995383386167916 -2.8031732466164048 1.109207585230148 0.2824282260680878
Ni 1.0922892387785863 9.147127980912627 7.303203191409895 -0.8296440823043647 0.8705631891162297 0.28971370398590746
Ni 6.109477036613412 7.823042488818019 12.509834701443888 -1.4466221948364442 0.4287525351903455 0.372454631929565
Ni 6.393152072494869 2.820325165691623 6.123402784104905 0.08057503064059027 -0.5951234785508331 0.14986291840313545
Ni 7.461790144864607 0.7818225173294084 5.059652434178297 -0.43090146321254824 -0.25644748573361 0.9996032572367428
Ni 5.882952038168769 7.9880633377176755 5.895410357239125 0.3932808246462968 0.11808922553596438 -0.6714489898864501
Ni 8.143134577246746 3.1023882536862257 8.968738155027225 0.11367824095246229 1.4046023987612326 -0.8137176408820954
Ni 0.730854392679364 7.685063455330593 9.107825171085153 -2.8654659340080393 -0.48061759949075294 -1.1111451685724927
Ni 2.5548910803229052 1.293467746312688 4.956862964186373 1.0511947561607895 0.9350359148783187 0.513364969125103
Ni 2.9249442891758104 8.326850316006592 9.32461826576462 1.353218902082934 -0.1487815124134986 -0.4593951997768668
Ni 5.521560733190628 6.245973819170396 3.4408287558201507 -0.9477075968087162 0.04368329982056348 0.9428209581403763
P 4.86995396010046 8.488656533200855 10.620361267255534 0.09879669585493953 0.8299281892036868 0.4188190781267174
P 7.41325569096098 5.086501556969572 11.088332898980203 0.6053094179448995 -0.02893416653584694 0.7168546717147589
P 1.5914650318095311 6.597711964964039 10.579304769295984 1.265774140905704 -0.27132106041133275 2.1075245195552994
P 0.27767284602000275 0.966140420529744 5.472954945960975 1.289885946352243 -0.42580630807782793 0.2215887261832119
P 6.116137901732081 4.166181218327084 7.697279055811091 -0.05039876416752611 0.6137048410974463 1.69687100795851
P 2.659111848869536 1.3678211586109335 8.707431212092954 1.001523099967275 -0.05234457503998727 -0.8087440989269039
P 7.665775665098231 7.957010180724937 8.603474469493307 -0.3841171558691578 -0.797483181301104 -0.0522018788145359
P 4.892817680702512 3.1407229683747553 11.195272671577362 2.2655038964179823 1.1995042140338763 -0.025184983906059853
Ni 7.060832004112007 5.7032476409894315 6.313457924812878 1.4225638683356598 -0.6732932421840404 -0.8944420526163563
Ni 4.445150107504391 4.762629728668219 1.158834894300734 0.039740256012415424 0.5705455321011529 -2.309556663762822
Ni 9.185638712899149 9.062584093467601 3.3673396810957192 -0.2941668546612547 -0.7798089039497925 2.6048296070040626
Ni 1.6716640712147033 2.3461253008386085 6.916218971304027 0.25578722644179175 -0.3139692340991625 0.9266340639678687
Ni 5.47275762130586 4.1695903954670985 4.616981899429425 2.8794959297385443 -0.41354266021912656 -3.6825442638322516
Ni 2.1896737151305636 4.142687541079595 0.34416013791176436 -1.4253758838631583 -0.6158051752699008 0.19003691951885981
Ni 3.6807069823344034 6.935368726918494 11.741817498717873 -0.5733449492231609 2.309379771865326 0.24360611099456755
Ni 5.750707462968489 2.4933220822997133 9.180785267508785 0.14122324045026644 -0.12686440062543314 -0.10053913246734299
Ni 1.2615437668983154 2.879022302537086 9.55639413813035 0.29398970565344207 0.7850331284632093 -0.6576118268930417
Ni 2.002104123951573 5.08230493402276 2.5686926892989734 -2.2919633761610916 0.22716004962340233 -0.07602443515543035
Ni 3.7110190138619212 3.8518421163221297 9.3152495134774 0.8986938859141749 -0.1728084714557153 0.603209083772445
Ni 5.154509082471866 5.494444805231874 10.634516763641246 1.739593743638017 -0.4699724610720809 -0.2598937924109976
Ni 1.5910759409402904 8.484478438390674 5.026271216817934 0.595551053006555 0.8323689374346955 -1.0586506982182025
Ni 5.580359774787559 1.1295863778158075 12.255388727503895 -0.3739967796057043 0.3624820940978854 -1.778531558353795
Ni 7.1843035066177405 7.540997928960046 2.2656650147069466 0.8518712691336813 1.0625613461265184 2.4188714855402664
Ni 7.4205650408617165 5.860727538280471 8.998879727697743 -0.5169490869319355 -0.8431140917663416 0.17928096655393638
Ni 7.157419180366867 1.8808467337731862 0.4274783891186832 1.0929106478423372 -0.9434048556683043 -0.4394182424343077
Ni 1.2486018634619027 5.915033506744501 12.775589323576312 0.23474788927298926 1.1385716402145616 -0.5575444918557947
Ni 7.315797692284485 1.0236610206991692 2.8171466638526583 -0.6044185306995139 1.0148074757810073 -2.0496782979707926
Ni 0.22356698143158102 1.750983024129926 12.424129099832125 0.8916320939713871 -0.49732102828836283 0.12147562550969403
Ni 5.62648557092922 9.061305652040096 7.865761887040159 0.114705396665396 0.7643228924990514 1.9844236997373563
Ni 7.677374278628931 7.34615604415358 11.042612869030751 1.0316572003484943 -0.7009675681708573 -2.8628788900071536
Ni 0.3272272738451392 8.301188846773332 12.242073482114376 2.2096011717130914 -1.3960858766497892 -0.04557074665126345
Ni 0.37644819521092643 0.5064934805931656 1.3351032485419436 -2.052450718509607 1.448657480098918 -2.646749644276616
P 7.638428135431594 8.470906578308822 0.5660512493851155 0.28520604592354104 2.1766141752641093 -2.6139914760089886
P 5.104927788848617 5.886861474997808 13.021181627427415 0.12033251304418631 -0.41027993030745463 -1.025508664248595
P 5.418118146382478 0.9519200756658258 6.01898561730999 -1.3177194236247434 -1.1026741549870043 0.7544956219959845
P 3.465808389625407 6.447624794188575 8.258997500445162 -0.1524738736634213 -0.5506781037532645 0.20406974346284207
P 5.080452120359709 1.6065932553683442 0.9139725990328739 1.87468798837241 -0.0784718682546584 2.6839303670919716
P 7.460984170921179 7.13202636911475 4.5507873520964255 0.6245548964380728 -0.438806834102554 -0.3355955541196865
P 3.932717432714315 4.799333967333263 3.09766635806594 1.8195913045085825 0.7710046753946012 2.8168327463813685
P 2.2197912012234613 8.186536737303722 13.226273277417882 -0.4081487428970648 0.6499789929381322 0.5326217604721859
Ni 8.54852094265404 4.705479691231404 4.302998537647776 -0.2734296221139033 -0.016927886103590202 0.34592418973920425
Ni 5.485829221698686 6.609032656445281 7.670324322641021 0.6478647748086068 1.3526985108030898 3.5567867231177517
Ni 8.351724339433055 3.2919588836213114 1.9288077418480984 0.8624737272398759 -0.03850509805373368 0.5675314278651774
Ni 0.4438239112541211 4.994870657263374 9.756238619827053 -0.653303686435991 0.6819627449335804 0.9625708870737938
Ni 4.7567748374929755 5.272866819267579 6.199224551231118 -3.392318653206932 0.510927563328204 0.9452905027267914
Ni 4.085065036158702 2.857585248455583 7.070871474945251 0.35845266122351815 -0.7375263411314975 0.36408800513242456
Ni 5.8164452917335465 8.55328267376808 3.6398459562163032 -0.9407370790281541 1.9511479684033624 0.9512755166656327
Ni 9.162960273663401 5.221164054000134 7.5321451852779875 0.2384747033052732 -0.4826737106888333 -1.8132311666185097
Ni 8.217367556656894 0.6571679932998169 8.173915370631017 -0.2934124929937334 0.5073776411934164 -1.1568277582112723
Ni 1.087064304248782 6.3308790052797175 4.607693744536549 -1.463747798773137 -2.658330921356312 0.8036090916931837
Ni 3.4953144472094984 2.8948823874928045 2.382841582792463 -2.2469114781277755 -2.177928523200159 -0.525681838819243
Ni 4.983661134601913 1.8397698548633405 4.137010520016005 -0.24690097969575542 -0.8599910700273382 -0.2561366393614105
Ni 2.299619677896023 6.90414881669608 6.496733620327747 -0.3051369805195132 -1.9275673528699446 1.2490192900448684
Ni 3.1086785560722845 4.795943318329878 11.668803670698013 -0.30129626661718434 -2.2001222856883786 -0.1732393883455468
Ni 3.9324024543915965 2.742794177961245 13.331856790413687 0.6194173181011913 2.200127170784385 -2.1520020331423844
Ni 4.295090728933873 9.227614206435574 0.09154474387086627 -1.1601514232678667 -3.188300588917632 0.34911672853457293
Ni 7.209307227000617 5.405824727728135 1.9508414019291036 0.0726056392818685 -1.8918845547563548 -0.7932416324159307
Ni 1.1832716537027166 0.6822032115149651 10.092404793189584 -1.9946209519853324 -1.2112060758518366 0.09379281488244492
Ni 2.868609489750738 9.221499921347503 11.481473092481556 0.8386887090051361 0.44832402956436984 1.1340786374402145
Ni 8.55068873463981 2.6413989502507667 6.531824058292274 1.332366484113957 0.4136529605447456 0.13151038403787674
Ni 2.0729001340167605 0.7369473704103079 2.796522994969236 0.7249431051498483 0.5609656017222017 0.06077959318121791
Ni 6.36081121000631 4.013954047770796 13.220578654624493 -1.37885640014538 0.8318493174857996 0.05071398141509976
Ni 1.1175894093475507 2.999696056411612 3.9658160959910624 -0.038661678236256 -0.7494009810818965 -1.5110188159449591
Ni 3.104074314119602 6.832407871662737 1.0010594732304388 -2.3374006825582843 -0.6447496262183929 -0.2660857801543224
P 1.87917920147644 7.292720898111183 3.009533570555582 0.2570020726854993 1.8468568250927548 -1.2607409493571706
P 1.3060112948115448 3.4539133259086188 11.720679674042954 -0.2601753282071584 1.2218252461285795 -0.09861646152333338
P 7.316575874022967 2.9751555394444984 3.9142374692390423 -0.5527365289441901 -0.6396308169345888 -0.13243212452119774
P 1.006439117701108 4.017159415407875 5.779779962155425 -0.3811393041877565 2.8549341812387796 1.0298201471397554
P 8.078156402083541 1.3478848835965023 10.124620590755887 1.1529582479535367 -1.072263918126263 0.21111070947002353
P 3.9648452216316232 7.405140367116816 5.0773069691666795 0.015647219618953694 0.033019392348814104 -0.37233816095635874
P 0.07749763708444343 5.363154429068064 1.2157496244023416 -0.18273447232017562 -0.8294869879012101 -0.47802772727638965
P 1.172182563929355 2.5963941063752523 1.66053144032026 0.5627628028319405 -1.0641065791264512 0.1768024231064568
