# total energy = -381165.2326799234 ev
CRYSTAL
PRIMVEC
9.26840740479540 0.00000000000000 0.00000000000000

0.00000000000000 9.26840740479540 0.00000000000000

0.00000000000000 0.00000000000000 13.56525110190440

PRIMCOORD
 96 1
Ni 1.4809061612732966 5.6769645144763 1.5158897656400887 0.012321497679830392 0.36183854697661555 -0.3296884446066322
Ni 2.9588000900868745 6.40907602830142 7.533313475847396 0.26123333715802755 -0.40091134460836114 -0.022887189010818647
Ni 8.757440259120663 9.404189739241147 6.700854766961106 -1.5697484685756835 -0.8840825637589032 0.2446402086860367
Ni 0.06854728869411095 1.3043059234656773 0.8704378625791777 -0.4142263165497124 -0.981562083464316 0.1801757104540639
Ni 5.9352286913687795 6.217294138896818 0.03354792803445253 -0.772615985745779 0.44776301485457726 1.152036764580532
Ni 0.91344605421866 5.517538635892859 6.259427392861848 2.4718354393318074 0.44469363190063416 1.6330626552532972
Ni 3.6966209429741075 4.169559975965048 9.70104015052224 1.8496750112678402 2.98806281760637 -0.13188473665815997
Ni 2.5011539295837353 8.960613021426784 4.937561544417147 0.9456756539803519 0.6204776410449055 0.06542840480713893
Ni 4.404773623235005 7.818003736398796 4.0719219364361114 0.5774492011995216 0.8637371673333317 1.0858380572662718
Ni 8.327367611133411 0.9049988275608525 4.568532482356655 0.03326544692134916 -1.3930869419224654 -1.6813559430420462
Ni 5.551461007593074 8.289311529657704 9.184204085606012 1.555261073592786 0.9766301933803372 0.9750525644805724
Ni 6.072466002233553 4.5570535595832355 9.789770323537223 -0.31207484528992707 0.17456144959108003 1.204140684364623
Ni 6.690010730106119 1.916363754057771 5.998079616771372 1.8042952975814603 1.5226484297640872 -1.2404158646465735
Ni 3.578124352212566 3.353708399759754 7.453793319433097 0.6042735204812173 -1.6988147619484422 0.9748790150171857
Ni 7.139333860612867 5.942439512456967 11.18035770673832 -0.07899663040987685 0.34073030424309064 0.5603331103445253
Ni 8.791371899228448 0.9237580844792225 10.696146436462735 -0.5472490234670575 -0.10618836033332034 -0.01205795960579859
Ni 5.198399558091361 1.5390654187647845 12.902466760252251 0.19667576499161613 0.4433803124058493 0.8427042579224326
Ni 1.7552602937044572 4.682964876399469 8.86729313298395 -1.7331837263466152 0.3552773488193301 0.7583031686675327
Ni 2.8538724480054194 0.4866896424593664 13.232970759414078 1.7292121432933767 1.8973226950527904 -0.34159933711160523
Ni 2.549535017090599 2.144023649159511 3.6221251903026204 -0.8465393153978066 -0.08794124119767435 -0.4204550710682436
Ni 9.149104626144617 6.896232798502231 2.6707537391549687 -0.6303460491985532 1.323086858584244 -0.35725581270193957
Ni 6.367961372328154 8.87637246503792 5.1528286517592266 0.4637012833513885 -1.168996275253006 2.915889894986546
Ni 3.8632205690154615 6.63945156682069 9.65235413240638 0.3696742409709504 -0.19154975661896043 1.4237954267499158
Ni 4.453849841309496 1.5840913427318999 5.198489461644773 -0.5635734716586939 -1.6346287141888363 0.7644943850799092
P 1.0986028858933934 4.738742153145887 11.316404027230561 2.542847765984627 -0.2049395476623051 -1.3007036057930372
Ni 2.795861485035025 3.936552209696362 13.234991272263983 1.6574557393856812 1.2969901614971922 -0.6753321269909401
P 8.586966438715734 3.7821405396074077 7.640153190410205 -0.13849864243025178 -1.3179832188090914 -0.20727436644306882
Ni 7.053323038378442 6.974606452900322 3.890487297240833 0.6105117880814454 -0.9974700129438241 -0.6441880972879679
P 9.117656919265155 7.844891386754623 0.548648020213127 -0.18292859060885272 -0.06092280362730152 0.21677176441054283
P 4.511054452821442 5.023903248801761 6.690300831263008 0.6907232647350298 1.3620056471366284 -0.13017623860748548
P 6.971761051776834 4.6499971506787965 3.2674890383550417 -0.41813593601676374 1.2586928085788904 -0.16994297698246216
Ni 5.509994152132211 1.0593419114338007 7.531617357262385 -0.9512544336197101 -1.052293388541607 1.073875485587757
Ni 0.7429963316734075 3.762899325495483 14.07137051755169 -1.264335094466332 -1.0906745594229668 -0.05109707578613136
Ni 5.194302921946144 2.8879153090040224 3.379890724299627 -0.19323948561655754 -0.8609264373574141 -0.9502067090814862
Ni 5.522487965534366 7.577210507772684 2.2667670242688764 0.4844233463900883 -1.1951767903031159 -0.9127614197508345
Ni 0.9847961093614443 1.3725121347612725 5.658080134055756 2.089230606342118 0.4676371280706849 -0.3918345791180736
Ni 8.718568557778942 7.660403734106325 11.025442762118404 0.6103449234862778 -1.4172218872974562 1.0207212701622808
Ni 0.7172514759707612 9.371657628676186 12.46382083526426 -0.2764825500076141 -1.6086348612282362 0.5925251216960377
Ni 4.921283440204827 8.571256487887355 0.43919646839755255 -0.32214842747584516 0.6134266477353952 -1.3685691592867593
Ni 0.9174676162625733 1.2102964654997552 8.206814360732448 0.8505144979954706 0.8245026473127414 0.46485725133270267
Ni 9.147084113294712 4.5445504777735115 2.671282965227123 -1.1641618299788403 -1.2826094672954877 0.17351706748696566
Ni 1.8357008029902937 2.2706393649509398 12.067702071562952 -1.2053429322028404 0.18515825127031985 -1.210491052062683
Ni 3.689437927108625 3.7676725553931907 5.063555350060739 -1.1139271021930042 -0.3708507777775549 0.20884171093018872
Ni 2.049671260113559 8.037553774878218 0.7085512217863373 -1.0715959455249608 -1.2705821038173084 1.3051914663610618
Ni 8.468692289735833 5.232498029535375 9.195694130468514 0.016093820238069056 0.677183321267066 0.1978402176133625
Ni 1.6289597037703527 4.768373252141949 4.207018245152594 0.1698308768846301 -0.1193567793944783 -0.8167307166768062
Ni 4.593914016482621 5.130517741060658 3.452858116563091 1.6063110981910658 2.662966106135478 -0.9151139791434112
Ni 6.9553652387883975 2.5076047412513174 10.862226104839504 1.0989224012540557 -0.05795986434423566 1.477217808235114
Ni 3.507943970104909 6.0236307627558405 0.7237319465425617 1.7747001004228466 1.2531284271172356 -0.3561283839657157
Ni 8.110116137730945 5.761205070865166 0.05086038653140077 1.720164688379128 2.241055019346998 0.4516824045136415
Ni 4.2603254912820425 3.030305854476808 11.431070911984854 -0.358752194741808 -0.44517982750843327 1.3308101953704305
Ni 9.19765254498771 8.499991702094201 9.051440635074488 -0.36092837645752035 -0.1957833350843338 -2.151544633889991
Ni 5.95097571582743 6.588846061497419 5.848481957573427 0.27588682540514425 -0.158433690791282 -1.35529455366504
Ni 4.531500559917254 0.21159867162652077 11.07003214408905 -0.7172817319498486 1.0582331510648098 -0.5786221384617002
Ni 8.423638560546014 6.910951029720795 6.850926968626552 -0.5623154308818767 0.4072300877375373 1.0165632821298494
Ni 5.573436401937666 7.5607776211539734 11.869486053624392 0.9541806061275696 0.5761327963809433 -0.9410083304116696
P 6.023640031163409 0.7578721258206328 3.611748281189079 -1.0168602445449777 2.162201342272889 -1.2418970771777904
Ni 0.9619958267432674 6.702337712172043 12.30712821007273 0.9268310104700233 -1.0930170915132145 1.760080807847775
P 7.154283802020639 8.37213401968861 7.683494117881391 -1.6635957908451477 0.8067777192291525 0.3501572539839453
Ni 0.9805511786951334 9.226227045520979 2.8756708157654556 -0.5046995801406212 0.92362150239379 0.08799369170216459
P 8.36845446188397 2.1754898928541087 12.80078120713821 -0.4866571208166135 -0.12088247201038538 -1.40886425936138
P 4.1610330410021525 5.7445868160950875 12.175410235914919 0.5086693634216466 -1.3024450139641763 -0.22134087183846396
P 0.8531077941078495 6.617012752097679 8.327096973632413 0.2766555852503687 0.27429454121735986 0.04418157961322068
Ni 6.0174950769455835 4.323582372936131 5.209504037199019 1.1669774450507644 -1.2991938540167303 0.45294455905551667
Ni 1.8656748330663848 7.760465462214389 10.342771714785211 -0.2859850901814107 -0.7524379681360073 -0.9316636559719762
Ni 1.3997797898274011 3.3467292888607756 6.920760712291152 -1.3980985362044438 -0.6079802799088433 -0.7374823752674395
Ni 4.5078661206179245 8.144928276557721 6.794888322786705 -0.7361860250535193 0.6670927698002834 -0.5106470559733076
Ni 7.869600961331882 1.7393371695020068 8.503961361055731 -1.0612832507450431 0.19430443654596213 -0.7007233133705352
Ni 5.762243132512822 6.381456173747694 8.02456502851191 0.3383970281242237 -1.5040120456098227 1.3005426547351409
Ni 3.349241027311802 6.139522930990671 5.09812002240544 -1.0960049704969446 0.6182963171228706 1.5231248551798737
Ni 3.412173514700998 4.053500976393987 1.975195897938722 -3.7797425048518196 -2.244774120069798 0.9599331923406308
Ni 2.232824262072012 7.303607116354561 3.24342454494454 0.5702987061976694 -1.3180716647578397 -0.6640503834295337
Ni 7.560536642557196 2.600844921389065 3.043866461590082 -0.08551926201974304 -0.4988030121505281 -0.5383748609058793
Ni 8.803013019134314 3.116057161299317 4.937859987140848 0.7276633322944888 0.8718502833587695 0.9213206221747551
Ni 7.350959410621336 0.0761520171039541 12.979097027186734 0.10421375310545279 -0.042944107661693785 0.34431699315308445
Ni 8.36652663310975 5.363840633186669 5.193389056959902 -1.9029960912884838 -0.09502617306891376 -2.386972579949141
Ni 6.251791151866271 1.3108308823938062 1.5236900574496244 -1.5027617181424893 0.9164005591653186 -1.3633176810798326
Ni 3.521503650377426 9.25562643432783 8.72377276862858 -0.969489211460182 -0.12705517648000053 1.7622158519129072
Ni 6.142238574408203 3.7577831645177455 7.735639105701768 0.5726191268007299 -0.4912185149350507 -1.4959084426660816
Ni 3.497016517581807 0.05685611938737583 2.3153446020161894 0.10941432346978576 0.22788947159025913 0.40586586040015915
Ni 5.240811791124197 2.303347575259698 9.533876078459974 -0.810973759588371 -1.059595578629975 -1.7262931698743689
Ni 2.7065047676684215 2.2969338372223898 9.401017163330495 -0.888028950001161 -1.8205179300879097 0.7648797934437859
Ni 5.991219141489269 4.085782839954601 12.611437835764846 0.1142143159615904 0.16653883639691963 -3.7071481784238607
Ni 1.7505148690294547 8.475940184454295 7.174254439808194 -0.7798053044053667 -0.9769320408914722 -0.30944434964561546
Ni 0.569696573800883 7.5664869602160865 4.934726338541984 -0.5473287276650574 0.25493593418509 0.07807206171307846
Ni 8.546741549869031 4.2503063427006404 11.953115821954505 -1.5629461009418695 -1.4791582197909363 0.1480747161544611
Ni 5.282945971929983 4.156445179255812 1.0068465778073405 0.819093560482028 -0.3553143727048526 2.079439331283309
Ni 3.320249448437958 7.716950288680917 12.173768800934559 -1.0047210380792826 -0.5831519080112537 0.10671800758454525
P 3.0219086772198693 1.0064656462562807 6.9902552322387494 -0.005078185853855771 1.1844912855648115 -1.6527279948927083
Ni 7.454172397302644 8.94635821058664 2.4614147052936155 2.0687193737626437 -1.168486168385807 -0.1632838197947317
P 7.094002079195995 -0.5050865046418134 10.81016267900573 -2.5235179553077636 1.3192111776789215 -0.6862891402230762
Ni 7.535706578681547 3.6863422789807907 0.6475660268272551 0.5053775800442523 -1.7365179329261704 1.5075647959580878
P 1.9863865732367656 0.5326739197690507 10.635428171641621 0.597822622649551 1.1912507157758325 -0.09519689431882315
P 0.4205280418733525 2.259285565679693 2.7040968353821606 1.0820662489286654 0.4067837442287382 1.3624550759692213
P 3.7108850222218206 1.850066834721259 1.0744318057958553 0.8521936854701064 1.2207644089642329 0.19702954878660905
Ni 0.08784040588841871 2.94307160244336 9.885826245894242 1.014243632857737 1.8810386131807864 -0.2618542585714781
