# total energy = -340871.38454387244 ev
CRYSTAL
PRIMVEC
9.19679018534912 0.00000000000000 0.00000000000000

0.00000000000000 9.19679018534912 0.00000000000000

0.00000000000000 0.00000000000000 13.46043206205898

PRIMCOORD
 96 1
Ni 8.945809904889055 0.9865672871947071 1.1417309349523488 0.2572625254357376 -1.8339493730024672 -0.13297205618506774
Ni -0.09940902616703466 8.366568460635754 6.9090114692402675 -0.5581273609424582 -0.670824983149206 0.8017977495160579
Ni 1.9174664026277448 8.849620675010431 8.380048196196812 0.8135083530847667 -0.16426880941582034 -1.0391691924548234
Ni 4.195612527731807 4.3471480417111605 6.477079613817719 -1.4937623428573565 -0.3988606327269195 -2.225149403860336
Ni 4.8439218672321145 4.508266611196158 8.608108363008562 0.2283216740316713 -0.03919929590728088 1.6974849873934248
Ni 2.0849307574283786 0.8398508913391128 2.1991254633808484 0.06675226582488504 -0.14846526672466043 1.0328190818670795
Ni 3.6355279976994814 5.195395602605602 10.923921782195604 -0.3303440759127601 0.3031996542874843 -0.9110542072517407
Ni 1.5304746630673143 1.7772153503618504 13.380100293848413 1.1188278819287312 -0.4201154283406377 0.3832003004818433
Ni 2.109734500901239 7.114499033908975 10.054484816421121 -2.2501886062171508 -0.028266708155177123 0.022461157216993575
Ni 0.24846784451522716 1.8101674500516012 11.095730700739871 -1.7391911088829597 -0.2746136151196754 0.1683568634422649
Ni 7.08193319941235 5.159426955693346 8.35616873015036 0.4757093635558581 0.2899836698178425 0.6408932285867801
Ni 0.35524258004355724 6.1651419603187145 0.6765775138838931 -0.09290629851243355 0.25660715123992583 1.069380940151513
Ni 3.8595342193414743 7.65456215143095 11.242704606724216 1.3427997636321392 0.7202215313044629 0.765959656771526
Ni 6.707283552451319 1.4604319080471795 10.78190034779455 -0.2729598815663363 0.21145292330079066 0.14210564305521978
Ni 5.515076033868716 2.79641284958537 12.683562985949264 0.8665237289395336 -0.37779841273998166 -0.031828971585138734
Ni 2.1686123524819774 6.816909292976528 6.8501483325240295 0.4664521066236483 -0.35882547118190466 -1.2387724155058795
Ni 0.41634789423798707 1.475808941449709 8.75602493999994 -0.11896031528700804 -1.1960435091787855 0.6769763474625825
Ni 4.8351113421127225 4.222972978911548 1.3275336896361432 2.372038070126495 -0.9494191801831842 0.999599400582001
Ni 0.26542212745635346 3.1642292813442014 4.362310789899409 0.7208604504400424 0.6669665286350643 2.17374842368054
Ni 6.065844215314461 7.581705178575184 12.211829261412202 0.6165050295504028 -2.4850280267626816 0.6427804183071639
Ni 7.19130142980881 5.701403005600324 1.2890966242040067 -0.698083818865159 0.862925984285946 0.4562132025044594
Ni 7.964953824478421 8.091133787566163 13.601901125173464 -0.18777846250198627 -0.17210193230699394 0.7833125462276768
Ni 7.743430736220808 5.708162646480025 12.391835279162015 -0.7679939135927354 0.8124464874791555 -0.9404357457376513
Ni 0.23925725901724074 2.1244861525625174 6.626153147030413 0.22054357274814923 -0.40889359148288934 -1.8740799224747657
P 5.448656814231714 4.880497502304998 12.027582603649286 0.18695828059353609 0.2577114400476981 0.3734969571511503
P 7.809224574116559 1.0153624376632 12.74877926541339 -0.11837718909002838 0.17509418216609843 -0.7047324345299282
P 2.3153931258697593 2.2374411311808595 9.51571752665418 -0.4070495962956151 0.7977947990042519 1.0947903813635531
P 1.2496046869230246 8.420995065705235 1.0730171161323732 -0.33688007725906494 -0.639123538280867 -0.888379134251728
P 8.262120513056491 6.715275563232897 2.976935726950748 0.9350297442307317 -0.15436774825202448 -0.575328555312093
P 1.4818328391044082 4.08997819420223 0.6212946876363181 0.1748563551236795 0.7498455248184828 -0.5573840550185304
P 8.876548877045485 3.8886880446321554 10.991075825378577 0.10677842850883547 0.7471021577453907 0.5229433568421574
P 7.7440377243814345 6.600609981616426 6.823174146537416 0.10328301376106729 0.046334621400481495 0.8371874418692613
Ni 1.0786179614326963 0.3056185388752744 5.242690096787724 1.0612719378911337 0.3571761085039397 -1.2546759741100133
Ni 8.521718313207927 3.794200220961349 13.261366052197685 0.954131498057189 -1.496664861216132 0.5780269280798624
Ni 4.253708652135981 6.198360766927528 13.212370151807749 2.0700823155484414 0.5267221071582994 1.4599981019227177
Ni 7.386411336288872 1.416149362692407 7.293400517142256 -0.7996148829321261 0.997186163154818 2.111224594114706
Ni 5.399260853463181 0.24177350084674556 13.103622704757383 2.126543740970279 1.0552727828849053 -0.2024345218522643
Ni 7.92757806864835 0.581382457038054 5.340695692753069 0.12013685209361245 0.18595297925747328 -2.3493833088414573
Ni 3.4344401775162834 9.049089860098627 4.326452504470902 0.46864962849559927 1.4184624445727765 0.0710524358621357
Ni 1.767595507694957 3.3630454943202084 11.832688821741566 -1.3980260310952954 1.3359986815499056 -2.779820173712761
Ni 6.296435338820216 8.401304737646134 6.4331309119512925 0.04746436412955052 0.06419118996592817 -0.89928395408969
Ni 6.834760262973126 3.9500858167585235 10.718273273696427 -0.6670583170179222 -0.26693810085228864 -1.331448600285378
Ni 0.03929880468441922 6.153222920073692 5.29283007789254 2.757908204131018 0.4789288989344204 0.1428944575051023
Ni 1.2696628865946258 -0.08835724324848218 11.727751604917678 2.261422270149441 -0.9795594512119904 0.4895616960579181
Ni 7.099673807925197 6.720628095194781 4.780808893712462 -2.6050977730637843 0.6390613175843639 -0.8388069797505554
Ni 5.408384069453199 1.3355302988128774 5.879933858184011 -0.7098147341488421 1.1636087856888477 -0.009109675610752052
Ni 2.14918873134194 5.985197561063995 12.678031116576285 -1.5734089481464064 0.10999102190886219 -1.2236602424547893
Ni 3.1463047370251047 2.422379387575277 4.925400831005865 0.016935342302757932 0.03558046820777098 1.2251301421320966
Ni 3.1581042189960646 5.290444430485472 4.092536741267172 -1.1249350232677338 0.4542218831060435 0.6713296906997664
Ni 4.323714619994866 2.868589259958009 10.514925802133444 -0.13230176959092055 -0.8807756108728572 0.05916031241024004
Ni 7.407380018201413 2.0959944961743378 3.3055857878056605 -0.7334647694676142 0.009170867865990659 0.3514384346892141
Ni 4.122314108941041 7.438253643280534 8.560794555566783 0.036528948163969344 -0.5066831862295532 1.969302527825202
Ni 4.940037522788236 6.332054507700597 2.596948262892331 0.05380059076022348 -0.43167870769820493 1.1078027344628212
Ni 7.467370681409965 8.924666483960577 2.571885169932658 -0.36684345639037463 -1.1896784861927059 0.681816192053387
Ni 8.152283246354093 8.633588070569392 11.140351687978145 -0.6175098166658333 0.7640092179133745 -1.1731923156122246
Ni 1.723230191227372 3.446221265906618 7.59743169000959 0.8324170170638115 1.5163559118871563 0.30524548107291943
P 2.88481239806929 5.591915216929801 8.691993207128068 0.6406019225986064 -0.1944363341381361 -0.5310348756010403
P 0.2261619492912468 1.322148968908164 3.362765911894708 0.4767504032258627 -2.8161398340794013 1.0169929134681002
P 4.279855126994469 2.2954728780528457 3.0228497829069614 -0.5252804896157662 -0.4608779549699805 -0.24765148470853474
P 2.0645138829345897 7.502106958420344 4.696331776296832 -0.92587687408687 -0.6312834734111579 0.9237904238714865
P 7.230001523443884 3.6111197162100597 1.6713952416679598 -0.4536546977486639 -0.06333681238543286 -0.20767391587433265
P 6.810030093822766 3.156899439465125 5.166477215146921 -0.3118653003822823 -0.62664108954314 1.4370931723000862
P 2.5700430528330602 1.098133550475859 6.698866649957302 0.2394638066914198 0.014783586067077767 -0.017988209047304506
P 1.6895515451029322 4.401878140860953 5.570546474638666 -0.10300404906806776 0.15665911538936245 -0.06377415703316758
Ni 5.293930014013917 0.4458787879314812 8.2795392339084 0.35358839115268137 0.40013332879175606 1.0041253134768124
Ni 1.239055968434567 4.687512054387127 9.848742500660757 1.1346967306401876 -0.49581796138027506 0.7757002810980576
Ni 2.9223169089637366 5.429306767414176 1.6815714901487604 -1.3381483809030565 -0.7429485405883335 -1.2026944388363996
Ni 3.7822076063938255 8.39285288734893 6.602678339757711 0.6349460098644097 1.3428146760304744 -1.2386538876501443
Ni 8.62692959438313 3.509357231402052 8.569678655008676 -0.7074279790842203 -0.32522552373927216 1.2485618907924756
Ni 5.900274399318206 6.270941836073917 10.099483791741239 -1.174902356324796 -0.5142879951600046 1.3340821812534833
Ni 3.4081557508031075 8.7151452070608 0.10939306173030382 -3.0726724233276497 -4.118222836718469 2.6956995918127573
Ni 6.644028028681822 1.6194720029215475 1.0397210564849342 -0.35332665285086245 0.610767098625361 0.3717141542191147
Ni 7.649034880453127 4.552567550131555 3.751947407228549 -0.3648850471124232 1.030273175516774 -0.9851240897839615
Ni 0.8312721253355964 5.243320076924132 3.1857608068238683 0.05215148519257469 0.7909538648230184 -0.5721157048017502
Ni 4.707073627381852 0.17416513622233445 2.341253580549527 1.2045098947785835 -1.3284620068532282 0.4842760221789466
Ni 5.171309208777118 4.056943323399667 3.8934703755946645 0.4692468957599661 -0.11685869556297294 0.5657026021865548
Ni 3.4293175653122105 3.71793123889964 13.081386705139778 0.5909660047390338 0.8445060870178618 0.4157545802687807
Ni 8.376684929979525 6.333663946005288 10.06420398442339 1.150822689667773 0.14227405031228402 0.2843804646984522
Ni 3.8501167060614563 2.477422177595695 7.970433272146619 0.9628868756523159 -1.397842968550212 -0.27108014804512026
Ni 0.6228507845571961 5.767564715108576 8.006023011298 -2.159569561076997 0.24468777409452053 -0.9506096009468595
Ni 3.4691672577363497 0.4938529249176984 10.002379481226521 0.3432175894413186 -0.010957270342452098 0.9058739486023819
Ni 0.3102822312427521 2.959775435906621 2.022093687618102 -1.920721790703021 2.1342961312221886 -1.4597278789804666
Ni 3.9627222066479226 1.7299346513651972 0.931572320483914 -0.289656625495727 2.2796313369582997 -0.37355223586911795
Ni 8.143895773589078 4.394833399481565 6.448718551851978 0.25901396090920553 -1.3057468246438995 -1.2257538917590245
Ni 2.541615773977069 7.450650916621808 2.6174350329924954 0.1124356267946128 0.6829371930317077 -0.2692996591059298
Ni 5.505088319589322 6.154859948749319 6.9969750898633745 0.4203769095321405 1.1782291067051838 0.5985093643039305
Ni 6.818150859668719 7.744736680445185 8.621245058290963 1.3239669471963522 0.425514487869022 -0.5070670519315332
Ni 2.299914927773792 3.270654538840656 2.888850708695516 1.6709450321213677 0.5300822818797839 -0.31807580006836833
P 6.215411616166936 2.5200676942748395 8.860895020254548 -0.5850591523362957 0.8048306228051106 -0.1066493591301389
P 6.020862713895937 8.618348989021552 10.412653815142122 -2.0425121192396567 0.19158678050448297 -1.2408143856365725
P 5.759940575939499 7.651959459772508 1.2285605913299218 0.6404669396826389 0.9164877195624862 -1.699880484208795
P 0.22349763913771045 7.266558764936143 12.081559485672482 1.184210263989283 -2.518404031119966 0.33542483286977715
P -0.05622917597073298 8.526233937251375 9.110357037802558 -0.3928182831875816 -0.6608689003777587 0.60650215270142
P 6.048425494462553 0.2570033856042748 4.155680064194855 -0.20280090405274748 -0.8859353006969258 0.11847026302446693
P 4.841824999040861 6.239166925544169 5.057097948602087 0.1571612518367616 -0.26080344870946054 -1.264904593816557
P 3.575215446829991 1.027143526053535 12.349744328938717 -0.8778682074180753 3.2162147988293968 -3.6969190444966844
