# total energy = -340864.7557544345 ev
CRYSTAL
PRIMVEC
9.33496738217527 0.00000000000000 0.00000000000000

0.00000000000000 9.33496738217527 0.00000000000000

0.00000000000000 0.00000000000000 13.66266835677660

PRIMCOORD
 96 1
Ni 6.656699963526545 3.24292102689173 9.266349865690236 -1.1812031017318432 -1.3084480256251465 -1.4128864931468958
Ni 7.127397028651149 7.387749271602288 4.3357245956411266 -0.6241198657831832 -1.9334760050448958 -0.6719912355431653
Ni 1.796589170809967 3.034611227628387 2.9826285277324494 1.0371812154905171 0.20821436175883495 -0.2967680397295276
Ni 2.8038228266789083 5.067543105037024 6.462797753068179 -0.38648591321165054 1.9849595176361685 -0.9100219093324843
Ni 1.3612622974581086 8.264396067426643 12.779950410053607 -0.4408120374580408 1.1783288655078417 0.3035292697127611
Ni 6.2120754625669665 2.738431379498101 4.481068172274351 -2.433720377627641 -1.4088370056678705 0.6938870071749921
Ni 3.780652493473204 8.260615405598204 12.651822380442631 -0.4971809031660727 -1.111171650935054 0.10530441506647024
Ni 1.8708488370945244 3.151457015545898 10.1100881006657 -0.9844877417515432 0.11695305504899212 -0.0990851736296358
Ni 6.4064108155162955 5.0963694846079495 3.8776568080170097 0.49443290810729035 -0.4232223494007356 1.1708307573585834
Ni 4.756212604690542 6.911068492324521 5.047932205360016 0.22348517187497643 0.10634468340552652 2.044814285010272
Ni 0.2769974234605017 1.1580027156001642 3.3767284507160973 -0.3424732550761263 -0.2674620916765587 -0.2733082660446906
Ni 0.8888569332850983 8.156278474100718 2.2512795672006765 -0.1819808819836027 3.289906214976276 2.641380923765535
Ni 5.896236172928789 1.927194700789507 11.431090550386278 0.5054308018796908 2.0643934926937804 0.869100231417458
Ni 0.7077968375857092 5.985534471819809 10.061011376145549 0.00019360406804482785 -0.5917998134942388 -2.7304737620691495
Ni 4.1675962303885 8.923547455989668 1.1018519527254642 -2.2179773115919286 1.1344254792566721 0.9119546075788231
Ni 3.099367897020716 7.820854422694469 3.5054585857293805 -0.29731954135762345 -2.1873914683852718 -0.2949811230324339
Ni 4.396022884566138 6.111080449426473 11.61635604893434 0.30038172522271495 -0.07029910263587892 -0.8735338417087795
Ni 4.919201136849985 5.730419145623624 7.979654354946699 1.159800467686351 1.2562980830944686 -1.7717836981070003
Ni 6.764873566657338 4.835653177925185 11.149079315893541 -0.041057175051626066 0.04942868694477293 -0.2066992106658892
Ni 0.025558207457006772 8.340336027857175 10.640841679057644 -0.09554579301780965 0.6858373973976382 0.21458324139965623
Ni 8.285707798178075 1.5149251971073978 5.654746165262953 0.552794378765319 0.5837409477455043 0.4826222886256076
Ni 9.123539799230441 6.109129441223648 11.888707459081227 -2.025578833819428 0.2676739505770486 3.0846087697539204
Ni 5.565871673895416 0.9746826242744407 7.615667170052394 1.2030875605097602 1.3813601404038405 0.8111339393153192
Ni 7.957238297542662 4.750154210797559 0.07265591887190004 1.205220033471731 0.5586603506277927 -1.7583558547368685
P 7.5896926230458845 1.4782387749203065 1.5217621272880149 -0.7103461811722799 -0.579779391994595 2.6375456091798446
P 8.60195782638527 9.228315474199375 8.434552921112159 0.04392806884151789 -0.7590883835729895 1.499777695813501
P 5.600961816643832 4.042591680895539 12.927972188856163 0.41866866859178214 0.33899172428542906 0.2517732201863922
P 3.296933148717305 1.6431596453476192 11.174491897857898 -1.1102259991923331 -0.7442798578052472 1.3060044491806604
P 8.375762229434786 5.281005806348019 2.1585786726640586 0.4399676871798745 -0.4719812639719935 0.8084610204688464
P 1.928305561919345 6.9165294482989355 5.412110757087612 0.4392436645296564 -0.08344386754795306 -1.1081490620586465
P 5.669368458319915 7.660946429802644 0.985861247828904 2.966829876369523 -0.7776874867314155 -0.040203054581446886
P 8.620226357738993 0.5207623627006359 12.425062951456498 -1.003010226035763 -0.7066023978591315 -1.035857354472771
Ni 9.102844176332532 5.925566640743506 6.140577079662293 1.023264862519741 0.11553097789048489 -1.5382992489274667
Ni 6.455774123538009 6.477571272598278 12.901029605722224 -0.12562872844611914 0.22772774920141428 0.24549175805305462
Ni 2.5257621504227044 5.569848370040887 2.332709422004802 -0.46177861240737894 0.10354938004857651 0.3723415033904684
Ni 3.0114044984789956 3.857777994773394 0.7960440191387491 0.628754279231401 0.0005584436066312962 0.32516947369035615
Ni 0.20398490883095619 6.6724573886287875 3.7845041010544747 -0.2536174724839826 -0.9774879133949425 0.13925917474536015
Ni 2.785320921138243 1.6529240213292213 13.435594651335286 1.4693646307392823 -1.389371697854407 -0.21925133629928692
Ni 6.737522111947878 0.3386679526047252 9.792786021623776 0.18967156575964106 -1.0141428456138146 -0.7660722710899904
Ni 6.3295466933054785 9.311938112863997 12.868102374938374 -0.3250756284249692 -0.2926676444079088 0.2662757846779414
Ni 0.19924741283605826 6.6325410676944365 0.8289497794973995 -0.1459846663946518 -2.9817412462637165 -0.2751682020715648
Ni 6.424025899146585 8.97985597981474 5.666851751087946 -0.9547357073000912 1.1499163758034197 1.6863665088827604
Ni 5.082544397773578 6.469739234884546 2.8038667010260534 -0.7251403087623189 1.4394182208888373 -1.0324730113815703
Ni 3.9766214657311183 1.5459639639705218 2.305848986584666 -0.8723426496141556 0.7243337537006235 1.988155655975963
Ni 2.776452702034493 8.143825627485556 7.034990185590077 1.9880641247034214 0.08134121938265346 -1.1370855425873385
Ni 2.0880548603640494 6.104723336574206 12.689722348401814 0.8049391233585169 -1.4142880014801127 0.09229437596004751
Ni 4.6827837505114935 0.08255565188192804 10.996863336203287 0.252806546546913 -0.4762454385649863 -0.8157544688064661
Ni 3.713692771756155 3.7538518018449243 11.533655705056509 0.6531782166017203 0.19758002197344038 1.1274536759245293
Ni 2.5119370635883325 0.5190605981294637 4.0414584158437545 -1.9641850040929785 1.3532785516762758 0.30160017101084835
Ni 4.765584912038084 3.7761623741164634 6.058177321737241 1.5526053811374938 -0.35439751731753805 0.3114755211430313
Ni 0.726123245737795 3.662247765986929 6.69865597485476 1.1396651303890566 -0.911342942136753 0.1615771215162701
Ni 0.7852266588256699 0.14519515065032967 6.4786055869948 0.2529474430001515 0.015680386849734284 -0.3206314766106865
Ni 2.7196587599005846 0.26076858250063967 9.30923657327597 -0.11243896922872249 -0.18852151131559788 0.2171404606038712
Ni 5.2498830247775965 9.016299692847413 3.5320735115048554 -0.1974823200533115 -1.175196233416131 -1.0577947779758103
Ni 3.5868212287676675 1.572064533037979 6.67191782750858 -1.3220630453054198 0.1122484504844712 -0.402744541162358
Ni 8.723452428106642 1.5171095794971634 10.352203551152536 -1.1181689081884936 0.5886962348682506 -0.24751650179256723
P 6.230371998823124 7.440977256159741 10.941133580361827 0.1029423425921969 0.5788589370628547 -0.24327443868676168
P 1.1016381819702266 5.579482056477803 7.82440544432296 0.492506637618855 0.27261278263956273 1.2744986652628953
P 4.617831046802135 3.7703373544104215 2.373341734944688 -0.7898619173104203 0.128081817972302 0.7244065159200879
P 2.2901755761897227 7.656913723852308 10.775678749794794 0.041465980454270523 -0.5057131090068001 -0.2289631642704121
P 5.11489006008357 8.297525867004758 7.408131239592947 -0.5763413128473235 -1.4024691544683137 -0.9493119651813586
P 1.8848699582459267 1.2437537268496857 1.67369058997996 -0.26337403765011413 -0.21484986479748158 1.4852715317775258
P 6.664055917898919 5.611874393625183 6.133226726270405 -0.4503855400790888 0.805029111969162 0.06648204288263389
P 6.890932967475271 2.7804760730173523 6.802560697358031 -0.39010294113894756 -0.25181152962349534 0.3418952710854692
Ni 4.5550907303849755 7.6707388106866805 9.426721806465698 -0.13346005156507984 -0.23318028767555327 -0.20597338824345818
Ni 7.754034725489585 2.359497044678613 13.354165730027907 -1.0631807248780722 -0.30980378986756324 -0.8799549147437747
Ni 4.357385454176222 2.157871082129254 9.473667357910708 0.926706569077017 0.041553397961754245 -0.6055714133570346
Ni 0.041919604955051176 0.41178781936026354 0.8462988165545773 -0.0017681476440163095 1.226696972398584 -0.7369658406423373
Ni 4.465895116136209 5.875857938925119 0.6017870799162325 -1.456627128567956 -0.14125357946756964 -1.2364378538354317
Ni 7.924173842736892 3.2857871975490127 3.213336647961621 1.8278566298411685 -0.5055768405392519 -3.1221738724918873
Ni 1.1243594928107812 7.847244375753733 8.484612617707704 -1.2884828953571295 -0.587657252080775 0.5744536089063074
Ni 1.275445941436244 4.707222695367933 4.612722019101628 0.5227433250162093 0.16819668371531676 -0.6564435176165533
Ni 7.655513478730663 7.165521035829795 9.142074377157279 -0.5364053958843342 0.19657163531358404 0.92979986329036
Ni 9.123745168514949 1.9021863229169327 8.051560675930144 -0.619296990473243 1.1431590024749279 -0.152713243367737
Ni 3.8403029356552683 4.800917763940919 4.230727681942972 -0.31710083774960873 -0.10960689909656608 -0.9854457347894383
Ni 6.311800920130502 4.7450853234572055 1.4841076689734933 -0.7673495951405171 -0.6474505700893236 0.7462097278381085
Ni 8.339561225556531 4.649495256486261 7.8665406870267445 -1.730164479904317 0.033370862150961876 0.9556944716689347
Ni 2.893765238325886 5.690176100827554 9.486400253550196 0.8303578205419377 0.06212993656152526 -0.09733476659743236
Ni 1.106389680416341 1.3926931329552932 11.750563942863499 1.6174311193636273 0.1603105960990207 0.48293930564539406
Ni 7.302726387816021 0.8064282369608662 3.7041272305818262 -0.4944879297149419 -0.32292541485118575 -1.4681397571932457
Ni 8.922389920022441 3.6751393560735375 11.786237521079267 2.1674960150129254 -0.11134085106853729 1.357475620476759
Ni 8.344630112896885 7.777717537980334 6.900508777113824 -1.3661584929627375 1.738642178358025 -0.6335470726343541
Ni 3.6310689746116402 3.767508859264699 8.00199293212067 -1.0921002361258996 -1.4169346950743402 1.8555597521833913
Ni 0.4497325951633393 3.431832763736555 0.9629084297949042 -0.2076428055260811 -0.175169258378408 0.36866379742856514
Ni 7.651163383886088 8.345516934807259 2.0227857012571993 -0.481241606227997 0.0044078992597085375 -0.2514531178428121
Ni 7.977887245603184 4.02386573613541 5.296865916092515 0.7729031779688947 0.12726395005669694 1.7141871306394543
Ni 5.142204174923119 2.2505859791170884 0.5860016499115579 1.8251721410304695 0.7714610462057294 -1.719794706634219
Ni 8.246743643926443 7.931772506263685 13.321279573100961 -0.5353946952316329 0.595145075817388 -1.0996052862536934
P 2.2412976864768455 7.317092902764095 1.084540255538197 3.1789188905924157 -0.8893253002150814 -2.1122574062545945
P 4.337613993058599 1.1690926569635902 4.629813411056423 2.0492386393302127 1.4646417713423163 1.0681786923132959
P 1.9534166244341733 2.094533327793526 8.202998119332767 0.7800762986785662 -0.10101118700775508 -0.765669893445249
P 1.7111742183896408 3.3900307793717217 12.83904168768376 -1.6071256236725613 1.355800289656865 -1.6136803940719435
P 8.531432147091765 3.8698294377870157 9.824565051407877 1.0767296672071005 0.2276387890320338 -0.2725947849174338
P 4.9413156748044935 4.617326958558343 9.75755025338271 -0.6181387084990838 -0.4782843233718859 0.3662251060800854
P 8.796666578033703 8.592361479818264 4.467063854064408 1.02054334982352 1.7639634307316332 0.6186979234366636
P 1.1516175978454646 2.4870967151303556 4.996738310215938 -0.24063571551233393 -1.1761758237205808 -0.668355695673107
