# total energy = -340887.99928355846 ev
CRYSTAL
PRIMVEC
9.09892904027768 0.00000000000000 0.00000000000000
0.00000000000000 9.09892904027768 0.00000000000000
0.00000000000000 0.00000000000000 13.31720238429316
PRIMCOORD
 96 1
Ni 6.749258002058168 2.2346423791899768 11.37101351439826 0.3876321110009518 1.1479489676644035 1.0214874589043441
Ni 4.812168800406204 0.6270545147289961 5.9508315280696715 -0.1988187794765479 -0.9967418765285477 -0.3754034301452438
Ni 2.7634539372645346 1.7559750190669803 4.683154175623951 1.1270358716608202 0.5205473458061551 -0.10986143830953339
Ni 3.4625155566476904 4.479866812856031 4.236121971994875 -0.5352825951338007 -0.21885101553707473 1.5159059688339311
Ni 3.7820699446097414 2.6221839649553433 2.6732553437763054 -0.3007447649890885 1.1950130110317418 -0.8777494224520238
Ni 5.260154571798903 4.594959166310814 2.733062604370684 1.4000893413822275 -0.12086138896446283 -0.9192118033618686
Ni 5.655512137611519 2.987669746722418 0.46154226577267216 0.33888888015897767 -0.24787337091135378 -0.1932392285062414
Ni 5.641026642576337 7.6977758600622685 12.154251146136613 1.130424842737711 0.9180347523346319 0.09022900879058654
Ni 1.6827741349224843 6.980907636543528 0.0013675690350426046 1.2846666069348327 -0.09408000710556055 -0.40380306433385943
Ni 0.5288242965752173 0.14141373538805824 0.06062798399398459 0.7476557162560156 0.976851308252208 0.48156916477074485
Ni 8.253574841675992 0.07521993649896015 7.1441333246315475 -0.3763369977031067 -0.47369464711867454 -1.5675272925546486
Ni 8.842430232500025 2.9325757313718994 1.7717207157745067 0.6388299182998481 0.31898931302157324 -1.6677902885424698
Ni 6.99328218004092 0.9518935606787567 4.718550829383916 0.7293301784739504 -0.13135508940693508 -0.19496289606556746
Ni 0.6560154959774133 7.671934901582421 2.2061008585704047 0.9615270191903118 -0.630957457530307 -0.147368691226372
Ni 7.689459438917699 3.78400801649573 4.087076054926219 0.25239619848237177 1.1980217159510786 -0.030978964880017612
Ni 8.022880594740062 4.194688178815411 12.669507119724102 -1.2480810945013152 -1.592427141120122 -0.9498195009453964
Ni 8.469428735344092 7.43903871381828 8.907783290345623 -1.4176350635754746 0.5874045126400206 0.8021476766563088
Ni 7.405873117459462 1.2325955216306155 0.9182611892600743 -0.6652186927060221 -1.5772776870731933 -3.21505497419334
Ni 1.8857439450668314 7.094562359209644 9.103772402128795 0.7559498379440078 -0.6606395579757718 -1.3440824869993047
Ni 0.4085874086399745 5.190793435710215 0.84859250936976 -0.30033647380707634 0.051060566121241095 2.016045440407696
Ni 6.785571827865586 2.1906217604838147 6.887630875360323 -0.666402428601478 -0.3861259587690705 0.7271938488572379
Ni 3.776474103248789 4.35477473638387 0.5184697153251941 -0.3953690746338933 0.5542205696888842 -0.03155874864288759
Ni 6.506343893418564 5.943283966429167 4.565456798784386 -0.4530826272952777 0.1667913187273579 -0.4944169672676904
Ni 5.895086939292636 2.847482546969248 9.205982491845633 -1.1857153877798998 0.8111665923254675 -0.03312326491653005
P 0.3845407589672493 5.691589391263841 12.05991163004128 0.8280361143872965 1.0584046436456676 -0.9283749579183753
P 4.157118700800168 6.161603669867705 12.64833300195 -0.49309413469120883 -0.21591995793320876 -0.9320238675248722
P 2.325167624230821 8.707784280533554 1.2512938208123356 1.2859657853622304 -0.44575935416098716 -0.8740737733726496
P 6.814078772554798 8.115070943795628 5.508235052348668 -0.7149106606145107 -1.2048670210076862 0.45029298036528254
P 5.198800493267351 1.028333663562276 12.63333705699555 -0.3576499628165647 0.6029283193072327 0.5185927931829456
P 3.962274234290505 6.582492830572733 7.811112120211908 -0.17738477797248803 0.17861839326927303 0.2178817096452699
P 4.863978102372489 1.1382578253210895 3.7908212945625293 0.44428431227735743 -0.6384483665907134 0.015941096710288673
P 0.3068377247326729 5.797155166011441 3.5003998576077926 0.7129864470086044 -0.8344882977705435 -1.06679903835695
Ni 0.9111303585697024 0.26971591402630685 4.768277386492441 -1.114496858653545 0.900663608046036 -0.6943613757082493
Ni 2.0919438750211596 6.726801845182019 4.685458024457436 0.626886629895043 0.36686788187040686 0.03832974881813399
Ni 5.774780899496672 5.7178852961957976 8.706867108486101 1.8048920506251949 0.3661934815112016 0.1559453771517895
Ni 0.17514346534749228 2.6852031475016176 10.09619714222603 -0.3541267801546546 -0.7600209226895879 1.559586183330701
Ni 2.2984986632081337 5.402652899528791 6.949755633181749 -0.45630473377700126 0.004778395225249835 -0.15430912709994715
Ni 0.9251427092946898 0.22753418887957355 9.075060731536134 -0.21795344342346978 0.7774859122435708 -0.26082247487285404
Ni 2.156282402278553 1.381845254709816 11.588016602804391 -1.3752846236337217 0.7902133871125682 -0.26436622636005436
Ni 4.177745972938835 7.11837425651308 1.3003861825666194 0.09367608679892254 0.4610851858847801 -0.7041475085607357
Ni 6.063289741566738 8.2914172875625 7.77118692946764 -0.06730119634981957 -1.0468089683882682 0.24172689169398373
Ni 5.4476380047134265 2.8518500329095042 4.938684859273469 -1.1567498537854852 1.2790425758798358 -0.478328289235944
Ni 0.9788354895727099 7.85617001682888 6.704785166578609 0.7805540096459331 -0.8917364807597351 0.3120789590549851
Ni 4.613520981556902 4.967096265207737 6.520116032416838 0.9691796506395631 -0.7394181588375717 -0.7385938631640634
Ni 0.6442287432961479 7.892392853345877 11.013792289880216 0.6072768260839155 -1.0470413961140483 0.8652327780422518
Ni 5.165270939746845 0.5661153473617683 10.397033213362468 -0.3101208068873498 0.08841458128966707 0.3633315865823743
Ni 8.773251074992181 7.564576637813508 4.464072891824581 -1.950531417865286 -0.5150127891411711 0.879937174131962
Ni 7.433679444612425 6.358577285773242 6.686420798092738 0.45317518700908405 -0.2619131368338715 1.4330434277107449
Ni 2.2909283542450236 5.742625284261538 2.32727402630409 -0.5054637120001553 -0.8509443864440378 -0.22751640452155653
Ni 2.758458625220367 5.816836149529718 10.972921720408463 -0.8300413177427833 -1.2487135858789913 0.9043402855666748
Ni 1.179112016720566 3.530593743741428 3.5766679907324144 0.32594851794822577 0.7308545855382768 0.8657385140340768
Ni 1.5191207971694818 1.1952535168414282 2.3770269703068374 -0.3052920180401387 0.8232880581793498 0.412633775251612
Ni 1.533897457934014 3.4192774458391573 8.297468985268466 0.505915197715277 0.3852867506972268 -0.530064541267971
Ni 3.9680793510194285 2.668670393431941 7.145544568525993 -0.22542661187206336 0.6748109643801475 -0.9452439657595721
Ni 4.602483980628714 7.149365208830813 5.56461929583737 -0.45246581964688526 1.1925907747434945 -0.18864852381176542
Ni 8.320888718730185 7.383098498066836 13.074842571124394 -0.37672137762571895 -0.3670835974256388 0.7793031679579675
P 0.30616258419774167 5.946131931219376 7.8009113108626975 0.3615858075358611 -1.000597245718896 -0.6820717597076189
P 9.043671246126355 1.8278838552874843 7.985261072615088 -0.5901838751573706 1.269333061901556 0.383949519943042
P 2.476592001351107 3.46872102625447 10.44265797325877 -1.1224685640051122 1.0826807425842129 0.09674109887749145
P 4.136773495461809 6.350051589260701 3.310830040263893 0.3613492660450229 0.4364092804046548 1.9057584845249693
P 7.200210024318624 4.291427992392077 10.31421294143456 0.63439476534663 -1.2746344195098112 -0.690589824480959
P 6.643837810175243 8.0529889509407 10.157789612698487 0.34035929405691706 -0.9697134116558462 -0.6004947701650755
P 2.747885669673331 8.837171051513634 5.616157449718197 0.8438082896198887 -1.2963450717140255 0.9160724864019385
P 7.200974334358169 4.326276890623701 1.4974526075483874 -0.42722221458874815 -0.02189474319056229 0.7489317547549619
Ni 3.134016921437157 1.567126746796127 0.4056994085619803 -0.4678402452204266 1.232727237753064 0.23296251523779238
Ni 1.826428026640732 1.38157228683855 6.9376094728033175 0.06543200435156472 -0.47099576013027267 0.028853176786266435
Ni 7.395991680519633 0.8934293020110072 9.247585525105283 0.0200368640462171 0.13011581768319525 0.05762279271979107
Ni 3.3648658501668036 1.8975452560345647 9.311214335897384 -0.3612999008643262 -0.8830674922308275 0.2742492898017212
Ni 6.628096662932237 2.25438705521155 2.670897811261472 -1.2584053592454585 0.7769241262028297 1.0953966474889845
Ni 4.287251583961707 7.410295196973971 9.856154655592144 0.6987397072816031 -0.5716359369518541 1.4014276005776767
Ni 7.3311527121649185 6.152404652606041 11.298474122395131 0.7553829096969442 0.8157619250056338 -1.0041494818465286
Ni 7.993864110024488 3.794326202029584 8.23956613052262 0.1193207839502203 1.30153690032761 -0.7278566792522175
Ni 3.4867460046870677 8.529545359525907 12.61218932611567 -0.37041034780602655 -0.011982112062540655 -0.8792051810619438
Ni 0.359475939134702 5.1085937107429835 9.841639134091125 -0.10040877753706579 0.4898190634843629 0.9414083940635658
Ni 8.85730698148402 2.4947625626483796 5.773366925923514 0.9355858738445176 -0.005486219925551841 -0.03896686818150063
Ni 4.16585367268068 2.8350989045428143 11.696139176612851 0.25055503150857494 -0.09419596385813454 0.06735956039158077
Ni 1.3986873723669275 3.50243255835582 12.691440088180324 0.2618509161373684 -0.12541841220752595 -0.9236374432333899
Ni 3.5989630965645163 8.793905643917974 8.107939203212352 -1.2832686981460415 -0.013642016263466826 -1.1177050811781977
Ni 5.722789618949543 8.010042005861518 3.098087070435319 0.010190567379756644 -0.28104651522921276 1.3355201992515902
Ni 3.174862013907591 8.45543458247719 3.2595448366104387 0.28544155897311485 0.3496142369962818 0.6056225783099441
Ni 3.879082726057674 4.444735847824099 8.846098010796936 -1.3224849633341869 -0.2188952385114488 0.7603114573468132
Ni 5.254276663637642 4.879218808518173 11.03785622751812 -0.8977975993521506 0.3391907276701126 0.4032806161714861
Ni 7.9221190545267435 8.894912855215432 2.5964412749091523 -0.13315691850236422 1.1952019871140964 1.0876709967099527
Ni 4.837782285659996 0.7186616224329578 1.7485484731827372 0.9384089451156096 -1.071422138951258 -1.7461382296247543
Ni 6.277715103375214 5.904131274760582 0.3037158821782942 -0.6853835976896712 -0.8195923544953175 -0.2706895974749209
Ni 7.974356006158011 0.20922987332538057 11.587204978333828 -0.3414337580680184 0.0011582819741592955 0.027651957389313662
Ni 0.2812870220892721 5.308988523968389 5.588750565550187 -0.21856408042427516 -1.36638346448935 0.32407469796428057
Ni 7.588042775813341 6.405664243566625 2.366493140154683 0.06622801789029885 -1.1312892476205356 0.26649715666012813
P 8.792131352754744 1.7621440929575918 3.5503393296559054 -0.7417290663589354 -0.36630995248440784 0.8830721202165178
P 2.0276326445508928 3.438849242208929 1.4896220692146707 -0.18517702032339722 -0.048914209202199625 0.33232562511916314
P 5.180520744821572 1.1261562496949642 8.075204896090135 0.6890667029682133 1.1128762923309867 0.812385295223917
P 8.767191188250075 2.0435830671618684 12.759717541820086 0.09533059168321001 0.033216853071600855 -1.3063489770042729
P 6.660889203200326 7.966631015401184 1.04239059903957 -0.5969024248281268 0.6460421197775712 0.1539496868779994
P 1.8183845733674278 3.411880016527849 5.823013412456468 0.8521993418970614 0.7961462076572353 0.2072211446076302
P 6.625376083148621 4.2648409217307695 6.120772225790834 1.2802602503370208 0.39259922519824 0.1682797303474263
P 2.5956787846554157 8.898379547180511 10.35536375792081 1.2297506716232434 -1.2864085293266039 -0.6556328487897999
