# total energy = -340886.59964711743 ev
CRYSTAL
PRIMVEC
9.12783151865141 0.00000000000000 0.00000000000000
0.00000000000000 9.12783151865141 0.00000000000000
0.00000000000000 0.00000000000000 13.35950408289675
PRIMCOORD
 96 1
Ni 5.147877978673103 3.436655997071434 9.865098470948945 -0.16447449766872319 -0.6432095354247827 0.013926894493737303
Ni 4.845974947082019 0.5354815049850773 6.508830374373942 -1.237677639779804 0.7730011369993397 0.684537447639292
Ni 3.574002479803136 2.677494239325995 3.238504463850118 -0.07985100799037215 0.5728986057143618 -0.6450525021707924
Ni 4.962984620913193 4.926500677836261 3.0436024386936977 0.27953984877669924 -1.3300285800093996 -0.034500604880030906
Ni 4.682230775238862 4.961076904099814 12.033172990196858 0.11374174720054606 0.048157533541833185 -0.6900545208027793
Ni 6.033633633474831 5.931602731369763 5.167977463950913 -0.15418031483156672 -1.27206434478979 1.2970269282723985
Ni 4.100797027413603 3.0396500875922934 7.2022553141930725 -1.4258823911859313 -0.7608557598860574 1.2909773796442088
Ni 5.710544904640424 8.241354889463963 12.793435564438438 -1.0501228632528496 0.166537550845339 1.9651005739287126
Ni 2.087954977001783 5.903653310879002 11.887874340537804 -0.007935709907308913 -0.8931580436976103 1.6855440129814647
Ni 7.95582718784036 7.854709068899589 9.408457698996818 -1.4233467692482713 -1.3974763292394126 0.6340373820072113
Ni 7.886747757966398 -0.17424756771471825 7.283067658860904 -0.31456084493657444 1.499142119112031 -0.8999182452395791
Ni 8.52282983383809 2.649517435340306 1.9239424469083222 0.7159365307758637 -0.7294178530917502 0.8979688348226922
Ni 1.575911005326348 1.0722737665940845 3.2785829470280508 -1.3590373085369238 1.372347652492585 0.21070293250864358
Ni 1.6205734855553784 6.909056582856722 1.0965839206087944 1.5292643924187082 -1.4133405499651788 -0.6919681928857244
Ni 7.594666273223146 4.172158415198307 4.137785739580392 0.6121992030861974 -0.5205902832289486 0.643492356772524
Ni 7.719206408159766 3.9856311755743072 13.432313495142372 -0.1478263475890809 0.43202349263213347 -1.5229261089055062
Ni 4.712535176293507 0.789001552169458 10.78411229312498 -1.0054707717611133 -0.6322260398300854 0.9355365086638211
Ni 0.4486164951547963 -0.23101902940130636 0.27622370282992864 0.818559542355429 1.4725407144744187 0.3532322933648433
Ni 2.939773353754965 4.467471152343169 9.75364034432302 0.2428689757182269 0.6667994069295806 0.3171777137341312
Ni 9.291219829374569 5.025902764428155 1.8307326813030156 -2.2057257479180854 -0.8335439315794032 -0.6665433250547166
Ni 6.3857123556072946 2.5679328761154805 7.54642294464058 0.2947849478612278 -0.8276766741653486 0.6797189432047261
Ni 3.2496175988754286 4.662532914553342 1.2526388070759182 -0.007146895457426401 0.64077701472389 -0.40037809781271044
Ni 0.4991646012272105 9.497143711239868 5.550072147658105 -0.27421920789473414 -0.36552859423369305 -0.5740964826772048
Ni 6.965238386619174 1.01630190295942 0.9340446225425081 -0.8447667968784162 -0.28310236931697697 -0.9020257785008852
P 9.392903873877204 5.848384290280846 13.216597275490496 -1.3229539325508055 -0.37393275913698826 -2.3952718438434557
P 3.6955304302975787 6.566288249000081 13.289701166335844 0.5700976459304569 -0.9198481513942868 -0.0766759526965002
P 2.1251235074519386 8.716358120332245 1.894738862349818 1.114518713030416 0.971519097406017 0.7283480170663391
P 6.148580417354695 8.008777739201204 6.164515785836985 1.4501795731703992 -0.5015741471377619 0.28230584155761057
P 4.765357938011348 1.216247055098579 13.277517336658812 -0.08271264580888336 0.4096266129941719 -0.9374247268254695
P 3.88920476209802 6.475977482724581 8.973552119752918 -0.11975607171542603 -0.2867782755066674 -1.6905216687017144
P 4.636545977865819 1.0094012622373383 4.262630744093888 -0.5867797345718282 -0.36876175645901005 -0.804707209853369
P 9.166351092498799 5.844130720735224 4.284727398935179 -0.36899366996415806 -0.35950398530616795 -0.06082253060401138
Ni 2.8166662883862896 1.7274512662628612 5.383492871306642 -0.2881512445947941 -0.5511838397450894 0.5746904075074619
Ni 1.4526578946513853 7.007737570748821 5.646354341394433 0.2105008438001665 0.3772281420588084 -0.6724874584532935
Ni 6.782599603275077 1.1934639873177373 9.729780192408308 1.1223515788112735 0.18945996396946727 -0.363424917627129
Ni 8.684565882719795 2.4769557781300433 11.12639593912138 -0.1946613056647486 0.6829806446751334 -1.600299344779347
Ni 3.3460896515099305 4.223758047475991 5.318458896416842 0.1566380323434399 -0.18400536861279926 -1.1054889987279801
Ni 1.8704387489499155 6.591481064334666 9.694430838804598 -0.34437484297421334 0.9114267600998109 -0.616893266127757
Ni 1.5984658773161158 1.4474276471199659 12.206953212931456 -0.5281963777109807 -1.4523053612641506 -0.6665104149342521
Ni 3.875485631138643 6.975525452880796 2.251437180076788 -0.5694504992647612 -0.2901047687767391 -0.3780120714126845
Ni 5.7574619592852665 8.386706480546547 8.573862627770746 -0.9909607510703966 -0.2790693368981839 -0.18270439041318856
Ni 6.672426675344484 0.7579842674634969 4.9794475780644465 0.4273515410777608 -0.33315840543310365 0.31101143702241923
Ni 7.899198120327402 7.624742478486716 4.767472856603023 0.0772002006310864 -0.10946291731953407 1.4094772103550306
Ni 5.1322054917421305 5.154833386385042 7.608090575220454 0.37751996226761436 -0.5522619033006166 -0.6954859762309957
Ni 0.8189289737772488 7.901790424514005 8.000793624863102 0.5415342324704674 0.5607378019821116 -1.2284610062775423
Ni 6.433861667523938 2.087106088658987 12.113823772244606 -0.45501995352730673 1.0941270367479414 -0.4384957306200384
Ni 0.5209636887569408 7.7673374644131234 3.2498594864139667 0.8832374421497886 -0.007054849964252366 -0.3872549301671911
Ni 7.508736866136268 6.595196091813353 7.330907537284849 -1.8039237731746547 -0.9351559853959507 -0.8961544073217728
Ni 1.8579610030939817 5.5019922072619485 3.0809425723787407 2.370449642593453 0.4937939889717109 2.7550954172725715
Ni 1.6580980014396094 1.2889502341347991 7.700204088245441 -1.114244890543739 1.5233225730129765 -0.19314332635832543
Ni 0.9859518627465599 3.3632864863252774 4.494083345498235 -0.3750252208702186 0.1569239390149749 0.04763945625483408
Ni 0.2794805131601387 7.691348265985435 11.35330744428335 1.5429465178914912 -2.108471199739285 0.8039469346485768
Ni 2.5738750945150506 5.510225511403904 7.210257684194461 -0.050441187369687314 -0.2672548607617591 1.5047162707656987
Ni 6.05117732589261 2.306438755207805 3.022186720092972 0.8076133277565704 -0.69247521442913 -0.9279550967721373
Ni 4.20063724992436 7.238762989632278 6.6575884722256795 -0.9885896797350587 -0.08244833640390317 -0.4304335224371942
Ni 8.359888911179514 7.233952622356435 1.1728880292281645 -0.5909881162262208 0.6391567055116476 -1.2964790261887285
P -0.11281087127541044 6.054673285411866 8.64687250195017 1.222759585017391 -1.5939415208821195 1.3871626060182303
P 8.464512117471184 1.7133122550479076 8.318389224614771 0.2921002019402131 0.6143789843463354 0.309199580624661
P 1.6621507586890862 3.4757870113248277 11.485273070261524 0.6805650932551054 0.8793694745539501 -3.227975024689118
P 3.806889976341757 6.0501367530853125 4.465347105919852 -0.15719878994291636 2.591186048078699 -0.21982392097330528
P 6.735445225007517 4.403101683596977 11.129723033755239 -0.3390752851381709 -1.6790954291426439 0.4991100018679856
P 6.266804092794383 8.031889408921192 10.84353538990385 0.4694415282692754 -0.03543802909263574 -1.9052177815301512
P 2.3917931089011755 8.775387807567302 6.439534614890042 0.7015414383964563 0.45426507763915314 0.5598060341964617
P 6.824058214597427 4.122813357336436 2.0616923797986426 -0.6102086550187297 0.5033754620125589 -0.7941988541228774
Ni 2.6764719221819826 1.558531613878142 1.0561421497314716 0.3291348860960074 0.6466141902309575 0.21635190326430484
Ni 0.6927987705684232 3.579269238661127 8.716355381982751 0.6505068404171442 -0.5280919909226325 -1.0677642304836965
Ni 0.2425602597306719 0.3129924342541222 9.88377584005678 1.7987116328460957 2.4270694479700268 -0.33176306774747377
Ni 2.578512032989677 2.2235306603947493 9.880502599629612 0.39750720402281864 -1.9610150910054294 -0.32662651785185687
Ni 4.984973567341098 3.191801913248885 0.8585939661817554 1.0115336901257417 -0.07856957017478727 0.2510543397424967
Ni 3.9982275832416003 7.388121698806121 10.980296778627237 0.012051531847895373 0.16435828380583306 0.24329732150489716
Ni 7.5214062964567034 6.204196295555284 11.82408266353461 -0.2217512199030052 1.101752157393367 1.189100759312365
Ni 7.4779852013311165 4.047618280261687 9.147426359153439 0.3060507505830342 0.17392767266182305 -0.6401319249407234
Ni 3.0616116505252684 8.656233093300031 13.085327190283516 0.05831159125669957 -0.13262932813366834 -0.8412893798527769
Ni 9.337224100855114 4.880259082732998 10.654939783629555 -0.5659296305956962 0.9496117558099646 -0.010932587752103751
Ni 8.253540544707324 2.3764127125827783 6.0279552094097415 0.3288926881782142 0.6995920279795693 0.5177337876167599
Ni 3.658672246123284 2.774486578364146 12.150816135544051 0.4896689110597438 0.22906677972781198 -0.08442474340398362
Ni 1.4900637487242578 3.474025339817735 13.527700248594524 -1.4968924038459057 0.6720418862754427 0.8226995326657315
Ni 3.208505845155512 8.859911528581163 8.639631393107805 0.08817572580598362 -1.0258616767126396 0.67187270768743
Ni 5.490281199264024 7.7824440257822305 3.92665260419645 -0.6258173080902641 1.5196808624953313 -0.587121434181963
Ni 2.9224487292966166 8.404396218270612 4.250887788685214 1.1344856430706463 -0.21805705888086963 -0.04610656455007544
Ni 5.472381521412169 2.9388240592640966 5.163101376287241 -0.09566406376322881 0.8928284282723333 1.1056743752659088
Ni 5.85953850054855 6.015852617434334 9.669515509551958 0.9074384648760242 0.47233093400192855 1.466170806392333
Ni 7.705688089496534 9.118174397087229 2.8592412335185733 -0.023494740687830504 -0.5317547844862004 -0.06529907831812626
Ni 4.571081169322471 0.06682850659080751 1.6524907744613357 0.5126448031296267 0.21721322282333558 1.6709342334880901
Ni 5.703762925729701 5.884201901647843 0.6619220544697638 0.4933191062178214 -0.1502508978701735 0.5735758342870444
Ni 7.893684910015051 -0.018215500826701925 12.043780443349148 -1.3785985184983032 1.0400672787890604 -0.5798588390822788
Ni 9.368806398339775 5.264924163830849 6.526839586205513 -0.878915417735667 -2.138021916813208 0.1633290712103703
Ni 7.183329668064548 6.199878831188162 2.7450840070758256 -0.4051145840564314 -1.1530968304139302 2.1439151423691913
P 8.428521077302971 1.6328139077885948 3.9708723845907965 0.9693861102234144 0.8261039303615901 0.3043178270523275
P 1.6147042898089514 3.3982643371811214 2.336884637652916 1.1822171448186543 -0.9288740090419808 0.5744440958246106
P 4.685644584273331 1.3883340650634075 8.674473239272169 0.19165697162078607 0.8726722650394325 -0.019520329421114768
P 8.633888161438051 1.8546658558708713 13.09076463959323 -0.13852255368965177 -0.7153516048066713 1.6036122112026638
P 6.306263708986924 7.7997412667456505 1.6700317285296225 -0.8512765729724759 0.9710848380820759 -0.2354117481092333
P 1.8154253076377627 3.474855972497245 6.661022362489763 -0.3093224793557705 -0.7479063988142409 0.5823417534051325
P 7.057639426340914 4.299619456260677 6.482365139308328 -0.3857384935226647 1.0491512433681995 -0.5826402584821578
P 2.141863950685137 8.733691872622236 10.907393700078037 0.47383374379970006 0.5527154458982674 -0.24323767191155526
