# total energy = -340889.4752369107 ev
CRYSTAL
PRIMVEC
9.12014801398843 0.00000000000000 0.00000000000000
0.00000000000000 9.12014801398843 0.00000000000000
0.00000000000000 0.00000000000000 13.34825849716005
PRIMCOORD
 96 1
Ni 6.023410860077573 2.2698680324663094 11.519373465410851 1.961322852053835 -0.23312166652347593 -1.0613297877122627
Ni 4.691686850592346 0.2461546182770042 5.956860228180472 0.49302548623680253 0.02832198687314477 -0.35466748314947305
Ni 2.6408938929914294 1.6905288717038796 4.980034921529825 0.38456195671606025 0.330753652646353 -0.33583595226526675
Ni 3.357783125737534 4.351842776044696 4.750471676476047 -0.9419856067232746 0.5302990258762803 0.704430072798161
Ni 5.108359051806916 4.644964332440088 2.577495184239638 -0.15525606439424872 -0.37153494832877304 -0.6673061713626701
Ni 7.490486985880908 6.6100461392319225 2.56233202619163 0.7100499900880998 -1.8823753297143386 0.8875882629193166
Ni 5.1638369120294785 5.009980015439863 11.610996296146984 -0.32324191765034005 -1.2524105751146044 0.6667932362819936
Ni 5.482348960428753 7.706725694721442 12.75151093093516 0.6377006897914114 1.0957234347007838 0.01656176101342309
Ni 2.088751013534882 6.805080503995939 0.36516160536761383 -1.4196891178910258 -0.760651100074419 0.39222024459226645
Ni 2.82539448682711 1.5818258278122592 0.5443989617983234 -0.9342373302364233 -0.5058118393681935 -0.818433815410842
Ni 0.7392135309957824 8.934197292534119 4.888091973599244 0.05185015190207199 -1.0313782356554946 0.19762218806528548
Ni 8.781006166747764 2.22140356604798 1.3766726588534495 -0.8013966574228972 0.8757151656308144 0.1033999989549058
Ni 7.279264358434819 0.33205638017907513 4.776500578839222 -1.9711007573762056 0.11744696396627516 -0.25896433861819274
Ni 0.9907307962908479 7.453450064893922 2.6501900598375348 0.10486218532272908 -0.418870243079627 -0.18460546409064335
Ni 7.768733580904773 3.671178771114474 3.801704505116328 -0.5253995316921338 0.574736687364365 0.24055292599054054
Ni 7.9409493353980585 4.1129040188573 12.735360060859847 -0.6198968288407711 -0.9532933184266097 -0.35091110143083437
Ni 8.075325595881246 8.556148918056776 6.855037938640215 -0.43814657481073577 0.250857136130026 0.8444096706493134
Ni 6.709291589658016 1.0290810185883783 0.39341308779592765 0.07678882412528065 -1.3899990470257608 0.27145295800350666
Ni 1.7999068065467527 6.228605069702336 9.299891514544342 0.7111311389674204 0.9875201008199639 -0.05958300176995545
Ni 0.2956633416401774 5.166271991542782 1.3890733240753166 -1.2268548381326871 -0.5466556128574327 -0.1762285528808578
Ni 6.130007149783526 2.2715187792524816 6.751789655261353 0.2954287520928138 -1.921381535774207 1.356375702544361
Ni 3.4328145832504426 4.028579130542683 0.40835645027737916 -0.9383786060983065 0.8656408121139478 0.17583980208287134
Ni 6.088966483828975 5.584011250072171 4.562194429357748 0.18792835781628925 0.33132289488626165 1.4542455157096568
Ni 5.23781955252355 3.036580633681239 9.012316832156406 1.0119368391014314 -0.4891402922497835 0.3431057464538026
P 0.16720058511363925 5.785630361684895 12.520185673289733 1.1364077997940234 -0.6184510975331801 0.18388658364674781
P 4.080171807721548 6.062098527850729 13.180671350792302 -0.2305148250282482 -0.4850008161601131 -1.013957469075886
P 2.4446009478048074 8.67552253509658 1.4183325828565143 -0.7608681011812316 0.0009834469591918549 -0.7968182940235954
P 6.331808664356048 7.625784381311076 5.76044051293679 -0.23200169398641982 -0.336372284384711 0.8308771833805175
P 4.634248158551954 1.0446035104671882 12.872286314721013 1.040020227601209 0.005003623862178479 -1.279528771487635
P 3.939146959353722 6.35726299739586 8.444268414605475 0.7601494778476522 -1.054436403026539 -0.9325460585769295
P 4.703369760167408 1.2445901155897199 3.8434310061997192 0.596918622778043 -0.6616435737602541 0.5279760341700585
P 0.10946092818958111 5.435526120648606 3.828640862204498 0.3540830714009128 0.9399948015454908 -2.032166000118642
Ni 1.517236939747786 1.2934741088155848 2.7247536537585617 -1.05126777549057 0.5571847945235308 -0.6457513280100298
Ni 1.7181720402612672 6.503550171153858 4.854093885922493 0.9777828189275418 0.16849801700581948 -0.12175227620984837
Ni 6.041614675465413 5.739117606936404 9.38274441097339 -0.7027799387892477 0.7933473047558595 -0.6755087617781205
Ni 8.626848305274482 2.3184054600685586 9.968839777366737 -0.3665189831714204 0.12491910397360423 0.9145066845767154
Ni 2.3879374683435572 5.442347991345051 7.074764192072085 -0.17607351536023225 -1.5707884798044238 -0.3013042370369843
Ni 0.6464734821308843 8.670524693998113 9.10955858606912 0.14455513303697684 1.3001878424988833 -0.6069832061028966
Ni 1.0461356953294916 0.9094739257600332 11.230437144928022 1.363550108805613 0.4692044725578048 -0.2844424282846391
Ni 4.183174759119481 7.027776277613321 1.7664686959565825 0.3600572867064767 0.5879606422538068 -0.3144433455221036
Ni 5.7163901981455725 7.891563734032748 8.046957375558662 -0.2505648017005878 0.12641240068967907 -0.17456273514266066
Ni 5.239233175461984 3.1025922648321367 4.714618550698152 0.7104562243875829 0.08018627984260383 -0.025551108996226965
Ni 0.934058196681608 7.387693797886742 7.0802764095171815 0.4180006959904801 0.018550766418993857 -0.45154767870799006
Ni 4.890050069372676 4.80461252300329 6.9387855215870715 0.34222822894485583 -0.5428876611745682 0.32307453883454035
Ni 8.292722563516499 6.944956213717037 9.33961614314395 -0.48258912139482685 -1.236414199686348 -1.7279816133203856
Ni 4.870304948974542 9.092860507114413 10.60555196510403 -0.5993812253859226 0.8515010302784561 0.4638334380538786
Ni 8.281979029184397 7.093423102844623 4.797697626797349 -0.05505220377913744 0.1317816354213924 0.5647777763794402
Ni 7.240822934657389 5.9340790105165 7.157109096258095 -0.37058981080668435 1.2112497846055785 -0.9861013660955661
Ni 2.283283770159453 5.265718085224655 2.623467114212328 0.6816526698923292 -0.3005856137034049 0.05388903670897171
Ni 2.316243984994952 5.272430514145221 11.69954837305492 -0.3498682619886168 -0.43312032524073796 0.22226852585905593
Ni 1.009272057154315 3.4770837815934184 3.967876337536706 0.9215587063274904 -0.7358972901685068 0.204581392991938
Ni 3.615427306452214 2.618266805828487 2.5254373795132876 0.2833427674625572 1.2662191988629226 0.8548686611991083
Ni 1.1433747131978076 3.4237400360004924 8.355889620509346 0.16252997234784267 -0.08159395882340786 0.20909830702568505
Ni 3.730788058376462 2.470128242028538 7.097135915091311 -0.3261524064289157 0.45920596658419627 -0.02696984372062452
Ni 3.948777835631056 6.888475137215585 6.029154729281612 0.7737683541826674 0.9749846873571145 -0.5933923547923393
Ni 0.47902938906591475 7.351167605187192 11.123196972773984 1.857307588112434 -0.44702845068139785 1.3761120046310236
P 0.19337267380025583 5.449087780709587 7.919682062300409 0.29627618769477365 0.8993510598821995 2.023127801175774
P 8.424007093831111 1.145435866643525 8.112217506515192 0.7304061851469486 1.0280584272536424 -0.6148374120399926
P 1.859096567001205 2.9517358969311975 10.479116617475649 -0.2935114804654429 1.0014397962248496 0.11501958547170513
P 3.98316991370097 6.218071298774003 3.748030610166167 -0.5426482914702525 -0.23117328454785346 1.0724986598448882
P 6.921654235602842 4.064457792734951 10.328761857714154 0.13818702472710395 -0.6671076821986188 1.2035084500972628
P 6.700262643148016 7.997713136487197 10.161749147649108 -1.1264956828866342 -0.9038929136166111 0.8347364092256077
P 2.5609740361559337 8.803286688287091 5.8902658195730195 0.3402441086352914 -1.3039917896260058 0.7619939872555587
P 7.053905501604385 4.029554986377603 1.5587427332498218 1.0227125895606968 -0.019322611588011882 1.135445178770438
Ni 5.60973006740369 3.193310376887674 0.27127788994478225 -0.6553078613502133 0.17131646029122105 0.17057161170539656
Ni 1.4225698036126222 1.0672488379261105 7.243832583494056 -0.47267674737712145 0.3744894029714067 -0.18683872429653628
Ni 6.607565458978669 0.9014108029221624 9.289413376518747 1.7741694247303574 0.3508969603634473 0.44933987242339385
Ni 2.8640091934163476 1.2985905118379188 9.420399677994089 -0.03347319205678106 0.4695983655621138 0.10644289954628763
Ni 6.383301019907024 2.1770340460771154 2.658559619647866 -0.031155342556881828 -0.6935787319059539 -0.4075576462802852
Ni 3.8928439680089983 6.898270176156738 10.602361737337164 0.326846861392779 -0.5506685906715677 0.15216714105627988
Ni 8.330780941078352 7.2905642217943045 0.399229006169087 0.10263843819853291 1.0099203228920348 -0.3542350235977447
Ni 7.6402580561710485 3.888274773866059 8.282860947495019 0.31963106037063016 -0.7758728021201798 -0.3731740265940928
Ni 3.2004514527637657 8.438243644843347 12.42135518959718 -0.43261484635922914 1.0689096569420493 0.24494976950665556
Ni 0.22346004201893657 4.786882955310925 10.262782147081221 -0.9935837905155404 -0.8033365547580875 0.9257056386163284
Ni 8.558538396830128 2.237655669765982 5.85504015997683 0.17008541609759742 0.4763503395739668 1.8361047287825734
Ni 3.7341442728367453 2.6698321225633825 11.607164921976429 -1.0499901943297272 0.37099347400300625 0.14088385483297672
Ni 1.1088549530560352 3.018148814593651 12.677829255324756 0.11927913207900748 0.2795910137296088 -0.27014915159041863
Ni 3.152880760848446 8.446561219810135 8.097614325553764 0.20972359931450976 -0.6363655159197557 -0.20046942770609347
Ni 5.597426987765314 7.859159848224633 3.6756430835555305 -0.6780976055512192 0.687838486988067 0.07500987784798695
Ni 3.0478348963007758 8.923964486489451 3.41680689949857 1.1523679226677057 -1.7971717991628016 1.9539201318318606
Ni 3.7570084838474247 4.512977550730252 9.750649356856366 -1.6455286489307916 0.3495018797881335 -0.32901532979900755
Ni 7.18238102633811 6.243069624414319 11.63052435702296 1.1077212304926083 0.6180014115902711 -1.0320040421649515
Ni 0.6499801790330009 0.22756137256999467 0.0863614173607619 0.12522506524979723 -0.42174653618615754 0.9924802730387166
Ni 4.722266706802482 0.5032698304082704 1.7369558970612655 0.25479349506995475 -0.9832965496569194 -0.1902850309739239
Ni 6.35536600661396 5.756254365009426 0.47668733506210836 -0.6915732714401509 -0.2657505083020907 0.5926241091677471
Ni 8.105978413275302 8.956632856589273 11.529531486242 -2.0039941656701163 1.042249888262676 0.38841989700956975
Ni 0.016240247525615276 4.826674160990859 5.919979261724114 -0.01967639538300482 -1.2985107119067767 -0.09063987107576002
Ni 8.41222386262816 8.989666032608692 2.425444988966821 -0.8340717790584152 0.6222720139411669 -0.39053951445573387
P 8.882622855651233 1.3715243353131505 3.9828269961365494 -0.21690443333366513 2.4252560489103714 -2.4028457995359713
P 1.6009051774071303 3.2881872764266054 1.6010839323077326 1.0616349776575071 0.1887022598678363 -0.07697445777352549
P 4.802195683785967 0.9566761636965606 8.323013311035353 -1.371411770941877 -0.08367398128088817 -1.0570584140304184
P 8.276844385866081 1.8390504817194042 12.521947685881381 0.6145587044573093 -0.31990693973983614 -0.6560681365550056
P 6.4923141488303004 8.11790756684609 1.5826366089685613 -0.7691539953391076 0.8981462409408209 -1.1428396714622961
P 1.820700743963725 3.2731116717993003 6.330652229590927 0.301335604495552 0.020540286045196886 -1.4549813654344166
P 6.912351684653144 4.0125459103764385 6.061791178863469 0.12229889274193775 1.1884898652012434 -1.1156158027493366
P 2.343777711776461 8.39764074599231 10.378658187366899 0.31058283412543286 0.4185827937461953 0.04600526308552077
