# total energy = -381172.26298516727 ev
CRYSTAL
PRIMVEC
9.18237155981626 0.00000000000000 0.00000000000000

0.00000000000000 9.18237155981626 0.00000000000000

0.00000000000000 0.00000000000000 13.43932894612714

PRIMCOORD
 96 1
Ni 5.413650642591687 0.5718863481964628 10.66510204220821 1.8132476216787417 -0.7204814698340688 0.3682223390157723
Ni 6.41830306801462 6.569114334113515 8.653287649288252 -0.7467118642855075 0.19621142376068787 0.21707695435578742
Ni 0.7399714911697642 1.2293634156793982 10.699587355832234 -0.28961420229356577 0.1914019181871865 -1.7446325916135053
Ni 0.5633173593068203 7.003183389826314 4.736073364350685 0.878025558931546 -0.40010119000224 0.4566826859417103
Ni 8.540615362350447 2.578005834441155 12.274407189545778 0.7322023578154229 1.1138679668202947 -0.37556103876903063
Ni 2.031011976580024 5.809566945586456 6.447920806616787 0.47737235308057785 -0.21256518252836296 -1.1964397161759395
Ni 4.844894564768648 2.1166192241348223 3.911234724752253 -2.221270123410587 -0.6154369932972046 -0.48396131915200513
Ni 5.713905001466978 6.508207665334048 5.0305823135086065 -0.7126591455761726 0.6648461398579517 0.15009123236385763
Ni 7.084291275448059 4.149522769200987 8.665154945945961 -2.182627214227409 0.9517938510629478 0.6380431607324947
Ni 6.649478447660615 3.6889166604544696 13.028838160788968 -1.3362365085923247 -0.14883859090367915 0.09032876759324444
Ni 6.2441502140916025 3.0266656781368524 10.848212299326518 -1.569709387807632 0.5960840426918895 0.051570672988440217
Ni 9.104550695245216 1.7690664707347248 5.395997533782923 1.1049004732143617 0.17714103739279816 -0.40633482961677764
Ni 2.7107278290949193 7.040335264073521 8.218875172889136 -0.04291659685786803 -0.03120239374473336 1.8741825094909015
Ni 5.139914972007531 2.905247182543471 6.459654040653633 1.1971711950253254 0.09894427717639734 -0.4260659894971178
Ni 3.1435848117971807 3.2980965735267302 2.4118618447589704 -0.4620884303383138 0.6508549677851824 -0.0886711773851634
Ni 5.493509725717727 4.861174909069264 1.3281510389866533 0.05732634452529482 -0.48478047261919094 1.5562869437541391
Ni 3.9046748387012884 5.320385297379406 3.286359666541367 0.33968489369771177 1.1329164988113134 0.04328683571309319
Ni 3.412058983631052 6.029099078434263 1.1491673395269428 -0.8287732496636373 1.1634272658056608 -0.9849202013032715
Ni 3.555946741775822 4.187234768097003 5.211206902718187 -1.5735878969264319 -1.0716442822643932 -0.5886352997233282
Ni 2.6951912568689496 8.904632107477001 1.1874210983291835 -0.7477616457062606 -1.1984253791474007 -0.20413530659345488
Ni 7.898446226048313 5.375681537299497 4.859352208367814 0.7328219936772927 0.584446201342645 -0.9153181247344172
Ni 1.4806665531973338 8.224099023917123 11.196089190433222 -0.08194697128745242 -0.19206989078848857 -0.0037566388289548207
Ni 5.594322980131985 8.879105115285396 4.328242934604618 0.3186558409415544 0.9253803940664256 0.6289573963811426
Ni 9.00978862351235 4.928279678470796 12.914240330591245 -1.2539352392892469 0.03828141207870181 -0.9120965324733259
P 3.507179167844305 6.9353164836075525 4.889765140323863 -0.835974909618399 -0.9378692705620557 2.3472914593094347
Ni 8.409895124638327 5.698616353265891 2.3972940127043008 0.1005635579473752 1.1119152139692978 0.7830356384172064
P 6.815807921242896 5.557217017741238 6.732902127322187 -0.29186108934621346 0.3834039318522171 0.6511606719510592
Ni 0.7323409406261584 6.988353860189823 0.4107182855173831 0.15555714057443532 0.8828589757644473 -0.6161170500833648
P 2.379042213287302 2.253317185557999 5.267652775524028 0.24828603296874013 -0.6281498128781827 -0.041087514068929236
P 6.372326934955854 5.758063025009939 3.0332834131269566 0.12451724054949523 -0.31483466742325134 1.0880579477357262
P 0.07689868662151794 8.432988788437568 2.0781634531641586 0.33713050270697426 -0.04690283519912568 -0.4942300480678649
Ni 7.921769449129852 1.5595706697090124 7.292905568829744 -1.0159675575273794 -1.1170018844635858 1.6009238657372236
Ni 3.802695423132953 8.249552557138394 10.147714904103694 -0.2926851279094056 -0.40544317104044364 -0.6198405216815389
Ni 1.7311524596702863 8.649968222066216 6.870924186685663 0.2473907748479804 -0.457733752914044 -1.2928918230581024
Ni 1.2545598425044937 4.7083435212861415 1.5511945106165006 0.3352132310796033 -1.6714340559426442 -0.2789821765010163
Ni 3.3916098427638923 0.06637201617243284 5.275500948267253 -0.13481450871044526 0.25466751101505175 -0.481523399134474
Ni 6.114586955162266 7.404425468170411 11.509105208930057 0.8168032217859545 1.6724851229149775 -0.6379719411749272
Ni 8.300386164610597 3.304570145287551 3.8637398274818 0.770732138459505 0.870683773854494 -0.15440991434386955
Ni 3.632004323186998 1.0835657243059043 7.488340404696102 0.4592427333594027 -0.7524297406058913 -0.06459279627972102
Ni 7.191137347801124 5.887809931365114 0.2499257818241439 -0.32433077983914466 2.178679028212938 -0.4355731576566047
Ni 5.023142756287873 5.884072706249292 12.64308857928864 -1.5822242324451912 -0.9651890414229312 -0.10301870435608709
Ni 4.021584789990325 1.7265245445391462 0.7874718978629929 0.09523983174161663 -1.6968059590485294 0.30532955614629353
Ni 1.0002540695740922 0.7704652279931825 13.37710438443845 -0.7577907478074883 -0.4843061040859336 -0.24318059342137474
Ni -0.07498416220714754 4.252631616438231 10.74325136779969 0.7378608416527809 0.38887832470322703 -0.5441012218666953
Ni 6.769703234986042 1.8516251710205973 5.00465772464006 0.6133919378427177 -0.35538687781400086 0.47436750481598305
Ni 0.20440417614432932 8.935301227592095 8.560798214450141 -2.449230557448098 -0.9536021079162802 1.3651783884376554
Ni 1.2044883718495207 4.738002580559122 4.034714662700677 0.09871981987041709 -0.3824328261881994 0.25520178625196693
Ni 6.6931222584112255 2.479772826359933 2.549346735401867 -1.3654123588253324 -0.1430284119798053 -0.9105916657930252
Ni 7.825216814995056 3.6716354376830305 6.454398969563254 -0.3337423029610317 -0.2853939935646311 -0.6227414973784179
Ni 8.0996503457974 0.44598134598983735 11.9882973554086 0.4148143278426985 -0.9790033215982044 -2.6602595058375926
Ni 7.240951712059924 8.367913323091557 7.118435923097154 -0.44398683564159663 -0.4254417256495576 0.16224560833820445
Ni 1.9928959533471629 3.5288036522368342 9.540364401503485 -0.8010377314215817 0.9637016582441275 -0.5502602994895556
Ni 4.722401731734109 7.974806825712124 7.378151030955641 -0.005252506648190955 0.4429668790175146 -0.7752755348558132
Ni 7.967148728054641 1.6239023629803753 0.8239314213147875 0.752041504028537 -1.7136477131962164 0.48151697137657073
Ni 3.908898729495583 3.8337318380997254 0.12870378897641013 -0.7106482857937308 0.08189889165833637 -1.1764632730540128
Ni 1.3994117496349174 1.6316614667220681 7.905792123081869 -0.1722734248878517 1.201975044171872 -0.371082948393019
P 5.15280702130142 0.28450016444970233 2.1922498252809226 -0.7206524481942944 1.8467606658345228 0.20492823480839548
Ni 8.21916809053335 3.7951475139309747 1.2174401065568083 0.14818475936976416 -0.457081978262658 1.2587398597667416
P 7.2455520800771875 8.43200627470933 9.842749070518506 0.4052133144178247 0.4290217296913321 -0.11366461410570747
Ni 1.3925984301362946 6.629222136590585 2.6346059710847003 1.6028959018619298 2.185120412962908 0.6045931086041652
P 0.9317443973648949 5.544958552066492 8.796954112284885 1.6896976301385225 -1.6645897793273012 -2.1193487658837373
P 2.214484937364366 0.15979070698528805 9.250733127975844 0.3623309132320018 -0.30421369737429543 -0.09904557864095201
P 1.6256194664119687 2.742609022220551 0.47430896142548595 0.2563004186327844 0.8268140690547373 1.8912803455134526
Ni -0.18988960184315276 3.1694699164691724 8.718710208269098 1.284260886855982 -0.5282485711051548 -0.7472237709249195
Ni 2.130374416330155 5.927229851321432 10.513855531710075 -1.264264646239713 0.7518350444446859 0.3428483790273579
Ni 7.556182518512376 8.383468260060111 0.15828938927905514 0.08608104806048401 -1.6566383856907083 2.388764895962873
Ni 4.3710933884756065 6.01751092586383 10.148090463089535 2.073691115945622 0.3198408623885911 -0.8320272378245607
Ni 5.600374162813377 2.014851003106202 8.588188309776884 0.25682029569199644 0.4323849897366102 -0.20808734926266742
Ni 8.661335997725642 7.180063408023039 11.67552375151387 -0.8137955453078822 0.038198365446592275 1.5871851759948923
Ni 1.945257811084555 2.6705825018065386 11.859428283748933 0.5555932816666947 0.07555520882849569 0.32702118218711423
Ni 6.9461057698755875 5.126049591356694 11.112617762440928 -0.22393357226630464 1.5052621159668398 0.0576976118217845
Ni 3.566717663301273 4.200742036267453 11.12859692496317 1.768709944277683 -1.2598865717766754 0.3697452034182019
Ni 1.925561624663334 4.996669979853197 12.742056177073218 2.1171401882681926 0.8112594091495898 -0.31840310150080003
Ni 3.3126689967670457 0.250870647830085 12.212196624042855 0.36501951580775843 0.9877558709798537 0.24859739356157187
Ni 5.843817190505408 4.154141501960835 4.41073368534293 0.4781210583211443 -0.2559134676070109 0.025820560607529727
Ni 2.773250595221769 1.1409188153953893 3.0142667221813397 0.40723111617880187 -0.44708938582632035 1.019425948389625
Ni 6.169699547656517 1.2372143431340106 13.046496779020506 -1.388404191734815 -0.45743884738144447 -0.48579528703695046
Ni 3.807956921883237 7.859402783314965 3.0974700249319067 -0.6132752097591955 0.1612135675292643 -1.759332873938157
Ni 0.530405904122233 2.04653018406341 2.3936385106929774 1.177846012334152 0.4366481358883383 -0.5088835363149816
Ni 4.8504131699151065 8.174716231109047 0.3777930567758579 -0.28332965483643463 0.09202723834158989 -1.4358397595089594
Ni 6.25740955823717 7.65248722862229 2.0423209850631827 0.9684900807717061 -0.7932899691553629 0.6494681147399848
Ni 7.6130856734085555 7.686737473541242 4.073446823047227 0.7367758361187182 -0.6560689078859541 0.2372392882362753
Ni 4.480666625102379 5.4714444875031845 6.920434614454698 1.0280900518225262 0.47335037640537836 1.2007691967892287
Ni 8.043288950807444 0.5963950154117916 3.3246887207882008 -1.0386056066418694 0.80652883644314 -0.9631257311359994
Ni 0.9186227887887063 0.12251670719989795 4.193877295489595 2.0594610883891695 -0.8506582226621866 -1.4180950339310288
Ni 8.935631792958606 6.430947193283628 6.827003986559164 -0.3915448157917967 0.17291491512659252 2.000802912426328
Ni 8.537061784660466 6.432719390942974 9.642959954185509 -0.9748165372103664 0.6862495452343923 -0.7768359373643976
Ni 3.1554759826202488 3.409552196268352 7.409693394580599 -0.6176064901446976 0.5676646110089321 1.1726503270658255
P 5.723261837813469 0.7523897301049899 6.587152184279412 -0.45081877096176554 -0.5232120371225119 0.2838351337179434
Ni 0.9982798597463242 3.6238044656232913 6.330461749524493 0.355415159948775 0.6294513052984257 0.11068907641715131
P 2.95492381123289 7.280628738412416 12.529472344582025 0.23353998500781714 -0.8773550152270827 0.8846659470661989
Ni 3.6261918821591967 1.88691302389554 9.917848012366804 -1.211354685614559 -0.22894696632049602 -0.2893493786679533
P 4.521546542094116 2.182934309605245 11.889652977093498 -0.6304010708062047 0.7794947151434833 1.5130859828866328
P 4.799074532021844 4.224166265433203 8.929923112726405 -0.45868274709087453 -0.5435584619893478 -0.17843250251071205
P 8.946209884686926 8.775114760404126 5.893830812221243 -0.48443337369241735 -0.557247529440666 0.7563874397020587
Ni 7.483972350672525 1.6048673072921742 9.896331879955518 2.7571679835308838 -2.0820420590134785 -1.0670646333135108
