# total energy = -340867.0896319707 ev
CRYSTAL
PRIMVEC
9.27098584636794 0.00000000000000 0.00000000000000
0.00000000000000 9.27098584636794 0.00000000000000
0.00000000000000 0.00000000000000 13.56902491176971
PRIMCOORD
 96 1
Ni 7.536745860006467 6.1918874005176265 4.446596525822481 -0.11398240245644241 0.9175444429617745 0.8710439854073901
Ni 3.5847564223312456 3.5693295020936255 12.844357371591126 -1.2954169034728011 -0.5278119977883685 1.5847616541550642
Ni 7.5260564134716255 4.916904360398345 0.6031768206152279 1.8179218872259593 -1.24257250597826 -0.9903637409163459
Ni 1.4634899927584244 8.718564764628246 3.516588718531261 -1.3972940380252774 -1.4927025341342743 0.4238990637527861
Ni 6.843331754085453 6.647398741884811 8.642871801719561 1.5826669764095647 3.4691709835802964 0.5405443577533723
Ni 3.36751868494668 5.766868331182613 12.037367200913494 -0.6726139567288287 0.5937790487077967 0.8584514934543602
Ni 6.52695009541416 8.090956115345831 6.00174226470181 0.06940590139764821 -0.053430609015314434 0.24980246961326658
Ni 7.000382252177572 1.2117827304679258 0.5450866782925831 -0.2768854418729877 -0.7793875001416577 -0.5727960186982264
Ni 2.7533807779150226 7.698904671230154 0.4223239937862897 -0.3212937927850337 -0.6570261295929007 -0.27416341495613433
Ni 7.449950891698413 3.9510345261460897 10.552467720832512 -0.4367098423642092 -0.7381860862026836 1.3890451677529239
Ni 0.5408044099886428 2.7316403164022707 10.416125823542538 -1.0708032744203366 1.9856143776113482 -2.122740050953473
Ni 3.6914469259938265 0.23052027862521393 3.567731184155545 -1.0883723936523513 -2.642656448043849 0.5358433527332771
Ni 5.577860745314607 3.054085199734261 5.736766367649243 0.6741249940567164 0.6903753944773078 0.3053300703669257
Ni 5.825182831359675 8.776749471005232 9.815113778092865 -0.13970269004068198 -0.12439768425249545 -2.865291356103388
Ni 0.15435078705053595 3.807491854247608 2.2188611691457805 0.4149266850508467 -1.1212953696326173 -0.6293734008726387
Ni 7.223497794508443 7.626794944302143 13.524246963544208 -0.8310689876763494 0.6871550877677971 -1.3162155853857074
Ni 4.8476593680577285 7.224934797295 7.767113167367305 0.1720926763356133 1.7823894986473043 0.3245426387396346
Ni 2.6676241600075787 1.98675369776535 9.597045360387813 2.2656609908211367 2.483320042932639 -2.0270299644436576
Ni 4.7200627915971705 0.018611503832345333 0.9592123394069212 1.0815299168092212 -0.5117238339772542 0.8492184048918664
Ni 3.739368651179078 6.73739220026617 2.6683760369494482 0.2599076763680685 0.1901780730824144 -0.5005058537742477
Ni 8.239041570246977 8.751550931819024 4.352441321951539 0.06723434766762615 -0.5795641906599954 -0.40826521387027104
Ni 2.091321145698114 3.959814149622668 8.269696084529244 -0.07411693372007236 -1.1972408719209962 0.5225576913679646
Ni 0.9372595723211875 4.94925082957446 13.398081827278777 0.2760593464272665 -0.16995788938079762 0.1600560568860534
Ni 4.720832283411908 3.4749786804239973 10.872018202422804 0.6397889397790077 0.2465058011398658 -1.459518334072822
P 6.065505323186353 2.2385351279416064 9.576190278011294 0.22395902618760138 0.14234347009763873 0.10030927584472402
P 7.4986235667269625 9.20628351038575 7.540063018696984 -0.15094098195866262 0.20503339292769207 1.747368245377113
P 0.9103208691153862 7.311766849545932 5.305367005941916 0.06129947024042992 -0.007996387941915262 -0.014153408682246592
P 2.8609612962066966 5.355802095355784 0.90348815263995 -0.6514537777114457 0.15792718346850865 -0.6159280740010102
P 8.416923973251315 5.505704663457997 12.099634849401445 -1.6093704538426798 -0.22743824298545345 1.0730648167610035
P 6.934975447924921 1.2309180449934356 5.158088126798385 -0.007009598548613734 0.34373643805926607 0.4032093966139185
P 7.203185064796528 9.058689417727749 2.4941222977558093 -0.3291829657251234 0.30154797761667423 -1.6866632141875726
P 4.329893357582598 7.5303396088741374 5.383538103333482 -0.05970718605264556 0.35810067720073807 0.08228224313968409
Ni 0.42536024160949926 7.3091709735444095 12.582461295994651 0.9795481383580807 -0.045108976523496505 -2.693433164376084
Ni 8.911799919984448 7.3728255614960325 7.700299027482401 -0.49673970186359606 0.4000546530350207 -1.3982240060387146
Ni 1.3349570467401752 2.152917574819958 12.39043322297916 -0.7525523822266846 0.4228279421757944 0.19256174282324257
Ni 7.057704756882623 2.426152065951655 7.5514338826822245 0.025724401349297633 -1.2949507624696601 0.8751086423950671
Ni 5.758821115577893 5.752794974860072 6.2204346197458005 -0.026553067898180075 -0.8972548394748031 1.2811107712627743
Ni 1.4847483630137508 0.5952306587548527 10.462206330963852 -1.4199308015881869 -2.2838564307832407 3.2925505945776585
Ni 4.725755176829081 0.6633130694862157 5.75994290484998 0.5020518581051289 -0.17425651675615147 0.7495771016484446
Ni 8.301157174569125 0.9001747023437207 9.71764697812284 -1.2386595440770989 0.23307307267372762 -1.1828228967234533
Ni 1.3922331965166281 6.190913947017055 2.6612790973809997 -0.05634264045578684 0.5263184439619775 -0.9019435031997242
Ni 6.2644328637744655 4.674838923256359 8.572068356679459 -2.4938379117448277 -3.8973049113500364 -0.4956680660659722
Ni 3.362920276029697 7.848399315960698 9.507476513152419 -0.4440451996833578 0.4359014875303009 0.6225206396168634
Ni 6.577393528715178 0.11768681982474465 11.762730009642402 0.004821332648043309 1.2588969541698964 1.975511484849391
Ni 2.4165565957317408 9.012482824900646 5.806958854730415 0.7005708469530708 -2.3337476591867294 -1.1583771049762632
Ni 8.817606705072054 3.3895743599739028 6.244234167186902 -0.8527127911983702 1.0027016936564086 0.30183928360484796
Ni 1.4717782539918576 9.192089631248853 8.259410852971781 0.15537562069124852 -1.3951068005659715 -0.017769665278595203
Ni 6.662362112836445 6.4740034959688195 1.8718602259379582 -1.5840283755334656 1.6994462248848536 1.9970352178537798
Ni 0.04156553737580925 0.058808643715923356 6.363614796102641 0.4334877358824856 0.700819215518451 -0.6238601843638932
Ni 2.6308739726145935 5.685543244449197 4.721763090378168 0.5905787966029442 0.5149742225937518 0.6765747411487896
Ni 9.495899833284199 8.132425234470155 9.887246682485177 -0.8504921293979675 -2.0278041236055206 1.520464277628575
Ni 3.765837315408889 2.502850930810929 4.446745788692568 0.1712149017163503 1.5311446401605566 0.6735866050547431
Ni 0.9269057354694 5.283924143070766 6.8803776859228964 -0.8654243252277676 1.5139807267867604 -1.4132636739806566
Ni 6.207064004140815 5.488599694805107 12.132838884756637 -0.9126884004210539 1.0401372127950474 0.22101871261235484
Ni 4.96137727889586 4.779545435974919 1.1553252087305246 0.5041362514379834 0.40724731412871795 0.062167988888312285
Ni 0.6436557984646856 5.48715342103283 10.694629942957327 1.7307897721931418 -0.303369089985813 -1.039058892129204
P 5.3644055701036875 6.305058323198295 10.281263575573435 -0.21198617009644136 0.2658358689270454 -0.8626493335857918
P 1.313754302399167 6.630924200260863 8.749293446796269 1.511692702083532 -0.9323915352769361 0.5590583573971598
P 4.991878821913749 7.166026954031875 0.40463402593448494 0.6088377428131321 -0.9627128119682969 0.023569045569191666
P 8.891783861815563 -0.06418488833479113 12.06915926514357 -1.111540090018066 0.024008704209771553 -0.8326448168039015
P 5.809218193950311 3.517421253048892 2.806318106374645 -0.8721341331477754 0.24092702150050765 0.30679122829348454
P 0.09245490508994463 2.4475773139499366 8.177495204448018 0.20928445489456218 -0.03717480927808436 0.7938838939856199
P 2.506698389884614 8.156733759027269 11.510345965394363 -0.7353347327968174 0.1615167005919799 1.49883204407078
P 3.799314844842811 4.517065288278101 6.9754423734929425 0.8742115845020944 0.35021664646697104 -0.3961581461940919
Ni 9.0784551592822 1.8678162219670147 4.3970292006719776 -0.5850164720238182 -0.6350108016640741 0.004508686503630945
Ni 4.627603251014366 7.85104154689082 11.787235079096776 0.7135639167786291 -0.38602054353945775 0.9779905640629738
Ni 2.0355190826510965 1.7710178600673794 3.4116865880140157 -2.537378258229624 0.9031413801625673 -1.3908061163080885
Ni 8.621247227528306 4.769032138168751 8.779756051674138 1.3496250140840886 -0.36321794382264544 -1.5315313340760142
Ni 7.546906860355284 2.145157759772549 2.606066669025757 0.34865470129648984 -0.33773008396418613 -0.5325176307941538
Ni 2.1915868562569254 1.5538264776114123 6.979173945245131 0.0787037817598064 3.492816648023694 0.4279619209682501
Ni 7.386528078389784 7.381781333701285 10.934232079193581 0.9386858529260801 -1.0696323940406869 0.3724060380798167
Ni 4.256244647025113 2.3530503435516334 1.7328733164221484 -0.7885064317237904 0.4155535200015682 -0.9056929429398274
Ni 6.196096428034382 3.3683808866186142 12.975461161949456 -0.20835268710891217 -1.4112630986108596 -0.20211621928089707
Ni 7.607696713719513 3.934411648750625 3.991722101174241 -1.097041382181259 -0.06878677975641058 0.6726949464784092
Ni 1.8894361606654104 2.5975076950093077 0.9564773986196027 0.17488797969256334 -0.3353975791762675 1.424841865736559
Ni 4.237053706585286 0.8891487190272532 10.952387450528517 0.1942771828524525 -0.005982699945996148 -0.10051059322225268
Ni 5.717250015610652 7.849094639889678 3.6662418971176134 -0.10942049411737284 0.20612816865376757 0.1915610694728701
Ni 0.49396090044259483 4.8149791433957025 4.3147733069723015 0.5131651944094711 -0.44286249222916635 1.5874628551363112
Ni 2.967178979597571 0.7178756017425056 13.17447863109905 -1.326928343817521 -0.5715019824771512 -0.5187853688097258
Ni 5.474099873139458 1.2307326252790414 3.3011263749120228 3.6588476915462596 0.41383936552393885 0.5546142055828771
Ni 9.248540663296252 0.5667121795824106 1.7422898566176714 0.428405693373888 -0.11440714869868683 0.6515190837317425
Ni 3.2990153714636414 5.494913236080238 9.71044156802147 0.2805047837931298 -0.19634974911076508 -1.312207749777895
Ni 4.39125801206145 2.489306020674413 7.961245754141176 0.8412631546005319 0.1416752403860205 -0.077763272223408
Ni 4.982867423794178 5.198807223177982 4.275925095510943 -0.05717953453478539 -0.9021661607334914 -2.506161723417503
Ni 2.7943029088818827 4.206858106096146 2.7249726234726452 0.3352795655411645 -0.4288412382494098 0.48656584665438785
Ni 8.083261197198459 1.9204568788836058 11.868120721107077 0.2961337485796384 1.0856390538815883 1.5736753144339155
Ni 9.250469028325954 7.479534607130052 1.0764903087614262 -0.02949261014247824 -0.23956433682502618 2.9377604698073925
Ni 2.8586991756910836 6.6696027526835495 6.967449856703969 -1.148995406651047 -0.2952873414189431 -0.052749009567257546
P 8.511895950964165 5.665851670780504 2.5575033916287007 0.34906839179514076 0.7761522810338117 0.03347242072583267
P 2.4862002404583055 0.22898036789716786 1.8065118288953415 -0.2656849451714779 0.42587881318697624 -1.673255425422099
P 2.4075730105693287 3.8506112088300424 10.822966344078317 0.24027961772449585 -0.2268188642338997 0.985571204623709
P 8.973896982335157 2.416602950660339 0.5741883024667959 -0.5371810977080943 0.404662069900045 -1.1385878381644778
P 1.436604134171226 2.811250270777538 5.411313049451202 1.2165385438083436 0.8498586095790267 -1.4423798746203225
P 3.6791906828723513 0.22132995048125184 8.144495130778663 0.7480938322346987 0.5486983543190744 -0.840049851018721
P 4.7706452896839835 1.693957426765036 12.870546052052203 2.400401194650221 0.2293765976587469 0.5931308736008365
P 7.813753642326091 5.621897927483293 6.813278926776396 0.4268203511646392 -0.4889016938764161 -0.3968333178842456
