# total energy = -340878.3098969856 ev
CRYSTAL
PRIMVEC
9.15369227010568 0.00000000000000 0.00000000000000

0.00000000000000 9.15369227010568 0.00000000000000

0.00000000000000 0.00000000000000 13.39735390669377

PRIMCOORD
 96 1
Ni 1.6979824056586637 0.5108309359730205 11.92631052793054 -0.19211359954223042 1.3923798885531118 -0.36663571125494276
Ni 0.13783263271883586 2.3909443514344866 10.986137568311356 -0.8862826567340156 0.5844487724458064 -0.6133081198796599
Ni 4.140727500143562 6.310573574914387 12.177443898797597 0.4279261826343082 -1.4295487842939252 0.21472645184573985
Ni 8.127297673248426 3.831845317161919 6.957071380078106 0.26420913195689977 0.20775567695486155 -1.8201911428761106
Ni 3.416945073390405 2.262646204306976 0.23212115257483154 1.100726287232014 1.551425759007096 0.7290692115030799
Ni 2.748414331573153 2.908759554406529 11.269733592501261 -0.19274403403737775 0.8531228821525952 -0.4709402243019889
Ni 8.349375394956512 1.2625229696462539 12.931273319553755 0.9640677833342944 -0.1946530781346325 1.1931787860364804
Ni 5.075841214192157 8.519899523298292 5.473408026784972 0.7949089928160246 1.421614617048513 -0.7129692206174237
Ni 8.010249413593783 1.4696252512358607 7.548819122627737 0.7451051819200201 -0.9456471147352618 -0.29652738447363125
Ni 3.042211230132269 4.330465228001656 8.949164655931623 -1.2474126076793808 0.29744192586810064 -0.8516514398133914
Ni 3.8784009946940623 5.633355979385376 6.660815799846725 -1.0597863544845427 -0.48050961315797897 -0.33675589297637487
Ni 7.640650791549869 8.64927780608227 5.961018792251546 0.8650977951262843 -0.5176432847854827 0.29821017149269285
Ni 7.140081144313289 5.409438365584494 11.358236063641552 0.6349586082698999 -1.1410542974270994 0.5715510905475318
Ni 1.966121505530679 4.921299432089292 12.526592257535462 0.5001875512028806 0.4510015763965329 0.08636489784948997
Ni 1.4609383975241022 6.804305414224009 9.100004684988086 -0.03142170884439104 -0.5119709169910538 -0.7128031273532047
Ni 2.6414717478908822 8.69358167538144 8.508230396731644 -0.17858239782501503 0.5721843532561565 -0.6629790047422259
Ni 2.766657639737046 2.5686175132313602 2.620040208802009 -0.9372514344723987 -0.25657784066388717 -0.3579366408190481
Ni 3.0335335301125146 3.2691221012184464 4.966666960399321 -1.3537225811922298 0.5867478528926281 1.2533228025162284
Ni 4.268723575434943 1.4995944388568274 4.19321110861747 -0.92320575501261 -2.5438684939396574 1.69982237727735
Ni 2.4934199334188243 2.0578506531023675 8.274339835492446 0.39666542484781364 1.158529057173095 1.3965018811412853
Ni 2.392656091839227 5.588447966413946 4.5384609099308495 -0.7168418161989525 -0.40550256352346936 -0.2003835528605065
Ni 7.880312755597564 4.101751079590699 1.3045146163452226 1.117647745577701 -0.5038161490944033 -1.4484127110779637
Ni 4.393232094072814 6.752916587313774 8.749342305592766 -0.9685924106775253 0.4714932685919816 0.7916051252537721
Ni 5.8473052225939455 7.304600450700471 10.77825173068621 0.1771783183886368 0.8099856846434889 0.61965051715792
P -0.04041263482828528 8.080311772192097 3.9895039313921328 -0.05852987791509275 0.8508777948721603 0.9608328213367646
P 5.31032218856561 8.261948482626686 12.895984006140086 1.2500253627118796 1.3035253915125486 -1.1195061389426784
P 2.870588658750014 1.0766664071978398 10.136036022641944 0.43244258244742295 -0.9460998860019643 0.05533553934751115
P 3.9761624252963603 4.366301932197162 3.0931002654590873 0.3560612781732061 0.5650220311797624 0.36626187285529177
P 4.558337236748249 8.58125672080084 7.57351029143922 0.5714531315170868 0.8299009355101773 0.43197772699586245
P 6.796213550492508 1.472060133308914 5.642951794713128 -0.32164140593243956 0.6930969071735289 -0.32832113194546036
P 1.9733620759058117 1.2491402719364637 4.735254303585596 0.9824635122326628 -0.21742045373813523 -0.920858337826356
P 6.686891006889208 5.880734505792409 9.206607666697009 0.6422623410201649 2.2495810545401387 -0.7600762014075555
Ni 7.60845725677194 3.9875587718412913 9.253445277942875 0.7199471945971537 -1.511870622422293 0.9148234444861859
Ni 5.883544689237625 4.592901577755205 7.495029282304864 0.12675230052760106 -0.14958601059266496 -0.03261058694616964
Ni 8.516247200188714 5.192642324162693 3.353263753488052 0.8600977708085316 -0.17544513774761397 1.0596855672406202
Ni 7.1360169050635305 8.696693930662786 1.050439248868092 -0.12653427097952402 0.996762188243522 1.8601445433405963
Ni 3.4798034763816017 8.07024271098774 10.79444827331802 -1.1221453763377385 -0.006391505348640605 -0.70278045300988
Ni 5.519603048852159 1.7122163967248223 7.468716079270279 0.2826976776793906 -0.10822518825769104 0.04798552674034316
Ni 1.1532187334269617 8.86140546458205 6.1526009890484366 -1.099938501223396 -0.10576052876728238 0.7391420223580497
Ni 3.3845501573883885 0.999647242676516 6.488271451679672 0.17366207770526218 -0.2538560708573499 -1.0393859364513196
Ni 2.7897340972790303 7.999530440257146 4.753018873657682 1.0534737820029534 -0.1225035525535761 -0.3573254895976104
Ni 4.654350312177791 2.745897066272063 9.799199379649407 1.0307485724912957 -1.8686664647686788 -0.38550683712783285
Ni 3.544391927161547 6.704255560620721 2.383871293623026 -0.7950372908637727 -0.6804478509509507 0.0464048125167846
Ni 1.1926619922720274 2.8768131693127064 13.008241223399857 -1.5153963761873643 -0.8037083362752093 1.77741749935401
Ni 6.432793670551268 0.8284127878352281 3.5593289217736097 0.6247395016450531 -2.2770337514344527 -0.46171896281403707
Ni 0.26034381576144255 3.098359976884563 2.755621033287871 0.2621489069937615 -2.6230029354789797 0.9012076534749641
Ni 2.5696793415038193 8.968860655016544 2.652796695638182 -0.9234345831939645 0.6628697328578713 -0.016319305985313826
Ni 1.0950470207417924 6.808964643454025 2.697248854747815 -0.12584007312597684 0.7023809035786162 -0.5755545552799701
Ni 7.100601270700207 7.32930626541916 3.8586656347335233 -0.9799129778966673 -0.5451941978205578 -0.2539290901871304
Ni 7.393409570522896 2.9732381608824268 4.084076215700251 0.9117754016884814 0.4346303341273612 -0.3737270708840854
Ni 3.9117295872804827 4.964797776492112 0.7714878080009985 -1.0129385408930685 -1.4939842290601755 1.1595143039045
Ni 1.0088833179085122 2.3708153827177774 6.545571732886063 -0.42390651995195383 0.44324712926209464 -1.6785711812080573
Ni 6.267423070807717 4.905637465070516 2.762172330655105 -2.231244718124796 0.4432720689627591 0.20383011664821024
Ni -0.22817865742872573 1.128018619340058 4.551121381341527 0.20081575530191867 0.179054195255111 0.33105601437812016
Ni 5.170883998269279 2.484751387091074 2.5608240598591885 1.372681895903552 2.3426935555261075 -2.705533032963411
Ni 9.34491262992325 0.33773736628572837 2.3262222567512834 -0.47508792792177534 0.5189342356827643 -0.2654594594242332
P 9.130450779962459 8.520247363594443 8.026769996922532 -1.00240807367539 -1.7281453925917591 -0.7255475715030666
P 1.9328478350962826 6.801422001242762 6.41914093892736 0.5407058230319011 0.3871615991224365 0.17997053642179328
P 4.030663507487941 3.40281177293629 7.219526037215662 -0.05995889705213545 -0.31421168912727176 -0.9147771646292826
P 2.211943904297039 6.470268885615482 0.6410339664065552 -0.7141668404699507 0.6951327066566351 -0.29251363532854785
P 4.783792670805797 3.45331269172214 12.089543740591166 -0.09364831888478066 -0.24556040650746094 0.045419051564747584
P 9.033430798412482 8.576029962666578 11.602912420169016 -1.9444620717427543 0.9723235955851836 0.06309795690174941
P 0.682547790382917 3.9997881043585823 4.869938066255069 -0.022854536000670316 0.21248007901372437 0.220395220095743
P 7.629208676544919 1.6314442184818747 1.7990501498127924 -0.5290386711066178 1.0446759812056654 0.06413591124796052
Ni 5.560300363501768 6.81077707447081 1.0182548677821668 0.48679441772542614 -0.3574648433889521 0.8735078735668504
Ni 5.423443514350554 3.618143223637457 4.972749588735953 -0.6359132588736854 0.7447264584243626 0.9324406433473168
Ni 0.6160370642821399 0.846749463657562 9.309794490550056 0.36194627619907344 0.45493742111582947 0.8437707515137339
Ni 4.775554348002232 6.382365981301449 4.484898081169674 0.5514563766801858 -1.9562678061284309 0.7007755067647093
Ni 3.1880844659073837 8.233434732034349 13.157567231798865 -0.9076773203597077 0.3362604413971951 1.5152385104532613
Ni 0.6244236768961685 8.347810113623835 0.30523718282566653 0.5044219009992023 -0.39655512452219444 0.8693804816620382
Ni 8.96259037599383 6.37474095586215 5.416844617784898 0.5751290377067773 -0.18427482022410197 0.03803612883711514
Ni 8.515194525608258 6.981044899436479 10.094745548750478 -0.13741209423429238 0.49619514221403577 0.6497105697680939
Ni 5.063611881674866 4.922983711418021 10.032326522975472 -0.2998546490746513 -0.019724732122436996 1.9825308535900181
Ni 1.3624904400215068 4.664117301546018 1.6229019931037787 0.8904095344181956 0.3497217091084235 -0.7358880341971261
Ni 6.003494669257523 1.5356599853524318 0.17052138223417926 0.13503948023705775 0.9910571674389449 -0.07356723186418944
Ni 6.930525673266621 8.180114476111278 8.70056319627286 1.170003890581914 1.8303413439362348 0.9326453031589551
Ni 7.64518186909183 7.183048574579879 12.968209382158937 0.1318957924017535 -1.2882684653534782 -1.320799348101648
Ni 6.888354614204375 2.892978589391701 11.643773585905494 -0.000764646080166425 0.49128716338945716 -0.6011745698409195
Ni 6.009536105980137 4.599812615218195 0.06268722895072279 0.546026463913866 -0.23450234892108646 -0.901989525946311
Ni 8.37088657116582 6.210285725318996 7.7379362301679615 -1.5846582958079807 1.143315068436818 0.8527032781166733
Ni 4.387291347962243 0.37387614231736443 1.4346023102595074 1.39503583811872 -0.7542264274949979 0.6430215877836926
Ni 6.045153121567548 7.077533966850226 7.0913130194237874 -0.11180493518914938 -2.2312058944670605 -2.873981427678218
Ni 4.255496490489219 1.103065654937262 11.904593393651144 1.1761436849310647 -1.3679415530050894 -0.39714210737391603
Ni 0.8975799153555546 4.631996996304119 10.425472102330373 -0.7565116239847487 0.04072396008192341 -0.6996403647190015
Ni 1.0902138713637013 5.055904473007531 7.285708145773497 1.3909051037797981 -0.6183099439696255 -1.094352008274554
Ni 5.1307175977559005 0.2674113813577005 9.814070467679041 -0.18861098570561066 0.3970063531270001 -2.063682068449052
Ni 1.2343845204260795 7.024277786771185 11.740047541557148 1.1993532902783086 -0.46283019360034483 -0.22660571978182908
Ni 7.044937669624123 0.46769599314275734 11.140944807482338 0.41590396136245145 -0.6056668012843183 -0.16522680245371543
P 6.832544554056227 5.4253474822873775 5.329172386509366 -0.32165271878634927 -0.15695659202512324 -0.01782648665845962
P 2.827859224475526 5.803166119750848 10.459434130403467 0.4886008748065457 0.842113161305653 0.9301474764377657
P 4.962106591042947 8.00490365746347 3.1751054460149684 0.9802492781901634 2.5983784520620796 -0.243083148611562
P 8.666477593357712 4.298335769067755 12.495993295904624 0.0476980774069114 -0.6451232075077277 -0.4108489154370473
P 7.938484468282733 6.390576843029002 1.6894731335717819 -0.7785166675009303 0.5564098640307191 -1.0818641602201884
P 1.7752121050960785 1.2546965629828677 1.040607268286638 -0.7994696156035135 -1.0345491771843085 -0.03288646631537562
P 0.600757721589129 3.3532445307348437 8.461098951972453 -0.47515143416985905 -0.7775913274731835 1.9230987755756297
P 6.957895212358463 1.7897573216903717 9.33011751753725 -1.5665651857516956 0.041138679021838834 1.7324255080243518
