# total energy = -381168.1444282035 ev
CRYSTAL
PRIMVEC
9.23027240710056 0.00000000000000 0.00000000000000

0.00000000000000 9.23027240710056 0.00000000000000

0.00000000000000 0.00000000000000 13.50943667802099

PRIMCOORD
 96 1
Ni 4.641276337895478 2.9966171691024144 0.9947418427960568 1.9032226054769934 0.02788849888015197 0.5146464069406879
Ni 2.246897522641524 1.2734083820760418 6.440381039836466 0.9319189665158919 0.05381036095223636 1.919143647582624
Ni 4.031275324947817 2.87563598858726 12.416090782838268 0.5021816988147738 -1.538923255664711 -2.5914637272201175
Ni 2.824444897785624 4.422592723890364 9.403311406740963 0.09118983004195907 0.4444437206733572 -0.3575923701057519
Ni 4.581150343398209 0.36704732066021345 1.3882025109928662 0.026103381955271173 -0.07027159183205316 0.7710717811871107
Ni 1.3104310047239616 6.754233377554214 5.372337911701044 1.5464504172796916 -0.46467598855983194 -0.3661693131414855
Ni 2.376149027238587 0.5876000648289289 0.8463172163430329 -1.2530106705924484 1.3127127144387716 -1.1623569155596174
Ni 7.669737946822207 1.8546940175473439 9.243953522614925 -0.2864232061600938 -0.805710968527535 0.48494656588340995
Ni 4.304805217630054 2.601146147574087 4.571499170563339 -0.4576455640756118 1.0842987378036102 -1.5709165207418558
Ni 8.25650636410674 3.943975408467133 1.2826072715626828 0.5944022841140925 -0.8618106397345804 2.6955360696516992
Ni 1.5139862022444237 6.0580493110878235 13.521730656565687 -2.076560724183933 -0.9785472078973921 -2.284126396615176
Ni 2.373638393142293 3.5271455365754836 0.20098825876245 -1.7987404292015021 0.8628858750766301 -0.17030344564567446
Ni 5.514663174143662 5.883006425050638 10.249826150913629 -0.36877538330576487 0.7599736143914202 -0.24289288697762684
Ni 6.20259537707297 4.0949457440516195 11.646147609520835 0.9174680811978845 -2.0920307947950745 -0.24270956732222715
Ni 8.1131879243525 1.9597345176055154 3.2156515334592166 1.5955574592189876 1.577188726903813 -0.6228160593700951
Ni 2.5357127464394313 7.696496506547043 1.767723621791798 -0.02860455111057009 -0.7420113734860446 -0.21484317992926227
Ni 3.846808330777118 5.009499595261089 11.813907810624285 -1.0840038322710104 1.1948834274324132 -1.1200715245278452
Ni 4.532377583968739 8.519689121414176 6.487690801088501 -0.22142109025709608 0.30451785887827554 -0.191418887468051
Ni 7.488529238813242 1.0753175058239839 6.83155998469282 -0.5377675663391835 -0.42717799161437403 0.03807032450916024
Ni 3.3695940167606393 8.943617072791303 8.387320553823296 -1.1285980739416175 -0.309157414532816 0.6522032542829607
Ni 5.625001850566805 7.378956675000363 8.341780235792804 0.04258312477784924 0.5835895097693046 0.07750281947316975
Ni 7.282103426572385 2.9617821210163386 5.510215105867911 0.5737437273234764 0.5612409668707754 0.8672037857256936
Ni 6.807621273190107 0.9210371945522512 4.587629071604785 -0.6798636963127065 -2.826127798530049 1.0284088686145256
Ni 2.2986608903327563 8.702097764836813 10.76843915972896 0.6682132565579717 -1.4600173851964273 -1.9006291337182044
P 3.264987339505871 6.6567340100573364 9.816213797720946 0.19936488178800504 -0.009085507241035965 0.26233248375947726
Ni 5.599129396993602 1.1673433217800444 12.847258036868787 0.12944578819936417 -0.23474171862540216 -0.8595514113867583
P 6.102271546217762 1.7505857750028693 10.738826599774072 -0.8267081396044924 0.0592425877114012 -0.33665561995308474
Ni 7.437495062642624 5.575056846540903 2.805626218390316 -0.4064003927473905 0.910498848968903 -0.06936682062959666
P 3.119167495927752 7.284466376310073 3.7670790837294486 0.0030542134452915147 -0.8273108061854978 0.8957574289936703
P 9.047494558525457 8.117203092852089 10.654352069678959 -0.8197944432037946 -0.8378962950108279 -1.0399387236309963
P 0.12288815479564795 3.9952311111756593 13.092913429891476 0.9793290803687392 0.9720454022231324 -1.9211848463823686
Ni 3.282709462538533 1.5869145845783088 10.09072486836067 0.0432356707601836 0.33136737497095187 0.6281256445084666
Ni 5.772446222089585 1.9274101036157336 2.8160693485982082 -0.5118017384030412 1.3308117380323274 -0.327154879551501
Ni 6.704666814697239 8.045511567021524 10.720710344109381 2.7082167504431616 -0.9525762377549272 0.1752736451667562
Ni 7.449106745337983 8.53050700068203 13.509707303720715 -0.07015820618264046 -0.8589831975881143 -0.31145932319311526
Ni 1.1273300908703632 5.888064614332877 10.865451168842437 0.607615954590889 0.01592207054689516 0.5159193601158405
Ni 0.6462418315222133 1.0151268994198241 10.380515731952615 0.27800052931403735 0.8168849828664834 -1.2280151769893755
Ni 0.08283615674183263 8.93928807502968 5.115766798522927 -0.1724829697954965 -0.1977098626830853 0.1897384144418345
Ni 0.2810848706521504 2.011728642107069 5.7339855229997445 -1.34524899650358 -0.2165028270198723 -1.1958912998716371
Ni 1.8977993897153282 2.531882183388101 4.347242318075349 1.0134884998592673 -0.5836933823370205 -0.45397274320971487
Ni 7.858995452375173 6.251792729033431 9.36507961840696 -0.001338259195449308 1.032002756613371 -0.5810901403862185
Ni 3.0414947535736645 9.331251593041126 4.766007778091972 -0.39587969572172466 -0.3214575720564077 -1.4155514415735686
Ni 5.769594067914016 4.7733338453060465 5.844290047414962 -2.3271684633073146 -0.5053001898390974 -1.9957146992701436
Ni 7.641068720707912 8.649014468190543 8.27511090118207 -1.3477740769182787 -0.5873278937658143 2.7399925001928622
Ni 4.94305086416102 3.54673217463554 9.861685811735585 0.1340372642247885 -1.2100069133374127 -0.3806788196115702
Ni 4.666742659482518 8.705282208819243 10.697785116517599 -1.1010947263150264 0.47419704067638985 0.10188767607543743
Ni 1.9497935142168819 3.444442295756396 11.264465691950058 -0.4234375507353353 -0.31158582146865044 0.16317300524848027
Ni 3.738389551015845 5.541264819237479 0.6033487556197243 1.106683019036081 0.04206607593211465 0.8934786602618224
Ni 0.7675894538521574 1.9056174304490074 12.773280172561563 0.2459905520663441 1.3630132624655364 0.36652978180469775
Ni 1.5581438254674724 2.5037113919840994 8.529074462403557 0.337222033979516 0.033241021441316944 0.9694053934971241
Ni 8.736932812922888 2.9107571751181336 7.558584237345008 -0.36664419589537506 1.8985120873752013 0.3040020955841216
Ni 3.8843847697698086 2.4024276127979554 7.962543417384188 0.6312068545369516 0.3046163321293528 0.21653085204433034
Ni 4.720029022121869 5.3172553380501535 8.020457838611339 0.1464567209350639 -1.1873408391984648 -0.4453816591065942
Ni 8.817974604707663 3.0808987865040987 10.988319017038778 -0.5913089899007493 1.612159586552043 0.7433781719265842
Ni 0.81456692529733 8.962529900965222 12.345707186608603 -0.9806927934854851 -1.9624831909105236 3.0109204389308335
Ni 7.523391977716555 5.402903035768939 6.851783511549363 1.055902188938788 -1.4501515481459413 2.461489577321109
P 5.8486698116748554 4.941075585864672 1.3762742299537472 -0.4007262251807486 0.6090678565460672 -1.0278694511712878
Ni 1.1444337856513642 2.658032316454448 2.1390297901432977 -0.8583910725300701 -0.04004364618544717 -1.0217527967505888
P 3.4106041170909074 0.6709605010438111 12.248803171682354 -1.1122144903772715 0.5574555316864142 0.26560189853936844
Ni 9.639634994354264 4.301251562751109 3.7829126930264425 -0.7233366798946769 0.3480319801108264 0.43824350539991624
P 6.619249873788775 3.9335082795509675 3.845906533162383 -0.9908206259481065 -0.5282963936239546 -0.538298499141989
P 0.37706216622814986 4.392788174269289 6.003039656588993 0.1093094224608053 0.3379591692558567 0.23592674007243883
P 3.279238880111303 1.8421316167934623 2.659954059170803 0.07316999642577075 -1.4383455566499486 -0.28276324081000337
Ni 6.600484729973462 7.720652129451458 5.934587033348096 -0.5906212198051054 0.1344985201319232 -1.3397499210622217
Ni 4.8578831406077025 5.7173784168745545 3.5852556395777877 0.6130013872725184 0.048724718899212864 -1.2411905380290686
Ni 5.526662528280359 7.312729470438204 1.4770134230675334 -0.23706933831731428 -1.4019371932242437 -0.44566499467496795
Ni 6.72284122107813 9.080132801777275 2.310464562694302 1.5271208637131441 1.1754353460101303 -0.8104289428284946
Ni 8.03667819632243 5.745004622206198 11.683271765165296 0.4378678672280524 -0.43851938476912217 -0.5481525091179333
Ni 8.548349117256059 1.192911176363624 0.9646668461932851 0.06012061944098033 -0.2258583000928433 0.21318224728707158
Ni 4.984882458736032 1.4707423759902467 6.185200928710963 1.3956343909346676 -0.6458847682641006 1.598491602146647
Ni 8.539921878543133 7.321119788061479 6.888137862474593 3.62444993079268 0.7294695322652921 1.066707764194724
Ni 5.009508825533502 8.426315685685841 3.800082845768816 0.3945758893086366 -0.500764249641957 0.2931173303508178
Ni 8.323121240110238 6.188620744639923 4.922758110261381 -0.3318150040313318 -0.3029255746904912 -1.384990795177892
Ni 5.880661935857775 5.9337452325040445 12.687630628788297 -0.4756754249941291 2.6579750806787903 2.1510234712791987
Ni 6.2814311337510755 3.471865435094957 7.730355914839081 0.06376952904747728 -0.8976276494331895 0.8841046752460903
Ni 7.008444310076368 2.77043857389807 13.42178711293389 0.19313201350441578 0.14912218358236898 -0.4239072912829022
Ni 0.2806372024401274 7.0592015780746005 2.901813041150087 -0.2425756128475242 0.7535839088149925 0.38300386820032106
Ni 2.5495673853311116 3.8712224013090917 6.7523273263009616 -0.8551926201974304 -0.19253217513688778 -0.18648854004596915
Ni 1.5651680627736468 5.383362549070947 2.023943061590986 -0.4733483195228493 -0.49625659157959046 1.2503922591329948
Ni 3.1229242167997797 4.611711775357137 4.665875936902951 -1.1101084997778623 0.6478377782254133 -0.23926043243136214
Ni 3.1372680601293403 3.919016751862801 2.3748641733187186 1.0571345186839922 0.6274910962482613 1.8081074722386987
Ni 4.1052098069747025 6.413904003420221 5.734093517186975 -0.0749088334937484 0.7191149285038454 0.18860635771992035
Ni 0.3849245122694109 0.4673416146437004 8.030603754047538 1.0753952646663931 -0.22754134422222105 -0.8532856329827047
Ni 8.085238659486407 6.050305112533446 0.45324145050583897 0.18887838043438437 1.0324498714531187 0.4389371890328312
Ni 0.645251423292315 4.970455542954755 8.39010348095577 -0.5951191076754588 -0.7713574307483296 -0.4039593874060656
Ni 7.90022707924335 0.8560523846568601 11.668640860363697 -0.4337057654305628 0.12742952910028374 0.2619031095315425
Ni 2.57055702479792 6.0627105986563095 7.590114847907285 0.8565542764316475 1.108378661570949 -1.130072601604615
Ni 2.9981217035057077 7.424286542819843 12.649912043600446 1.816495696302394 1.1356395541694315 0.019917307749217312
P 1.8060043305695885 8.25450339499315 6.877654119068084 -0.2884212104267291 0.41727153113393944 0.20014495448713918
Ni 5.596018795190473 0.5772806202713686 8.598864552117075 0.019049303321967193 0.9833173755925259 0.45046755826993384
P 7.7068990235563195 8.056430979285919 3.7807241954373567 0.0747154865360197 -0.5287694766056312 1.5965486194876632
Ni 0.7579105902000486 0.4365577331196223 2.865081172083172 0.38838338734467953 -0.7728080471519272 -0.09822616806345018
P 0.33112771556562864 7.776781415993966 0.7767818821481094 -0.18077991969696608 0.5616469440599423 0.17972936694526465
P 7.981001193128153 4.1629359306446325 9.299288082702686 -0.317845172114801 -0.3917098806147512 -0.4460223780143867
P 5.216580756843258 8.364962064957663 13.064774021413678 0.2501760509026014 -2.8213200927287603 -0.037243457732490694
Ni 1.2053166624864873 7.200747805525572 8.927170573406096 -1.3291945141438786 2.6271976902866174 0.448418389050389
