# total energy = -340856.602876339 ev
CRYSTAL
PRIMVEC
9.38214491330575 0.00000000000000 0.00000000000000

0.00000000000000 9.38214491330575 0.00000000000000

0.00000000000000 0.00000000000000 13.73171744236748

PRIMCOORD
 96 1
Ni 5.183025098566555 1.2510151721792868 8.221563066326832 1.2508874536018586 0.8162110967279104 0.2633943493650883
Ni 0.751960132142084 6.582944289027359 0.25972309664682425 1.8212113566105088 -0.26705868559055296 -0.02004920534139128
Ni 4.1339605907127455 7.6722394332866335 2.808520617612283 1.464169716801904 -0.9031341810737155 0.891128157751775
Ni 4.89519028180273 -0.01094802463188848 0.7428472550104076 -0.02704312016072117 1.6055215124102349 0.5554683260530563
Ni 4.578495987990582 4.655448338689656 11.416824131748363 0.18408224459732167 2.727278395060303 1.5024187329807739
Ni 3.250331440073855 3.7515725198224557 2.359190944400866 0.4899902989549045 1.8282248118138644 -1.2646647098916093
Ni 3.732479855390291 2.352582161685379 4.100208325211658 0.36430732023208223 -0.9363397212914066 2.053470160913057
Ni 2.912442881420301 8.362183589066749 13.522212112798078 0.5908238227342147 0.711907869232445 0.9947721543966868
Ni 6.1018935846389635 6.872646152583321 8.882512642175172 1.8413423230324288 -2.802012136428768 1.4801565791484637
Ni 6.891626231279276 7.3910096463804225 3.1671652949504945 0.04004955972271812 1.7710265082260017 2.4443009813569647
Ni 2.828650947246511 8.914050721530808 5.30067625469083 1.0203314909230297 -2.043267252238126 -0.6766811848196669
Ni 6.867682998045426 0.7512236337843814 1.8176263450144272 -0.13814228753209756 0.7827864985208776 -0.9974972666373336
Ni 6.641732807617995 1.443339756058867 13.110823832689205 -1.0918778357024486 1.0524517684963424 0.330299852938386
Ni 0.2142553470786882 3.5690147485590344 8.45925970189877 0.5160666843269822 0.6442973691723226 0.6443161382254
Ni 0.4282780169692105 5.8213205478606405 11.446470770735685 0.2734699884335355 -0.007746476714638272 1.2190523113691327
Ni 2.2195808786434292 2.401434989055542 0.8662806269035014 1.861093280407111 -2.5078753636745 -2.324250004108939
Ni 4.736116018683638 3.0137981904427464 6.8533902388336525 -1.9901816852670562 0.7208005437363844 -0.605082389535758
Ni 2.209710862435745 4.44768074466003 9.786086355983544 -0.0018936174782870614 0.30181280124228665 0.8553242606792882
Ni 8.306772642562391 7.6125689930956915 12.63128459180942 -0.35772889568361615 -0.4067287226210866 -0.8934403508247193
Ni 8.6616335009495 3.825869723575926 10.983149505156852 1.887722452958865 -2.286301292779308 0.9581475611951177
Ni 2.9040458619280223 0.2512125532038677 2.0385561498213915 -0.7966120915500603 0.8723503629236395 0.6502276186138286
Ni 4.130742515086095 6.108958339586098 6.098091001398494 0.1858457642556477 0.5737763803336247 -0.4558352503397504
Ni 6.636628920909838 9.09567027832582 11.438108465178738 -0.45064187906426906 0.29874984604624677 -0.3059440498018408
Ni 6.3217829096004605 5.993614252839644 5.080501712530938 -0.9721171360013322 0.24327392446612942 -0.6676159892936051
P 6.787728361047438 1.2806158386576554 9.828572459971069 -0.14233318568499356 -1.4759021747474839 0.18191480463235768
P 0.6717202779456979 2.0612947156778016 10.16752589204627 0.0057353598218804445 -0.8788143733814284 -0.8224701902637447
P 4.393892909186025 7.055438477463845 10.38315572332118 -0.8091253935257227 -2.01536975449691 1.349435780891418
P 7.077364549590611 1.7208542136701699 4.720538843864609 0.6077360251085211 -0.13623812853084924 -1.374469069710962
P 9.496325384916071 8.187619405074189 7.093049619073507 -1.1053915539181671 2.4070215281802163 2.8248810706071414
P 4.630294808791556 5.3218808398913895 13.708949629518271 1.733189125663254 0.22084850558307773 -1.2730781307662848
P 7.7489103196451845 7.563237676346639 10.314277646337251 -0.17466789326195725 0.7928107155260992 -0.8032167413507715
P 1.2172582156058576 8.015991832367757 12.398902941201031 -1.7915166577595532 -0.033738272792709634 -1.6659169827791567
Ni 6.624863711475964 3.5532527454897287 1.3639921438219398 0.01562665079366341 -0.6580993080524213 -0.6356399506076408
Ni 7.565526919649561 9.084974633385933 8.412791815707308 0.8447631973339903 -0.4869594825483806 0.7972145010207496
Ni 8.714989757768038 7.473891512519855 1.8721000152648408 0.45051100991335963 0.5032690183416816 -0.41961252056229026
Ni 0.6334505097792114 5.607942431309916 2.746330133359189 -0.38535694181352986 0.9132026210533112 1.3165819675861905
Ni 2.475084824825809 4.8929479492232275 7.3451093799423495 -0.6132145317245891 0.23487258777631162 0.2723181342172794
Ni 2.5502639501795854 6.272442210706723 4.31068829726946 0.3525049282805155 -0.2419225526445576 -1.1283854437101792
Ni 6.267263266841095 3.6928684405339767 5.464660194123119 0.2942910389439448 -0.6879410740042023 -2.520285821523711
Ni 8.337339669943223 0.20286729986111499 3.383289565250258 0.6791329887942691 -1.3045378919374628 0.9753911787669138
Ni 7.200073619914091 1.3738649746730291 6.787848452499394 -0.44576295370541297 -1.3387055389581073 1.3007755966815533
Ni 5.792442306522949 8.052732310950732 7.052348937219367 -0.5194764813394795 -0.24758077937159945 -0.6040112679587663
Ni 5.162609551733931 0.13018570142224814 3.491618622416402 0.35713934172873335 1.266340297821819 -0.4301435020006011
Ni -0.10424313315621436 9.000169427586258 10.503678753933261 -0.8358275854072572 0.21255001301971138 -0.6355232225241184
Ni 2.521929873233572 4.7477029673685145 13.14686909435109 0.2891755720942503 -0.14731984026630757 0.46664853890517055
Ni 8.698955672502892 2.5903632365594738 0.30578848883133813 -0.12417014162272164 0.41845989501508574 -0.5164788321637362
Ni 6.83532398102993 5.998005096551808 11.353094975767075 -2.6627357352922267 -0.7420252574431156 2.8518925661989787
Ni 8.422904829462311 5.987065515850135 5.901466580610186 1.553135799719667 1.4215716796257196 1.9714653398044757
Ni 8.456277118103692 2.5001070046983314 3.0054884248960296 -0.22288739038997743 0.040549125066955974 -0.8307409149129693
Ni 6.26741338115604 6.321829820323881 1.4638012754004435 -4.225120821524304 -0.256771444731932 -3.4808183380112374
Ni 5.251955715560714 0.6318583598263179 5.799343812152581 -1.2951600502669889 0.995346795953234 -0.7112311548803945
Ni 8.04485130941608 5.418057205048206 -0.028088264755289857 -0.07046031080409157 -0.9989049456181378 -0.2576538473368853
Ni 2.6363075990775626 6.627556387000303 11.750738413913728 2.019991312429321 -0.6848657775129883 -1.207529655441514
Ni 1.5250394719681009 2.774816201049085 3.2595250036498147 -1.7859769588882466 -1.389019199610995 1.057171542569515
Ni 1.533305141434802 6.827977761742272 9.342318418140866 -0.5512859125405924 -1.5653146011740462 -1.361240743946146
Ni 4.52161204477082 3.1716246283188525 13.832507783935664 -0.059185766331536785 -1.3644623362072372 -0.24545756238100952
P 0.01855319111282841 5.786353294622961 7.995155027238815 0.7159380734377605 -0.7150620985907106 -0.731914651371675
P 4.790326050668428 2.0079759874380017 2.278709969086098 0.6021557028072663 0.2181863853698823 -1.8838033204101168
P 0.5257181570149764 7.421454705880362 4.141060059595212 -0.3363198338802208 0.5365583765224308 0.3539185207985905
P 0.5561050472178732 1.2795275098742986 1.5004235389604001 -0.4663284365615904 -0.03663204940073691 2.1452330898496665
P 1.1762488611916109 3.480437920596348 12.280535927437356 -1.2327897155598833 -0.47274231050773424 -0.1837603424815287
P 2.228287508910283 7.595399668323769 2.0781441093159954 -2.9190505521027146 1.6224170026139928 0.2806379669368844
P 4.183320053895851 4.386133875532266 4.885387817036772 -1.3381830907957342 0.03438361968619239 1.4124301223357674
P 4.298054301237837 1.0012061878201624 12.512052544305872 0.5197315347730791 -0.028316073335873812 0.6951267931193641
Ni 9.4664901648206 9.398094330073436 -0.20807908123313829 0.3958650404337053 0.3192736770312114 1.6504245435705127
Ni 5.186252556337889 4.4910356352453045 3.147844644402506 2.2573167326215 0.8910847061083493 -0.8782883256746293
Ni 0.9759776007645893 0.6695192268028055 4.491246733500697 0.1537198302553804 0.547907740096979 0.5435684892916768
Ni 1.3977800614728266 6.958464630008879 6.229654001660369 1.706679252298183 -1.6365814670398333 -0.37513037898951523
Ni 5.048325647336781 8.705513791637085 9.394869686945507 -0.6382539911917201 2.394005575536522 0.6073213061686057
Ni 0.9945448650944438 4.020661811507427 1.3364067620217182 -1.7046123424668256 1.5581376238096327 -1.2838189142225567
Ni 3.194732850675816 6.082359959406645 1.2618018239226088 0.06766320767492863 -2.22838539429913 -0.09670613187449797
Ni 6.563063524441729 5.038352427537572 7.3083360638529795 0.4108175479784796 2.2019770795089304 0.07211018770268872
Ni 0.2113487586555508 1.227494135456222 7.804558634410048 0.20230570958388386 -0.9346579627136097 -0.1166380949117346
Ni 1.2352625512546656 4.253714285460731 5.2906382980933016 0.5251254520951408 2.4737545107313914 -1.006729069648247
Ni 4.968633710389947 4.372445326438148 9.024854788464621 -1.3696976164642476 1.0812146995616476 -0.031577260585648845
Ni 6.411476212780556 3.2423097063689403 10.604044246691533 -0.5564322326282224 -0.12678778175122682 -0.7890929003548798
Ni 8.239558958045425 3.2080742604166215 6.4493753862320204 2.4283835387957597 1.7875070223795277 0.7300912250096909
Ni 5.437027901599477 7.675401216045179 13.106621570085192 -0.598870347187775 -2.0430502511313136 -1.244207984699154
Ni 7.982366225819905 8.581594424649355 5.729243241716312 0.14229024826220013 0.5403211859989726 -0.6804051706384733
Ni 8.338925252394839 4.40091075340974 4.425458196761246 -0.3572912939255653 -0.11953958482924575 -2.6579095175481773
Ni 3.044993821517414 1.0467752645508868 9.151036190535692 -1.4933913326711827 -0.4956652378524948 -0.3483559391091484
Ni 3.7704400127822018 6.802552149648331 8.243149504816033 -0.5389782988178331 0.8330466802280105 0.6279340973229508
Ni 8.193886677723174 5.567946348521555 9.795904770395465 1.0147244291488977 -0.037411350768922665 -4.320006355250296
Ni 8.661183158004663 1.3171217636235293 11.904876730714511 -0.22849933726011612 1.9461417734380224 -1.248278812334418
Ni 3.851361010682654 2.774816201049085 10.592852286297859 0.03457670953360497 -1.4938680151972854 -0.41576357912984524
Ni 2.7539221648375714 1.4319592145570412 6.46047071053545 -0.10615622154380427 1.7472612874856037 0.7699358678104546
Ni 2.255777192834727 1.557923889085908 11.861896187702133 -0.7300297756441363 -0.43438967887146485 -0.207206746429927
Ni 2.0429338585309975 8.64455799762442 10.450427577135189 2.4343778087059817 1.1719247617537107 0.86286196381723
P 6.0485748563991635 8.126672993206208 4.969343938742534 -1.2835229802486927 -0.46082190492106445 -1.0653497075049332
P 7.153359921531906 3.70132175289436 12.500860583912194 -0.1365129794587907 -0.14307134940259877 2.2440647527076
P 7.086784222853458 8.237044543270082 0.5743767739901784 0.0028045593283306538 1.1736468866511403 0.793308481098124
P 3.8235054231155305 9.131040963784915 7.339424738478247 -0.31320998733563477 -1.5327667491450119 0.6638081855117406
P 6.524296502606984 3.1902388033721274 8.155472424528552 1.1271595417228781 -1.3341654849959086 0.1709909586310023
P 3.1178274107001633 3.068796322581002 8.30422820492406 0.11219779975219386 -0.12974326483512494 0.8978359087892538
P 7.694812873396603 5.217204251650768 2.22514261401217 3.2554356920032315 -1.6981578450907333 2.449381995424298
P 0.90948540317383 2.43900109637072 5.964192785324743 -1.1095693394449406 -2.5392888449887754 0.5207548338312709
