# total energy = -340887.92436762544 ev
CRYSTAL
PRIMVEC
9.10447014434613 0.00000000000000 0.00000000000000
0.00000000000000 9.10447014434613 0.00000000000000
0.00000000000000 0.00000000000000 13.32531235019988
PRIMCOORD
 96 1
Ni 6.516305935836236 2.474576752484075 11.308432824841637 0.36383552280198633 -0.5214942831004566 0.10830463534537477
Ni 4.848977020933749 0.6421136910333046 5.9339348668683085 -1.045251136982845 0.08557814028213648 1.0950086680219464
Ni 2.8391470469664473 1.9985859534472172 4.899810919048598 0.2828653136055064 -0.1767900818112826 -0.6749734580999408
Ni 3.436227297758058 4.90079966449676 4.377990949087086 0.7662900435277513 -0.1564734817411176 0.030307649844605867
Ni 3.691817085661153 3.088591317581238 2.456041872342547 0.6584080975420918 -0.14956852709116822 0.644274229243871
Ni 5.111486206079973 5.044131336600149 2.5165520012337077 0.5996825586764254 -1.9347898387603129 -0.6876469398025511
Ni 5.284871733840688 2.7171380437359636 0.6022925598990989 1.3412092792165675 1.0666941373479693 -0.5981977466007826
Ni 5.8547114102225075 8.05454256980409 12.957373441570509 -0.7947765810032184 -0.19617337143390087 -1.6265163694943472
Ni 1.864968750894379 6.943323790437844 0.538958224396335 0.48995841727570455 -0.6696839275662273 -3.734989111895529
Ni 0.511561053101568 0.16866212869527364 0.15863810716279378 1.3539010157516231 -0.00981364365631213 -0.2290618946318055
Ni 8.512369951077734 8.850737580736784 7.03287353702201 -1.5944783672221958 0.9966004658546772 0.18806128384972773
Ni 9.007753271335465 2.5934720269551517 1.037986974464789 -0.21061808610432112 -1.2860822563354366 0.18837624398698527
Ni 6.812756585354018 1.1283533920130442 4.819845448093171 1.6626331698215622 -0.005432226759164838 -0.12085701808908864
Ni 1.1447596470553045 7.570139240434795 2.4166650393471105 -0.5858600509710362 -0.07673740206205494 2.0147490901937752
Ni 7.861919296813465 3.836960547305835 3.6328128361173784 0.4756245171515357 0.5807702951529546 -0.32849725251200845
Ni 8.006161415922527 3.9920005679022017 12.511108737268934 -0.4814082137128483 0.6903160019942821 -0.09823825224830823
Ni 8.58484153272945 7.427281000774357 9.397050396044962 0.136641534616855 -0.32737239487894587 -1.3819376101738654
Ni 7.218779532004765 0.928328184866284 13.456433146837156 -0.5796469801817888 0.3373752717279286 -0.38005609842590676
Ni 2.0255260803451356 6.5288427911043785 9.23550705248706 -0.25661512165972583 0.7916724881565979 -0.7526359430794265
Ni 9.13242077982252 4.872949090593167 1.5781697500837566 0.7708578654040918 1.0919999631026098 -0.26930300154003944
Ni 6.39295857550741 2.243195750461874 6.91379799404381 0.9697524924238977 0.6914169483679448 0.2680979254883447
Ni 3.6607890517077553 4.392715608509865 0.07057694143290717 -0.6254195584312132 0.1458216584542263 -0.0011531397678367235
Ni 6.583414984624528 5.841355152649258 4.548688837287048 -0.4917083100872758 0.5517098874518885 0.8142457454714236
Ni 5.502104389394702 3.276771609184168 9.031350236828546 0.9724004715697059 -0.41028378696219664 0.558693003637941
P 0.2760921440238866 5.774974461465505 12.467122311083767 0.21886335683224886 -1.1336824304430604 0.0972954287190647
P 4.30296374269044 6.2483522775960765 12.50143523783364 -1.0375715089504 1.4022567813471913 -0.5338132096771259
P 2.5971229194479077 8.863975480199297 1.3417922148944115 0.31524552970842484 0.1608862660968326 -0.68588907657118
P 6.873219371000883 8.198393196700712 5.775523461009928 -0.530572334142325 -0.561365922484414 -0.862869677126714
P 4.788195578834897 1.083222533941743 12.481887030174796 1.6030254854612584 -0.06131875351413956 -0.1668525109825965
P 4.540235336839357 6.5426269587702945 7.841359582531316 0.7154320803356196 0.763522508084943 0.009237202327551833
P 4.790326024828176 1.3783894531815228 3.850388730192533 0.03126589999281712 0.061549638578023036 -1.05903739213366
P 0.2562016082909086 5.664710224608227 3.797127580360555 -0.7143889837830858 0.5722404033050725 -1.5457330794976927
Ni 1.0310357115764615 0.3379588389535027 4.508899571798041 -1.5204948737561943 -0.29286896178543753 0.12654635516438206
Ni 1.7616148068101722 6.951954828051642 4.6746391656050985 0.8537795418999876 -0.2921894192199097 -0.12413028952372171
Ni 6.3201956508138775 6.1067504548034695 9.141643607990007 0.07607714277023672 -0.4641329715721684 -0.5745520821573847
Ni 9.393354891648928 2.7964106645200713 10.022020369961409 -1.3983584747340498 -1.444406675242364 -0.27558960587969955
Ni 2.7054479041830986 5.712545110286382 7.0001329522509375 -0.500572702456441 0.6882822593937049 -1.1125363924930647
Ni 0.7002430010046254 0.3315046801302738 9.189615060719014 -0.5150207595609712 -0.2415566846647066 -0.02775891528082316
Ni 1.709537238085572 0.9305951979104142 11.351113670020666 -0.9742863757385091 1.9068010668568707 0.9791305912046877
Ni 4.685469843184607 7.312473633358762 1.7320243686787347 -0.2994525285402262 0.584344128547142 -2.1314005548419486
Ni 6.028807086647649 8.34601307420083 8.054151988038655 -0.45558405356089277 0.2233581593788089 -0.7210031466654938
Ni 5.593094463141845 3.322758287440804 4.2970403744715195 -0.80226183363667 0.26681597345212754 0.519867289019995
Ni 1.146953824338981 7.447711431581701 6.862042723559219 0.4871572003814836 1.178145802962758 0.09712573591041983
Ni 4.994930780413481 4.924516808994589 6.390940114495828 0.6836830700587968 -0.3017204986387965 0.07728710391793786
Ni 1.1559217273448779 7.479431405259412 11.454745300441605 -0.9273192629603513 0.4631096725139766 0.5683734641504985
Ni 4.7676832077970435 0.20266823480423427 10.317989393013189 0.1391406468896249 0.4435690313778877 -0.21137244777184244
Ni 8.455876714375611 7.627797849304182 3.9815896063923097 -0.9193151617089523 -0.20307806897353411 1.3235000348622628
Ni 7.486123190751122 6.308004765407891 6.9487236516285025 -1.0846872314912805 0.22097731785145816 -1.0616527182693198
Ni 2.7328432545838544 5.611849671458747 2.128771681235667 -0.25127185506994143 -0.9329540926486255 0.8041641928657054
Ni 2.267422745282881 5.464430092299877 11.454398420132442 2.0339349190936065 -0.1976234736168661 0.3748562993925222
Ni 1.4356292564282993 3.841904274546649 3.521973196752514 -0.637913834243482 -0.766053759147229 0.3698884138642856
Ni 1.9541834529804558 1.470881764488029 2.515032465181236 -1.137106625633261 0.31192392153435955 -0.5213503013234247
Ni 1.619575969454842 3.6751650099273605 7.918726637732546 -1.168318532459691 -0.21338819265029055 0.4476411445647323
Ni 3.7222988514111464 2.725541469598342 7.029875435032322 1.1388986845366773 -0.2805261239493685 1.1873680928919745
Ni 4.485745083549719 7.4696714133585775 5.695811094322079 -0.086276966121374 -1.3527411911155671 0.06984118916285391
Ni 8.28628775062856 7.13090318701703 0.41597049063475056 0.967652158251443 0.060298282669425184 -0.9212866836130261
P 0.20566087411188744 5.926600305790591 7.8724477059870885 1.1486686194392477 -1.2272821554780928 1.385842601655226
P 8.740828418211718 1.8823947065829953 7.8521137825623475 0.596164775331154 0.23672455338338583 -0.07537446027625727
P 2.2091450324496353 3.654889355110982 10.131794786329635 1.3445761388062714 0.15066973057514696 0.06864279797937856
P 4.389875013852159 6.629365245000937 3.6137844936987746 -0.31313002602731876 1.0992890405648552 2.0059916557161195
P 7.26202576477432 4.317148507038854 10.155140468449147 -0.48379214056399256 -0.15978711949538288 1.026711940528077
P 6.743990523015397 8.211931543675096 10.176220958418543 -1.1739551619201782 -0.72151145376048 0.28204153215263045
P 2.6509030240731195 8.946288993982359 5.802987094936109 1.4451893190446594 -1.1723441086793165 -0.6184387562380058
P 6.95537810879298 3.8479951650146136 1.5028156932120735 0.6012470749500677 0.20407668544137755 -0.08648291148459299
Ni 3.0428049376658506 1.9663379205062148 13.507336238924436 -1.1982839684735298 -1.6986800361427905 0.0724608861738881
Ni 1.5188714261571492 1.0136188603579022 7.032660492422682 -0.4227924609521686 1.5928598577821664 0.3651102757493518
Ni 7.30460737122973 1.1706254464865264 9.239225318058235 -0.9551308858559809 -0.3744544359684132 0.39801962488286285
Ni 2.68147583452368 1.58514286370022 9.147107200471062 1.4916563522579471 0.753830991828792 0.2527921483692098
Ni 6.724042629121062 1.6580423554446038 2.4388389761703215 1.7302791511053104 1.9524191218063018 0.5302640588732868
Ni 4.26580840038885 6.771877514799218 10.228202930207548 -0.4106941350267378 1.064909534643721 0.7163466217300888
Ni 7.2852057455388 6.3755872466391335 11.351394087698417 0.6965537553738778 -0.13175103929377308 0.9062596140765746
Ni 8.07072121309493 4.087078548704824 8.142965182995228 -0.2122435375228861 -0.6606277309012301 -1.1690993764897737
Ni 3.292403984271605 8.560386926157024 12.364556814106473 0.8684448572216463 -0.843772808396263 0.8764895819029938
Ni 0.25176135824423246 5.223179844736161 10.07851997979257 -0.6188884421809149 -0.7425924428004954 0.591518020587762
Ni 8.62210612867172 2.497811360068897 5.677822482383956 0.7592390502182408 -0.5651325886156976 0.5173347524061284
Ni 4.057853199822662 2.7759802337127275 11.293015315247539 -1.2848041609539613 -0.03551464796684206 -0.5050582490316206
Ni 1.2778761037550217 3.455246535706605 12.211329493498408 0.3417186362982889 -0.6663605196199491 0.9511176509315297
Ni 3.250805660582322 8.474577295872171 7.983473986988117 0.8378654417728923 -0.32736956666546846 0.07056778291623331
Ni 6.0306097717188845 8.377997077510186 3.5814973115365283 -0.2857773450459788 -0.7617826425757009 -0.046862983100125745
Ni 3.239188356789911 8.717612019567012 3.6043768447891367 1.089705510641478 -0.21527409681909376 -0.13560023783653422
Ni 3.8402290520562072 4.7934033357073575 8.807139004976033 -0.5866365241257446 -1.1139780100355976 1.3669627340315877
Ni 5.343021984093139 4.778681407625595 11.194195397251594 -0.0765887922993326 -0.2194940484377123 -0.3122517371874235
Ni 8.737914987793559 0.19039176737971483 2.329291261106509 -1.0276943590460041 0.4615441277990696 -0.382180086747445
Ni 4.898705636383708 0.681742717849313 1.7034545416406583 -2.3367859317924204 -1.5984900594847502 -0.802252063444657
Ni 5.950381181578818 5.421375053401515 0.19411640607993055 1.1596498010410996 0.0684075420401209 0.47799533137655736
Ni 8.437977326244043 8.830043120297796 11.302796247429503 -0.9591292083820967 1.5176738593676316 0.8568844060775566
Ni 0.31334126236706095 4.76514306065121 5.79471204210153 0.2552562936389862 1.0464675258884493 0.703794238986375
Ni 7.187360005838927 6.124312977542938 2.2846911936395156 0.394146772191018 0.44158876772306527 0.22226852585905593
P 8.886117551377309 1.9374949593664361 3.501665676290936 0.44861353578033064 -0.31991799548342964 0.25600859842397844
P 1.9172921403105117 3.5281187140408186 1.2601296707204077 -0.1371117893850542 0.8302050970141573 0.08977469486198733
P 5.049557600753971 1.27698386568946 8.322590004085832 -1.0414618451437418 -0.16945729559529524 -0.0943995952285084
P 8.790211063799521 1.8134465548432406 12.122409776242169 -0.015610452843747308 0.12190499973762876 0.11624291635584495
P 6.884891301613635 8.252965390220862 1.4775771917677616 -0.8140477705280045 0.6859644098938056 1.5894821995591852
P 2.402569498805253 3.920940179109281 5.876702347197577 -0.9508829092129044 -0.8228077761088216 -0.3484377001896773
P 7.067353986020927 4.076717661780244 5.847772893592259 -0.26367279983745556 0.8785426077772804 0.27907447910450645
P 2.4934321099716006 8.486030719203562 10.211453436644147 1.8784803655353068 -0.23642964785078635 -1.9409093213944897
