# total energy = -381157.79111230024 ev
CRYSTAL
PRIMVEC
9.36300866538073 0.00000000000000 0.00000000000000
0.00000000000000 9.36300866538073 0.00000000000000
0.00000000000000 0.00000000000000 13.70370960920947
PRIMCOORD
 96 1
Ni 2.515082001187449 2.187947844484132 6.863338088833746 -0.8831335695820727 -0.9304709212154556 0.6275767139835321
Ni 6.078221730550933 2.506870642664629 8.835535062958142 0.3219003160207811 0.3573488866363781 0.08361098925343664
Ni 4.503373050756399 5.836319040932257 12.576647795671244 -0.01507463494493533 1.5571480062028535 0.695034490515874
Ni 8.502332740395486 2.587008633082892 6.450678466576442 1.4914187823258445 0.8794075268807371 -0.36341591876606444
Ni 0.15771613429132753 5.665706298625728 0.37024800230198207 -0.8447721961950548 -0.42310047911089066 0.6346436481326425
Ni 5.519193940398718 8.699386618926011 2.349254692565085 0.4487076381560337 0.06325582263585236 -0.8657215447532123
Ni 4.473654861530139 1.7072228950689112 5.024753119717728 -0.9515652799919097 0.8201381996964584 -1.5568181336672606
Ni 0.0641927868100959 1.9855383250470473 8.587305788443377 -0.19247329687449433 -0.9406884851784058 -0.5672789455347391
Ni 2.1683229785048495 2.86205637306734 9.086450584633905 1.8542436044751294 -0.763606326048001 2.0482564779226013
Ni 8.53378308620866 7.758357441803973 6.271873091764248 -0.45030403610887615 2.4045113601638524 -0.2855860549707791
Ni 7.762786144861321 6.172338692776003 4.521059773960056 0.228299048323852 1.8175416210684052 1.6279286764608412
Ni 7.2923511418732145 4.136829990948693 3.7376596551495718 -0.5247022485147931 -2.085025052901203 0.17950902340434244
Ni 4.534149259951963 6.511757116733528 6.440497131048831 -0.4163415631205023 -1.6651309965427517 1.3970847502279489
Ni 9.010013791506486 1.159599249364581 1.268678299297139 -1.0532984327673538 -1.7280304642804498 0.0348800997066367
Ni 7.0556730110410095 8.828221616957942 0.6261455808420474 0.6538155930754032 0.8232106679741952 -1.9810802371864202
Ni 1.1176061558926906 4.282705664592406 4.8718467629328694 -1.7294821091253116 -0.5199107406634207 -0.3642062758778437
Ni 7.301414534176624 0.7566350224896937 7.3182333064851095 -0.5176348001450505 -0.6704328899171099 -0.0936963985138967
Ni 2.7129317354470954 2.0936623481046595 1.077127060907847 -1.9655710858072277 -0.13316231781900292 0.2232730558641703
Ni 9.12714502881604 9.072586777832605 9.821996366602733 -0.25844240467645163 -0.46638911459619675 -0.6668657413911419
Ni 2.9036281311532246 7.701926589104958 12.811105020868771 0.30132634852417134 -3.560204233439733 -0.3701807482937237
Ni 0.39894094208896264 3.275536194876069 12.112818395234846 0.9002895125360689 0.1623762203787978 2.222720482703869
Ni 0.09983120636016415 2.902373488003786 2.7239819581707354 0.07537523160720568 1.6616669492535512 -0.7562699402875879
Ni 2.6998047974208768 8.085744399738894 6.576053832938839 -1.2938755271276103 -0.07824509695583298 -0.775327214029355
Ni 6.008823110971524 0.23827733269731163 4.362534675727598 1.3708008768307556 -0.8490109168667507 0.9226449974131337
P 4.918556940126306 8.302086075939897 10.708188275085712 0.9806732531014596 -0.048031292376614056 -0.28936583372818553
Ni 6.492712757286075 6.223535623679972 11.487161563440566 -0.38579531490252916 0.7620436095465715 -0.3724597741358876
P 0.45347110404666374 2.148407859259652 4.595114617705256 0.8132972655152251 -0.545516614156983 1.168202061486485
Ni 2.885903955915256 4.643078501747275 0.5389010669131569 -1.5075362567129973 -1.1839678089611738 -0.732294660418913
P 8.178681622883149 5.620726405417487 2.529088125719132 -0.7179767011343442 0.7662738455778351 -2.028479038185358
P 0.6384055042739523 7.945907866627928 7.88253808827183 0.6059575930518596 0.67976650861321 0.5094172973312646
P 2.244874936637776 6.688614985761517 0.8203371876503076 -1.273837891750445 0.09406020961121865 2.154759541282863
Ni 5.032907363888223 5.056221255247199 4.409250470726183 -0.6219879070418449 0.4598821667156145 -0.8882922309648766
Ni 2.171038250992441 9.224361146880396 9.057261405392296 -0.3058861999807119 0.33700837530681316 -1.6453317024286374
Ni 4.786650875280823 7.676580924884577 4.60626876982411 0.279611325444583 0.45651196469180083 -0.6394624096775245
Ni 3.532344794150764 2.278300877260886 12.832290700377989 0.13183100060208908 -0.5346403335641114 -1.936769845304819
Ni 6.757882523220836 0.4893932227566424 9.73274442363474 -0.1265288716628853 2.1549613728810244 1.1932785448391383
Ni 3.097667120921665 5.314593476954404 2.9127374021986654 1.2039792190860943 -0.426998014393084 -0.12949849581417053
Ni 1.6257179053982747 5.874379670801429 10.009120774536392 -0.5129060272108135 -1.702499924109513 -0.2735651192505031
Ni 7.558429119640033 4.238456086053241 12.802690485059811 0.5703046197349404 0.1419385213497362 -1.4336162694950791
Ni 3.356498130049187 7.692956826887328 2.829336403291004 -1.2079284335418294 -0.1857956277440026 -0.3955382532219059
Ni 0.12188390046369667 3.7270672835453915 10.100661973101683 1.113229047684715 1.2641255495586876 -3.252503863068418
Ni 5.301635073082587 3.010609867164333 2.8036826960884103 -0.5551073431692117 -0.09046889271553452 -0.12881149704947492
Ni 8.54569283311975 1.7664251983069854 10.780392988335919 -0.49487488074071545 -0.771016245358827 -0.3378972056696697
Ni 1.5287077735226324 1.3564377786978141 10.985373589928498 1.0169075528431455 0.09505316965210726 -1.1356236133298312
Ni 0.7462991973205478 6.236962177980683 6.3677165927710835 1.3921292059948862 -1.1808809425057338 -1.245406118772313
Ni 7.882183230246727 8.52976635552874 2.64720060632765 1.4576763957680767 -0.6555248624570258 1.7146429872299502
Ni 4.151763989630447 0.47403601608716767 6.936762802101653 0.6771429549474338 -0.7287172274802999 0.11564359220894921
Ni 3.7423383505359493 6.555501092809486 10.07979089068068 1.423490493914987 -0.5838180808403429 2.270128282563871
Ni 6.884535940254117 6.597175843989727 7.232940979844711 -0.3678580136978181 -1.5207069897670003 0.021354554416376126
Ni 4.104050097917458 1.29817177631753 9.195353610005197 -0.08203927389094258 0.24210484385869271 0.7172555066976034
Ni 0.845072383711409 5.46469186746675 2.6167371216185886 0.4902348108655428 0.32754440168043586 0.3108234893813292
Ni 4.835572595100361 2.719073869074199 6.983273547212382 0.34021762627273017 0.3305309951125856 0.563959394243203
Ni 7.5834845305944985 4.1062035898903755 8.2583074567322 0.9040240398778366 0.4317021047369726 0.6647047291840811
Ni 2.884265429414124 2.708680929552728 3.1296530308254935 -0.7819904849821435 1.1810038412368435 2.0735908429223318
Ni 2.6050792396382425 9.118474882872903 1.0959935231923195 1.3499754554449719 0.09513955871832647 -0.826723309113144
Ni 8.832060450474883 6.92236249490884 11.237329341857265 -0.793618299029059 0.5907402618814729 -0.9804045728211052
P 4.721531150621516 5.282328549394953 1.142318880733205 2.7820673178757245 0.6931714691652062 0.6816336437289358
Ni 3.9572662124416893 0.7204292046198048 2.7669572312424475 -0.7606837530845674 0.9189582925901658 0.8127174817523551
P 8.121932427892485 4.884606671022834 6.299266445960616 3.5772542469434843 0.7771251864700423 0.036745949270781876
Ni 5.225804066610159 3.7422166314244367 12.616224296629177 0.6067561776937551 0.31307140487524143 1.1849954788947399
P 6.085169082915736 2.011342776687745 0.5608779206472084 -1.1180688922755195 0.17475788187260227 1.3571827718266884
P 2.739738029005629 5.753456415017825 5.034742513569491 0.341916868352024 1.6249323128366788 0.23168853362137518
P 7.934831427480271 4.925897538851381 10.644726739245552 -1.0838199983949786 0.7460847722244699 -0.6982707380649845
Ni 3.7633676678019174 4.623406820725102 8.08235218173112 1.1450729316681891 -1.296080505198729 0.5012090504888594
Ni 1.117746601021359 5.713438916355872 12.056112270083641 0.23702382979135952 -0.031179768036914038 2.412790826563825
Ni 2.5888718717898946 6.481645681146995 8.150253656238922 -1.0031513795993177 0.9652304361838279 -1.0757061110385924
Ni 6.607643687579821 7.879505409793447 9.154585198055297 0.8977595470253634 -2.127346696487549 0.06627249797498909
Ni 6.12085150860612 6.609432022218201 2.6889006376310522 0.029645847890890874 -1.7216402444833898 -0.7794273522406576
Ni 0.6041546825951292 8.20768822345749 0.8043667039189802 -2.1844380421839027 -1.6780235362347038 0.890920412616343
Ni 4.976813579498012 7.662667494137815 0.21966179904272695 0.21002853214943829 0.046855784011274146 0.9926473947441999
Ni 7.561659357599409 1.7985309547206114 12.842252941504876 2.0993687232173843 -1.1341259457383823 1.5323366035861288
Ni 7.037452596348412 6.389494950723283 0.0623295481030934 0.3135138917292987 0.022330030955767997 1.008281244626715
Ni 7.230751908439197 1.4894205895297556 2.767341114594142 -0.3219656220410778 0.6610069686175196 -0.321666088522788
Ni 6.27812196368914 2.3879978857595856 11.164837184243718 -1.2270834092037255 0.21333291393232293 -1.230465695412397
Ni 1.6657634930859615 8.024435419570791 10.90416540762978 -0.23742775009799752 0.4398543015304618 0.4372081221568664
Ni 6.692304011141211 2.318131115751281 5.095423235862016 -0.05393788766903614 -0.46760087551611085 -0.12094520692752073
Ni 1.4240948786817338 4.294680952563542 7.665622459645002 -0.924055504607415 0.24580877507284116 -1.2013327826021827
Ni 6.229733935358542 4.354922549753764 6.1367948396125716 -1.821750002722798 0.020237667203113534 0.6704709422438969
Ni 5.665809291720084 0.21813281974195553 12.3942788597943 -0.2092785413572912 -0.1352842492580122 -0.5170488457345934
Ni 2.964796666192658 4.536218484847679 11.753383731539484 -0.20737669634888803 -1.9195509103233714 -1.5677229535052226
Ni 8.8626868515332 0.26850486959021036 4.7964764164824745 -1.6823974969326831 0.713361828070152 -0.9474702839869296
Ni 5.899781513073277 5.63699931432588 9.191570954539726 -0.4703218739916997 -1.1701054491567848 0.16612000369194618
Ni 0.946974687569005 7.899645241244515 4.369660861556239 0.47289220582203717 -1.1491177911615242 0.15286570978520125
Ni 7.082507393625275 3.962715483434028 1.3712481856663392 -0.2746660656241657 0.05313518926208268 -0.27761100718510257
Ni 1.250897946007703 0.46169276187891944 2.9287294208497223 -0.1713725103401371 0.4762485238887798 0.007792242350909161
Ni 3.2626995101157656 3.6901770297484577 5.462051499047782 1.1560469141811898 1.0236515564351985 -0.25283868533642906
Ni 4.386738052901475 8.1079440930771 8.576645066876578 0.004486575016443886 0.7575596056332888 -1.0682967059483988
Ni 9.299031140289165 5.923741452024128 8.583701966441742 -1.7838992504236115 0.7247914100633325 0.1791567822712463
P 2.8500717220876255 0.25154284325048315 12.483777986188748 0.030878434746411335 3.3666636716429887 -0.5980270253508734
Ni 0.7531426202901363 0.49914947769481627 12.99244589840386 -0.9203232912584924 0.6079640819589271 -0.5082726422038601
P 7.983200729793711 8.642122458463563 12.213293776585171 -0.22380835954235007 0.9407625329494507 0.6629774620803293
Ni 0.7625196733809052 0.5368458865303074 6.691987541451278 0.1739785805044165 -0.5433975109314512 0.6669901827841481
P 0.42837824105788647 2.8428341164569075 0.3930347562780221 0.972668894739744 0.469920524788223 1.0948073506444176
P 5.868237537174326 8.39194286926202 6.660372406687134 -0.08648908213218008 0.8006746916552081 -0.25160044205395377
P 4.27657289397388 3.4648562283212465 10.384123312594234 0.4356801155481142 -0.8328409919751076 -1.0981533842985152
Ni 2.6547874521783243 0.2579639945332083 4.836080070165283 -0.28504046687995427 0.42379596251601853 -0.08938697250526541
