# total energy = -381166.2282645937 ev
CRYSTAL
PRIMVEC
9.27593709510807 0.00000000000000 0.00000000000000

0.00000000000000 9.27593709510807 0.00000000000000

0.00000000000000 0.00000000000000 13.57627156478046

PRIMCOORD
 96 1
Ni 5.7125952195637595 3.6344606220475306 3.6652400369669778 -0.5846989407833995 0.3346226486834559 -0.4796945734558513
Ni 0.19347749876132522 6.896677883020558 0.21022149305675467 -0.09586949490581553 -0.5778245822610694 0.1885701051653462
Ni 1.330048811721648 8.993262319688972 0.7687210357583565 -0.2886942615824576 0.34312451550688 -1.9156919415885973
Ni 2.817575209811645 7.57872827166863 3.696479538373076 -0.08720024926659176 0.1600282889719115 0.3052940749226678
Ni 6.941786765774241 5.996633693509993 4.787468895780942 1.461662119888702 -0.6255398860591614 -1.825206850923147
Ni 2.0906107330917383 4.6381541341757515 -0.2611955509215121 0.10489638099477418 0.24747227881819317 0.8275979984086134
Ni 1.258735406290779 2.9786518598255682 11.923537384074423 0.731106810758399 0.22746883911307275 -2.567181457633985
Ni 3.002593053818424 3.4439606991373126 1.9605899209267417 -0.8334390305704227 0.01871454569036777 -1.5823332472192297
Ni 8.916624526287588 0.8354029657298561 2.9431862414170893 -0.22472855736377426 -1.5791558779325126 1.8224411152525517
Ni 6.503350316620306 7.050853235734721 9.864722708622637 0.8335084503557775 1.4627473825330808 2.400459558691982
Ni 3.9162357673094337 7.306303271135436 10.567416695577991 -0.2529914088642094 -0.37201703017151416 -0.7221444593587886
Ni 0.9761532544897908 4.149488484916696 5.101243241708151 0.5070251429500042 -1.1337155976738411 0.4363971962197968
Ni 6.895045318067927 1.9583915238030274 8.61990120817815 1.2861555327755332 1.489180379913629 0.7669721571964404
Ni 8.282938874361232 3.816389578956432 3.742041086863625 -0.00777758706288983 -0.4324664937068229 0.036152538661157085
Ni 0.8668001580688787 7.341375589805327 7.526454654997829 -1.395081603754991 0.37137399727087655 -0.04708435508231246
Ni 6.816236955354521 0.1827313254793713 2.158287971128109 -0.8742766334120748 0.5811220220654185 -1.1442216394114872
Ni 7.725705497091642 2.5374233535651425 1.7345177063298896 -1.7750088899125174 1.6233749956518881 1.3020014986688544
Ni 6.6585181946181695 0.990150643771162 6.518076794568024 0.413273722828456 -0.4397131479669072 -0.21982160698046013
Ni 2.0160321977556057 6.7081722866149756 12.186523190881493 -0.9265875270006493 -1.0957092936333968 -0.5482743794077783
Ni 4.398000119268727 5.126151915954185 1.3295980011722284 0.6846960847043433 0.684165409011854 -0.22813218372868452
Ni 6.55050918150201 6.630755314486199 13.21158567960845 -0.5014813303136396 -0.2701607215546444 0.2266113762087839
Ni 3.092115124033475 6.748030988895991 8.011738297542513 0.2868924324870285 -1.116398189441316 0.2340812022232678
Ni 6.795403200334005 9.058843195911168 8.643034468038197 -2.109262328182013 -0.36865171324370705 1.5815783713310763
Ni 2.9883544901690504 8.11735411885311 6.145435495786316 1.1889706614924038 0.6873278659002356 -1.349669751279095
P 5.460363934382153 8.506507513499473 0.4091263426918574 0.023592442607959365 0.5994007657699484 0.3264678807868055
Ni 0.6407372194092574 7.694584727682099 2.6066710077746986 -0.0700839013012793 3.0626842017666864 -0.9145866458850314
P 5.035795011388355 7.709852920364099 8.343243597486513 -0.049492707413488955 0.679880665593571 -0.5981980037110988
Ni 5.742927534308679 3.6532814986889504 7.568826208674684 -1.2322685529490907 0.7251711620002543 1.1063644593543978
P 6.036566603288855 5.443852766111218 11.527666355685469 0.9961348390721682 0.07652682871314562 -2.2350890315715506
P 2.548322579811406 1.3014696491133613 12.600627001491432 1.0452740198009804 -1.1686653742761486 -1.9207104778491115
P 1.6418501657998523 2.6510164808942824 6.964437676898285 -0.7980593655195481 1.7769508441302364 -1.0037270495971293
Ni 2.099311562214287 0.29923709709900137 2.7575580407405202 0.6361893953532076 0.6695643712692275 1.0036398891999618
Ni 3.644302391449475 0.8129385009441538 0.930402476879732 0.7454810772021999 -1.0857115589907367 -1.008602889632192
Ni 5.46238608869848 7.127704375692414 6.114453865435236 -1.8705765373071976 2.931253007706178 0.23016284100546813
Ni 5.616459406103102 8.562868108114193 11.784244345053459 0.49058602355737446 0.3438649932173304 0.14285023453072818
Ni 6.054320747148725 1.6815326252734812 13.562708659202004 1.0177853274624085 -1.779151708436297 -0.41327243727687535
Ni 6.521985674517108 4.244548289658574 13.19112667245206 -0.676713580719499 -1.5090303247600205 0.9824676259977209
Ni 2.947948507591414 1.086323560980742 5.051594715273683 1.5140915413330118 0.04375349093686658 -1.7193984996370646
Ni 3.187555242201818 4.80133642194108 5.965114986393245 1.2121663828825768 0.025218922467788826 1.6161576519678422
Ni 8.638142338742641 2.7188514098635777 13.131825605735159 -1.1370955698896674 -0.24604943032873755 0.3568734896618564
Ni 1.5259844338491517 6.395795824428458 5.574118463019109 -0.5408886284666685 0.4937492517767044 -1.3111494837167097
Ni 4.187306481006922 0.10872882584527517 9.436812593038283 1.2475622458833677 -0.024110777005274607 0.1996279056414046
Ni 1.3286666970742498 4.9730340200843415 7.703597228295606 0.9235844785082674 -0.32123825695675 -1.0176984241755571
Ni 6.519295652720158 1.5585615254039402 4.249509060889638 1.1640908675315889 0.036583969771620865 -1.8885868578416896
Ni 8.415844503005026 6.3467910480378125 9.017685862417832 2.6624747683213563 -0.53265801302676 0.24693209004400699
Ni 7.028526054820034 8.635934665681695 4.487514768733995 0.45719330702954164 -1.7492883452179615 -0.2221155452209594
Ni 4.9767258431022245 2.3965311429655753 5.599098561981821 -1.9721335695160938 0.3811961255676209 0.41136416451056895
Ni 6.814567286652966 5.002030599868016 2.170194564157644 0.5966931370307981 0.3116004767566698 -0.8909679780248267
Ni 8.47687089404687 4.460612695577048 11.68291122396235 -0.6253974469440262 1.0339809633856645 -0.21056255027603737
Ni 4.053575293949581 1.6285113680618724 2.9913144417394184 1.6414691341494376 -0.0007175948923148932 0.9846947155560266
Ni 7.330726813864296 7.239089829960609 1.7911853344669502 0.8935663348796223 -0.2263334399570489 0.735459688410456
Ni 3.282939704746774 8.443987696563463 12.518856832020212 0.5330511347001207 1.776401913605302 1.2286990904302775
Ni 3.4944125217359723 3.9547216308802815 8.863838877881642 -0.3165498503421451 0.21361085018405793 -0.5700783626567473
Ni 3.9793585201654516 5.27197892516057 11.824050174492259 -0.6627725451583746 -1.0703839274947307 0.31198999888560464
Ni 0.5842912861720143 4.077395900758435 1.7817767513336866 -0.32676227209877273 0.853622190386517 0.2642826655073126
Ni 2.479291054939329 6.934180497244935 1.1501345883792897 0.745533013486058 -0.7127913002786627 0.23551382090473633
P 5.023940363607314 -0.09272597893459159 5.158236455242014 -1.0605759402653736 0.929757954308831 0.09280242594471759
Ni 9.23324936772584 0.7683370119569987 7.729555011042451 -3.9971570450526834 1.7628699405571382 4.110732956099326
P 4.862047431117074 2.0155591249568316 8.849054889123096 -0.9257650310993542 1.5015486716709945 1.4171175005091077
Ni 8.699632526646027 3.335738339464842 7.869757091912041 -0.0003738383996509691 -0.2909555468128086 -0.3442856256945167
P 8.47290079291206 1.9507667033992584 10.026972764696264 1.636875344131168 0.6830202396638172 -0.45305820181524553
P 8.862935401595356 1.0400273582615085 0.868545889455727 -0.25761245257598864 -1.7292095721902154 -1.5241502111205945
P 2.290024831680815 5.554616732584944 2.9676097841459494 0.21625085891006626 -0.5457891510920794 -0.21372166473030937
Ni 7.670940363680632 0.9291706324154734 11.6664436525964 0.761468710879708 -0.37707284742786673 -0.23026902756602924
Ni 1.427770810448782 6.9145711659388915 9.859957659667142 0.02287201950216706 -0.31913303768828905 0.2617380447085879
Ni 7.834771967052122 8.509670608095199 13.142415015677912 -0.4601266786262528 1.6132476774098992 2.3118925109848507
Ni 1.1801960457570684 2.3267111634288753 3.5245899283291364 0.722291269349298 0.8908090838494592 -0.0331515470513042
Ni 2.2051407300811947 0.35480645426792795 10.501884054229397 -0.7397143499217518 -0.22992372841146855 1.0816625857323436
Ni 0.5165917858862892 4.438897726519599 9.712179920861105 -3.3336265386823625 -1.024556841858287 0.2099305731189933
Ni 2.2938650696943923 9.003502954391843 8.12457079801872 -1.0471439831301839 0.15267390548936932 1.794710482106503
Ni 7.053932846895367 3.5168695657718896 5.750419708810046 0.9842524858122855 0.3165033133749259 -0.3539907687974226
Ni 4.442635929223637 5.899125041339168 3.9216009694037646 0.21436572607221147 -0.990289950255617 0.30495031843000386
Ni 8.952485299622102 8.632734467337048 9.477609092573339 0.6048160232482487 0.11595161036767125 1.3909446987684817
Ni 8.750158556742534 1.9782327535398418 5.300841931448121 0.32775728902219037 -0.29815412144377684 0.09143511328354575
Ni 4.975139657835746 7.712505838412126 2.4552552463867188 0.01532403195158006 0.38243102641598653 -0.5497897876110402
Ni 5.06672098611605 5.7151924819884 8.99354709096196 -2.3058151944425194 -2.065109287813882 -0.6793695302851074
Ni 8.462938436326114 7.019537671643329 11.469071187791837 -0.913576202342646 -1.7797294353166382 -0.9940841271907267
Ni 3.71330608850986 2.489401826520969 10.8253656684687 -0.5068896458134045 -0.3937035140060123 -0.3553282566619235
Ni 8.685097133005266 5.274047459163053 6.34504717183841 1.1324485580359593 0.0639711035353221 -0.6574683593366418
Ni 4.085382482714207 2.888016677142813 13.140011620341394 -0.716226808322773 1.1644701052478783 0.1457452966903361
Ni 6.880713995046245 4.583528139823204 9.605796051947793 1.3098613610329053 -1.1492831130947947 0.6338242375551407
Ni 3.2092423834475734 3.5508937035346926 4.098269542309044 0.0603083099717542 0.2842043441319041 1.246651304033324
Ni 0.4874328772010736 8.631881081111809 11.929374731373807 2.016777947698346 1.5813302598760122 -0.23160831520274305
Ni 6.14430661422532 2.5365977951515957 11.194573015287544 -0.396666196178762 0.9385408427077837 -0.47773667839853207
Ni 7.927039714687509 8.130720744402781 7.134018506165462 1.1943995458174592 -0.6317419011048153 -2.7334392724553767
Ni 1.7090265032257568 2.296490159930726 9.054096698830136 -1.0055327353473005 -0.29835955258636354 0.7775864423771769
Ni 1.166931455516935 0.6241861646082298 6.227245551787629 3.001067200285838 -1.5679340410747642 -4.023001516919614
Ni 9.33242768859822 5.952201954174162 3.4154780062762264 -0.940071420419697 -3.2256065244569414 1.825876880406978
P 9.149329963598229 8.553517963385485 5.131097845685681 -0.24233084382656975 -0.5485829117871327 -0.4181395355611895
Ni 1.5427831561742433 2.2353060779559586 0.5572203909574659 -0.47849849626522106 -0.24700176693967782 1.521645956641502
P 2.2165223050634624 4.747304087571308 10.538757759909519 3.3979151734581032 0.5743229968657141 2.1277534450076647
Ni 7.002071081837616 6.0729561050455265 7.386605059743011 -2.4133089038508246 -1.3840104335424939 0.4789497248700268
P 5.447025136644172 5.023374531436231 5.9300612195978175 -1.3621961658808799 -0.9892149720238835 -0.6644031387832622
P 5.327235683244817 2.9808595328865133 1.4640378698340073 -0.2886045300821287 0.9573597751864996 1.2015860362635693
P 8.407125122008015 5.0417594390278 0.4541693662912015 -0.28271387562930667 -0.3242621313847383 0.02835746809677052
Ni 3.4677349262600123 1.503406802629233 7.322402587793321 0.24666109577080744 0.6683551814524747 -0.07640444420266843
