# total energy = -340868.29438129684 ev
CRYSTAL
PRIMVEC
9.27046524487234 0.00000000000000 0.00000000000000

0.00000000000000 9.27046524487234 0.00000000000000

0.00000000000000 0.00000000000000 13.56826295885770

PRIMCOORD
 96 1
Ni 7.242736197855408 0.014096669093218649 2.3620449558949836 0.5347809729070337 -0.5516031866706951 1.369219134165932
Ni 4.697594922793244 4.549610489848979 -0.016664587900808787 -0.3891251506067105 1.5840941957743944 0.047100553032228556
Ni 6.223902822862759 1.4309518969833341 11.535425020435243 0.28050658356534275 1.0866135019797158 0.37157660019998584
Ni 1.2562221724870923 7.710848328502571 8.140957114890401 1.4097574605996106 -0.15824342915734682 0.8501360316101295
Ni 2.130510457053946 7.323101859021469 3.6583294429199853 0.9287907052995552 0.22971598327603662 1.1616938280543219
Ni 7.1019178343633715 7.80368276510621 11.735285121478833 -0.13506467704803835 -1.0763098060608625 -2.2862192745884626
Ni 3.7176047961897734 3.386194942570496 3.7634963791255625 -1.1209935221214824 -1.7685099124517352 -2.145351617705402
Ni 9.13331775000235 0.2581815234639156 8.659509845653442 0.07994999546208166 0.20225583018255489 -0.28109485196864487
Ni 4.763684067844904 7.51927416908434 8.31853936147002 0.041391675572909355 0.4139437523122871 -1.0315844381290298
Ni 5.697006673591304 4.125384740556082 2.212508647108154 -0.6960575324637496 -1.2265915571689714 1.2424362375107119
Ni 2.1206930346090433 3.4838407505139872 6.7367505094590445 -1.9696005186815952 -1.2460308968405058 -2.1260079230714677
Ni 6.394868738565204 5.751767310401538 9.395492989792293 -0.4230577987984133 1.2336163252262367 -0.7530056677140193
Ni 5.170815079660558 1.3255652507570355 2.619719384922888 0.1722834521901807 0.9282667144752853 -0.11315887811388255
Ni 3.815473095293489 5.403475940000233 11.220057706514645 0.3199233948000684 0.1221407698975187 0.25233680599934605
Ni 3.809558538617523 1.6850368019596178 6.72101204101267 -0.0965194697849886 1.3770972513624282 0.7164237548249274
Ni 1.145263976790174 3.4434307935382273 2.727396763052997 1.5073969029216554 0.9007291711766487 0.027528544437571946
Ni 0.32764789891848306 7.573691798689228 13.382784883569089 1.709180164343166 0.7991083756093528 -0.802545940535992
Ni 0.9760409085094868 4.31701452276437 8.88086166572821 -2.001272395863579 -1.7024811550564354 -2.084297687816875
Ni 1.371917575803789 0.9523455999455864 6.8638587822487525 -0.7211772103495128 -1.1061418018206306 -2.0084732844873923
Ni 2.2629112383174927 7.683287236029772 1.3539189679881345 -1.9122155530042229 0.304794766688746 0.8648409419204719
Ni 8.112305815732503 4.725851300141745 2.2689120103180453 3.087316141382754 -2.3946020714699405 -0.011957686582508438
Ni 3.2348453308278367 0.1814600820930303 8.345146523093359 0.017675048682259883 -1.5250256717470123 0.26322157123264994
Ni 6.763119420131642 3.5847868440008064 0.05594632928493044 1.7853403537455124 -0.07974584987107555 -1.3127746780249585
Ni 6.859773288319131 4.200874137127225 5.184134883785994 0.44091719557733744 0.6202634681515704 -0.631791523395828
P 3.1489822839112307 6.439357700145078 13.565643878832029 1.3773793013792213 -1.2757096548518612 -1.576749582483865
P 0.8452411365530551 5.673524585722618 2.790462809465109 -0.1399896251534815 -0.12969467098537663 -0.6976793843378887
P 7.020532422046282 2.6746404007777844 3.623241659906094 0.17386390930342313 -0.5331393235385528 -1.1111269137400477
P 7.6151956705360915 0.28005796679298134 10.20456818825087 0.08683438128674077 0.21306526209323304 1.0023867335191512
P 1.5918408172206153 7.81680974355945 6.001120570037049 0.6288699788736588 1.2972426438276303 -1.348899962992606
P 4.616784279306734 5.458533231690767 3.940019938601113 0.5151529142634612 1.1921891684297017 -0.9013511210313638
P 3.763790252866359 8.737311296197916 2.7233807976109468 -0.34375057912665313 -0.08019990668935864 1.7845919056152622
P 7.566006583196477 6.348979936768919 7.6380093578776025 0.5157470962040344 0.3457215868100949 -0.5696402466780641
Ni 5.134567561473998 7.040649331116573 12.853229037886448 -0.4708134689161375 -0.036827196130678516 0.6411922478844376
Ni 6.4472839477280734 5.295651161476475 11.464490203323194 0.14400568829141006 -1.233856980482133 2.7024083712915004
Ni 6.829421785878517 6.139254206862378 3.277617402287979 -1.4229251083298202 1.194902967816439 1.2244626837514268
Ni 5.351932154548243 7.329581914063005 1.9808443617569849 -0.39327491110902596 0.006465810230001767 -1.0353693590927588
Ni 8.709333032799696 8.015892979635256 6.448303698879102 0.3187466008831478 -0.17011652644584896 0.2513574728052123
Ni 4.432441082595796 4.158118752504099 5.604547690820545 0.4540115668674503 0.029971092440793545 3.7980654715307236
Ni 3.997007341106594 0.7225567296658092 11.882799541847122 -0.31928113323037915 0.3980548489961725 -0.7736847933299257
Ni 1.4319252958093158 5.3101501687510995 0.5410734714102554 -0.8481989624884166 -0.6741195947400777 0.3133565402158281
Ni 9.191508458866045 7.6408563176819735 2.2200251401377353 -0.26908908575702045 -0.32411557850454503 1.0392039023475006
Ni 2.1160392611743495 5.111808569876041 4.440919849893348 0.8645923162447754 -0.7859718382273947 0.36088286793156554
Ni 6.871305746790764 0.3436876574776616 6.482196518953288 -1.0884546689535124 -0.5036847657228616 -0.6853023508297746
Ni 3.2427252260857853 4.923942596461551 7.791493030665414 1.0853999412875888 2.1161672828319618 1.1144783467107837
Ni 3.910495361639333 9.022489340815563 0.6905986556390745 0.858469234066173 1.1312193136145485 -1.3015636398004875
Ni 7.162889682729872 1.3784625241003905 0.5552007330380049 -0.3791752384828502 -0.21190286635401567 -0.22464808183482599
Ni 0.31475546322997905 2.8986055649386873 13.46959444496315 -0.8592392794629782 0.5658908069379609 -0.13443989897984587
Ni 7.126391861988057 8.331802615758898 8.557774835594326 -1.0217561391846985 -0.9850806381405357 -0.672120562032178
Ni 2.2498213417242896 1.2530424029888851 2.0523354067695947 0.09081933407641779 -0.30177937690118994 0.6402679362979554
Ni 8.839240058975728 1.9508395747077205 2.22353957342278 -1.2737383900581032 0.43171187492898555 2.330009532300535
Ni 5.61824480287186 2.0908235963489155 5.267593172079174 1.4389047715875283 0.03973434247514447 -0.6340443239857467
Ni 3.5071466995474943 5.349716513411009 1.834360817097734 -0.688114366357273 -0.24742265652718035 2.361311684847927
Ni 7.533179866598365 7.9141681670876505 0.42719786037489443 -2.2746855629172504 -0.6025562806797945 1.3280873971226288
Ni 5.756532329416344 8.501368691244933 4.080641768234952 -0.5552868061698695 0.47327170064864305 0.4414931226854654
Ni 6.649834337717376 1.5449322642733008 8.643539615581833 0.781417386087493 1.007384958064691 -0.2597184431753979
Ni 0.24776986421191383 1.9029205410743868 10.577288160998316 -0.795797823178881 0.6559082139383736 -0.09390671475248989
P 2.141533039950064 2.1933549393523344 4.927301285934438 0.11076338129851247 -0.6665829200434004 -0.48390064111739883
P 5.745695155820414 9.167182758681507 13.240466558838538 1.3225338142942513 0.5082775272998666 -0.4417893137696456
P 2.2326987928520188 5.599472111227925 9.589098308094075 2.8698393804853866 3.566845650015651 0.49122262870010885
P 0.1561146307574655 6.583142612440107 11.469130071060375 -0.5531551045388473 0.6616569434966928 1.6793990764259916
P 8.776015487611955 2.2994183295243156 8.061705763618464 0.42052526218454667 0.7141598984914153 0.1141973466807259
P 8.496483156185004 3.560266464051074 11.624364934688451 -0.5085850312379563 0.7023176544408485 0.50422546871768
P 4.747683245238766 3.371538337390713 8.07791980691982 1.1136555936991723 0.2899569303449651 -1.9420280083799653
P 5.219828028164996 7.241225112058884 10.644220918365829 1.3441182253332464 -0.7329778025288667 -0.5770136563239998
Ni 2.668364295966454 8.120769750286039 12.33113591653634 -0.9247268196428269 -0.4715662879217621 0.7141740395588023
Ni 4.4014313771395175 2.3893789219750543 9.857355899976652 1.52679639049419 -1.2826102386264362 0.5538359326559559
Ni 5.568351160191535 5.647502390441371 7.342655123819192 -0.05863606447565385 -1.9367827008206258 -1.6941631221090436
Ni 1.361720064293503 4.847665210364613 11.337681366553287 -2.436435719676275 0.22281797060462272 2.703329083333557
Ni 9.211106221895811 2.3705227961460356 5.094027817988107 -0.1403680915388228 -1.4788658853614982 -1.3442858612593624
Ni 2.034125432351727 1.170776296495907 13.297548520087114 -0.28769975887967225 -1.0835412908122952 -1.0050475681807658
Ni 8.756315749467085 6.6423530724548305 9.51950678136188 -0.1135900521140302 -0.31645703351802273 -1.1467737164093796
Ni 0.9833274940068364 5.838084610103602 6.372415672312557 1.1696855880105468 -0.5351964631778977 2.718568783101447
Ni 2.7578057423766693 3.3434859102724173 12.844856880936504 0.1544076003510244 0.30519920121601635 0.3873117515470556
Ni 4.068834903999043 6.508265066559582 5.860132557035341 -1.2066464815056122 1.5423687910111503 -0.8849605954884823
Ni 2.0212302155237203 2.033578474916175 8.68553296798119 -0.8151278909660606 0.40045497379723294 0.754990559354532
Ni 1.0292811890581877 0.07840310372358153 3.821052988182617 -0.889972446880777 0.8394677532630058 1.1846031285523275
Ni 4.82071596858243 2.0357848455884007 0.2496452792833055 -0.18505257893039098 0.2660359007529934 -0.4101161510360808
Ni 5.1638066081134895 0.206934392892225 9.632421972222271 -0.2753214398199774 -1.8780342791368239 1.3456143502627986
Ni 8.485896285144326 5.2723730238379956 13.102436751221314 -0.023023200368050674 0.5986620878317109 -0.2855767989993985
Ni 0.7085796495712111 8.600887133120311 10.894066439693335 0.22605241838152035 0.10078210171608451 -0.7511758135941321
Ni 6.731395888869644 6.929830192394795 5.488891223456887 -0.18821940669414683 -0.5038233481832549 1.7602975518442716
Ni 3.9300189609490257 0.6590994696303027 4.6418247323434905 -2.6849166422646404 0.6266212920487982 -2.5515272960364963
Ni 8.241267254477581 0.3881450994765038 12.26484096716147 1.8408936655307842 1.1312339689025679 0.8177028507820885
Ni 2.586626605979009 3.3465080818654656 10.421470185121148 -0.06253771352290519 -0.3246362268947054 0.6806021171406278
Ni 3.293981627122485 7.694597203341179 10.13554679511675 -2.0777909970466086 0.08833796241546077 -0.8599499323767578
Ni 6.981587198542 3.669574516976328 7.521417500594501 -0.241863417271848 -0.1393933863303793 -1.4124825728402577
Ni 8.787288373063326 5.800937856811133 4.696328577272967 -0.36849616150244924 0.5947843500438595 -1.9298445789398955
Ni 8.032060670611564 4.039280661549233 9.444785906340012 0.46020484016235585 -0.7081592008232901 2.429882234828473
P 5.051596899640309 3.465800425605791 11.756506142931736 -0.23168210586347196 -0.43590688684693957 -0.5257168058222366
P 8.993018532550836 4.120462123636117 6.066736921373233 -0.5880938253975614 1.0727082047525331 0.9503699741322276
P 8.013213815247553 8.303768729570622 4.292455206861598 0.2308416122400476 0.10171155550888934 -0.660983571578752
P 3.4315089755362025 3.04348439210482 1.663970597272369 0.27726930757496765 0.3831511924114627 -1.3924590785304793
P 4.5977983669675835 8.845942605177488 6.203884180721567 1.8250099044209924 -1.438930225508825 2.405012725280303
P 2.169687442183462 0.9766156773400664 10.715454244451177 1.2248321512757034 -0.24013589305778002 -0.03888099333591368
P 6.747276195430662 5.653769224787692 1.01751511486832 -0.9353393050513504 1.3583407966905316 -1.5850377906345865
P 0.0991726535305308 0.780267228442019 0.6821847815965878 0.6390821435199704 -1.8723721957550397 -1.163187896101345
