# total energy = -340864.09242620354 ev
CRYSTAL
PRIMVEC
9.29685941186234 0.00000000000000 0.00000000000000

0.00000000000000 9.29685941186234 0.00000000000000

0.00000000000000 0.00000000000000 13.60689349021142

PRIMCOORD
 96 1
Ni 3.48675919369343 2.2518201840891057 2.113518245619468 -0.8981295287702725 -0.8110310951888676 -1.503814584887036
Ni 0.8298069823881709 8.391893728039733 8.593134474353148 0.5262539092726292 -0.8778972608837977 -0.01702173136897714
Ni 8.416558295789558 3.5946864334249486 3.7682662342328777 -1.1927152161365007 -0.11454316005591886 -0.6520531018583415
Ni 0.8021971696088906 2.0584455104380073 3.1353955522975223 0.8367069026884171 1.0667368176604468 -0.5100320480971281
Ni 3.187428214484564 1.6724956930364843 9.84556738412138 -0.3515780455908719 1.327675506396191 -0.9355984722500081
Ni 4.062216191273029 6.256014676407495 12.648695973731973 0.4682642201317226 0.24911521373825482 -1.106031244384695
Ni 9.041595444070182 6.149965402256626 2.5155609264868586 2.0957658363574745 0.9726357275089635 1.536284018269651
Ni 9.018325405216878 0.19201361344809217 2.687034988661039 -1.943763760124149 -1.293281345187037 1.0580094650897778
Ni 6.074893263327173 4.90995030746896 12.580974861459055 0.5425577886389753 -1.1383806072496783 -0.6047432610287844
Ni 5.313127205172189 8.79494046971262 3.7220571247177134 0.5488400221032613 1.961550651793925 1.5175918411767864
Ni 7.438779711563264 7.945802527760856 13.011211197870404 -0.81547858943726 0.5373255937057584 -0.8861011368508287
Ni 6.319605194088913 6.354087245270256 0.7547580856069936 0.6374091266929216 0.0105849746046979 -0.35163126742631057
Ni 7.45792194488286 3.137885251220781 6.56679566754274 0.1726925147031413 0.2700730469368446 -1.2545361060980396
Ni 4.852895481882577 6.569588444079509 4.078571226171443 0.0557649135754459 -0.8492762547129954 0.34354360532216965
Ni 0.9558844805508938 0.4427192294070856 4.960379261425001 -2.380310594547933 0.5911292697897755 0.812493281556691
Ni 4.91989794693082 8.11460560225523 0.37369934588853987 -0.738732959845089 1.1921331183807857 -0.2857675748539659
Ni 3.4588872094816034 8.4222758642653 2.452152627247919 -0.10142770571988338 -0.1643289732297944 -1.3352360923522681
Ni 6.228579644583244 0.695863411563131 1.0368750001171874 0.02593754580136823 -0.26831724058800244 1.2073113687831207
Ni 8.52970107359407 8.88049946594392 10.356573904533372 1.0843607013897971 1.6248716348020726 0.08364904158022368
Ni 6.446907088622783 7.485273304973318 5.852229764105381 -0.1789158699050338 -0.2646392775157829 -0.8183407414764035
Ni 6.5853559174695215 4.818385540123303 9.18714335468615 0.3219987892718583 0.9496276966495646 -0.7974477000774782
Ni 7.1484016078700705 7.143139585500527 10.303261994505252 0.2456434531395705 -1.2900245288126364 -0.14738463206597197
Ni 8.583622857592935 1.7329624659896932 1.0131187355219637 1.8975733776110157 -0.5480108413337464 -0.8923052087790115
Ni 9.108002910122575 0.4412363803471168 6.9010623846672825 -1.737846164819291 -0.12080996690123709 0.55839089901649
P 6.541214429464934 4.9490064134308955 4.971210102521325 0.1418667875715363 0.22223638706953983 -0.47720188894098464
P 4.655820658226038 1.2379047077242618 8.039238752885645 -1.5702524047952957 0.49770515110065905 -0.34707115885945383
P 2.372818808010694 3.6950181391000765 9.581810837062799 0.9255380026902125 -1.6842921428522348 0.6123660676813648
P 2.1545099576897764 7.206218775919888 12.446293120004789 0.12893491000121668 -0.8884621808838375 -0.3747444564050062
P 1.8527803887788925 4.83817855359461 6.346949116691924 -0.39040735975324375 -0.9313073010738219 -2.79390699082313
P 3.432214520120786 8.02093974470548 5.146113776095018 0.11769070454596506 -3.2304196295748686 -0.3501528831085711
P 8.870152061531725 5.765279957721283 9.169589954622657 -1.1045240637115494 0.08755249039968792 0.1628719290682937
P 5.3781494391873705 2.710648081622886 11.326174041624528 -1.4206478822598694 -1.8082969625416858 1.19470165043891
Ni 6.812282956370947 5.3281137423801495 2.627613182694291 -0.9536036505781772 -1.0148439854458975 2.6296268685534003
Ni 1.6786316201811826 3.5256851436250236 0.8314106906191716 0.7002664283387747 -0.5149747368143841 1.238331985534351
Ni 6.5693560225967556 2.0854807773119206 3.6906653495710646 -1.0234682367797987 0.3335592404159481 -1.161521821252832
Ni 4.527021969343235 2.9824975447109514 13.553567657562148 -1.1336438638956414 -0.2787019262564362 -0.3538290464085777
Ni 2.18720701188357 3.5992418944869216 4.242737956927846 0.9397124944183816 -1.056088336807665 1.6758949199274749
Ni 4.6590838558439005 9.146054955279014 9.759299037524714 -0.4856975851168216 -1.6744635867975872 -0.9936485823152048
Ni 0.5321113207319607 8.469912971370503 12.868583430763753 0.40897843788721183 2.7190410947521753 -1.0269520815633408
Ni 2.4287580104798603 6.219440831881369 3.5443913542429737 1.7170904203291781 -3.6329973061420593 -0.24189864138515757
Ni 0.5921244069508342 4.235518945673515 10.733797689786387 -1.1247277923529337 0.9475433033167101 -0.6315650092073188
Ni 0.481319789262824 2.7543991015364466 6.818169727686133 1.036005707125177 0.9067722920469351 -2.52011587160475
Ni 1.7893944020022972 0.6274970972540889 1.3875767051302117 -1.0965500443671374 0.16959022162873374 0.5896344304118039
Ni 8.681732613892935 3.396960829616701 8.70207135300575 -0.40102498736808995 0.79154881809454 0.7563704704211942
Ni 0.5339892863126108 1.876775582658387 10.998465329057362 -0.9398032543599749 -0.3133655390768926 -0.9989941628978342
Ni 8.516062580986082 4.5299225894480015 1.185842295587428 -0.18499858576400396 -1.2559442992994758 -1.0818664742130335
Ni 6.766812017485008 0.838110007438065 5.574730599614539 0.32414128953615784 -0.946017353590487 1.2236653846611119
Ni 2.453989686647604 5.661815210458635 10.69526313763175 1.4564934312035691 0.84940943785675 0.4919921598762817
Ni 8.793518050238166 5.178415713768131 6.980173079281064 0.6386129171930357 -0.28255523856425535 0.6472117146056402
Ni 7.949316740580092 7.434754171481969 3.984846798408038 -0.9739778433591548 0.3206880408802348 -0.7298809087710978
Ni 2.9887171435894406 0.5581248627676885 4.517107798574893 2.7569070165600134 3.090114272953181 -2.1454102388574796
Ni 3.0062696139670018 2.342222844020994 6.393906623381555 -1.0501318621139142 0.0471907987531897 0.19300165857413856
Ni 1.7787030137956257 5.231881951660798 8.328194437104385 -1.4680338277430007 1.1163351974138644 1.5460513820690598
Ni 4.564376750051413 4.540595383936052 10.76234462598413 -0.6857839184518834 -1.3912982254531587 -0.09970583793277021
Ni 7.290113634334671 3.199820927944993 10.824596395924889 1.96981006358924 0.20015806711326173 -0.04202493828153408
Ni 5.162425115754675 2.9433577670152244 6.2795812850727915 1.053540887795463 -0.8530974282312986 -0.830618273292176
P 6.50414785139537 7.894409489494353 2.2982180198482656 0.2971943286336688 0.10882322685300612 -1.0851137775057376
P 8.663575847660216 1.8068817943646873 5.009065054260389 -1.061853007205584 0.9573590038555513 -0.002929000721336891
P 1.1485525928944205 4.46613683772107 2.786052118429711 -1.3849494004169955 0.8343000930191374 -1.9518118272396063
P 5.6140293536044705 7.186881308554777 7.9338393292005565 0.48336405188763854 0.37814988254212945 -0.5356559193128194
P 4.224901932341325 2.3779413774905858 3.986629006337794 1.2116657890970746 0.6585387095826852 2.8639662095340612
P 8.232229466247235 1.5070115973158331 9.564026874888414 -0.932527546634168 -0.09426512653317314 -1.2815368030565994
P 3.5742054523646907 0.7068922757627607 0.33917266978250876 1.887710368774007 0.192136739470682 0.600637723500843
P 8.23629219376577 5.347107225950784 12.44935457577562 -0.3230537128989339 -0.05377256573576546 0.3350314540861004
Ni 3.832490797719249 4.671374303851918 5.346747437495481 -0.020368793464339112 0.26842599825172486 -0.1724086649141353
Ni 1.8855704115657879 1.2291656599727219 12.57151716648284 -0.1783790235649573 0.7619181397123007 1.4642244812992398
Ni 1.4226054116389908 7.418168574472663 6.253918234633056 -0.7194985370955093 -1.665150022706145 -0.8924489334457275
Ni 4.410969274574646 4.411871069927731 2.8448343004759207 -0.18331117075925205 -0.05003341040830739 0.9405234203554512
Ni 3.956046057951128 0.7567373869541243 11.822648641248826 2.8628531789755405 0.48849314558408774 1.009982286478222
Ni 9.25499555267534 3.436965215228272 12.89315781897827 -0.9365122423135289 -1.060347369194335 -1.1588684427903848
Ni 4.693761141070756 8.940241083870937 6.625373318684126 1.7036018989244404 -0.18323635165725863 -0.09888899845842969
Ni 1.5366778753745183 8.050159773517278 3.68409339972472 -2.2465258126535823 1.3390842624537647 -0.8621538820066119
Ni 4.941290020203472 6.520872901294328 9.807590643525351 -1.5844202116552455 1.1494916295611752 0.3619917847250282
Ni 3.2897587449113734 6.545035438641405 7.070250349137098 2.3554302863664853 0.12590692180817026 0.04832799768142645
Ni 4.2342917602445755 3.764846849378605 8.402148163858827 -0.951804392585909 0.34057089584709094 -0.09247409607102139
Ni 6.48100796857241 0.24788680821615627 11.17626683367803 0.22317226862024792 2.066739110107821 0.7874386525809084
Ni 0.1248270705855078 5.2643744749497685 4.748343002080641 1.5966257525825018 1.921321629070549 0.9077943055535462
Ni 6.192080174931601 2.497015551534974 8.539713791071101 2.0190222636478325 -0.23745603223277167 0.7826533153771231
Ni 7.849607924478745 7.24885417271623 7.664844931606638 1.5282233527487035 -0.8350613966651941 1.5477321122055925
Ni 2.285307471324262 8.791333288300281 10.867635276415292 -0.21520390570279066 0.29275351925349585 -0.916479234922054
Ni 6.751425715326711 2.4011370414694078 13.099574126869644 0.9550136435518262 -0.2329044083063473 -0.5243510358229615
Ni -0.0031469868764854164 6.6733320971214605 0.3374322977196489 -0.8084664197854851 -3.5538770056701243 -1.9931153139740834
Ni 2.586851103048943 6.041173554609263 0.9383719866683663 -0.8403928361804365 0.24317879364916187 0.4069521514858023
Ni 2.4839906516414545 9.301972582769523 6.837803764863236 -0.6680530768310237 1.2318121821379624 1.7678000308689037
Ni 1.1302842643499778 1.4289272759698923 8.498471063799418 0.4773322438712618 0.4977627438114718 1.9185296681477089
Ni 5.4216587407588674 5.349561596808663 6.8136923602423645 1.6737742740400465 -0.45876167995792605 0.853844076589336
Ni 0.6559938304115575 7.164791970833864 10.651040766951166 -0.941508924197172 -2.210250375261316 0.33984378787307923
Ni 6.701297049926389 9.111414857489398 8.137765938168673 -0.4002436291173752 2.058454758611842 0.7196582026018252
P 2.878930531995892 7.549626165118169 8.964697401972215 -0.5778153262896888 0.2500991749180789 0.9762532696568927
P 4.526092283412221 5.02349285022381 0.8505231739889758 0.6590850690044585 0.026170744858096867 -0.6601456490584889
P 8.261124104983177 0.7330582862911751 12.611740028288198 0.02812401192972576 0.504123395922177 -0.31955469860674
P 1.9867760220160693 4.1525072888931955 12.434986279711786 0.5790512555793189 0.0097791908739509 -0.18614786887709875
P 5.520363496054719 7.785413110942166 11.712677951840936 -0.8624770696739856 -0.967965575726804 0.43136529022284426
P 0.7143455678717072 8.064932482961105 1.5400554243618956 1.2192641702696225 0.9055793001800985 1.7002250120324072
P 7.078061570329484 2.974855526358009 1.6281059788883163 -1.587080532096228 0.2451114918955004 1.1699843501978882
P 8.807863104153727 7.877173112333336 5.812946814776279 -1.7652456398781662 0.1917598157472375 0.019485105307805152
