# total energy = -340866.68790160306 ev
CRYSTAL
PRIMVEC
9.27805944128110 0.00000000000000 0.00000000000000
0.00000000000000 9.27805944128110 0.00000000000000
0.00000000000000 0.00000000000000 13.57937783293714
PRIMCOORD
 96 1
Ni 5.558188387676931 4.584548851926704 12.197472009705178 -0.006318743129176214 1.6760532998822102 0.30960298671066677
Ni 0.08886061228938251 4.5807634037602645 13.289064440270979 1.4733097314299595 0.5681677758975957 -0.534175478112551
Ni 4.89881527421498 8.48793970731597 7.208178029670849 0.4071136167643311 -0.780479961874888 0.9114470718147851
Ni 7.2856238456877565 4.652965260699547 0.7508733336026863 1.0270248437828053 0.19096380220850337 -1.1506882209724376
Ni 2.357452792064413 8.472816470768677 5.424187233808688 -0.6710995769668313 -2.4049664454234003 2.737172257135247
Ni 2.394806258530302 7.542375578800164 11.12293636323051 0.6353527583845252 1.3450708190545029 1.2855196989637474
Ni 7.574347770911802 -0.12068342764739382 3.504932540216882 -0.6930344293667097 0.6097461135600144 -0.048000953359310886
Ni 2.271055504500985 7.525675072183522 1.721064214736577 0.49684306021067975 0.6252213263774781 0.3510905644314921
Ni 3.3166649457097077 2.400159698706859 2.9109159315932365 -0.5627869712016567 0.6538204781714094 -2.0406835506713503
Ni 0.4278660517124443 8.278376183454807 4.313366953291594 -0.5227695502684545 0.11485503486938282 -0.6334946221298638
Ni 6.847653059666321 4.578805733262425 3.0440616484003375 1.4379994861644394 0.4910459939129284 2.1684411525350136
Ni 4.6619093097986815 4.818708510810487 9.75694533089405 0.49238888109406803 0.28128022850657364 0.8988946890710714
Ni 1.7972064634314633 8.454093347239576 9.041964169428297 -1.3573082416609592 1.1490170039176018 0.19579464793824344
Ni 3.0550978998561686 7.102781132413221 7.8287419491734935 0.314853950696961 -1.5573374965058404 -0.522060697126888
Ni 2.2869117077275636 0.6859937210088783 0.7058237170042945 0.30376966785834136 0.8240514187079357 -0.3008185556498174
Ni 8.050868893039986 2.4244496577748413 0.6476938925013795 0.055611418716717126 0.364002901617786 1.2387988978684408
Ni 6.640891509693062 0.5166116160673566 1.1704726345398926 -1.9172238048520915 -0.030302764748599425 0.4765213179341922
Ni 9.239629510131026 7.92029876547554 10.811696443863537 -0.5565006239723125 -0.9888725010828001 -0.18006129636338666
Ni 8.41714811537987 3.246300144498256 9.464880376540753 -0.6557449488876319 0.2872176770369312 0.0945669740443081
Ni 7.797216031710889 3.551752410516638 11.79973181631731 -0.48936732065892496 -1.0321603652371578 -0.05180258649358821
Ni 6.372662817311329 8.254234673334528 10.176372059929552 0.8131694816881092 0.029001272328356507 0.09656215009746595
Ni 1.03010580423294 2.5965762126370318 1.940044968717679 -0.01963577195305651 0.6766004521804025 -1.2160379500228413
Ni 4.761861841899284 6.7100872754413485 11.513030508005727 -0.3735707478118792 0.5932612285311138 -1.8255346665762109
Ni 4.459879570033471 8.470459843723885 4.838467993555744 0.13118333971576118 0.14179505379333646 -1.483406196434013
P 5.19806051860751 1.2610088643264783 7.829842326998345 1.599975385781025 0.9562441735248176 0.38472779286996317
P 6.27437105781316 6.378572941041774 12.97375052509547 0.008119286673024726 0.4973297700391113 0.12730225949380009
P 1.8638693190095594 4.8505600881521165 7.945226127212725 0.7382871305569221 0.4003688418413298 -0.7027200320855898
P 3.223411172374225 4.488827114835651 11.433849694912533 0.714209520782428 -0.9175963792456326 0.09882780620319108
P -0.11703715036942697 5.120059874648559 11.026902883349278 0.6919681928857244 -0.2999636638486899 0.0804511034682163
P 7.051965202002473 1.1346973659492763 10.855978764963487 -0.233715591353733 0.38208341326858064 -1.2256173661811602
P 0.6249728532494381 2.3703585724553844 13.140315811254318 0.8645655767718982 -0.6902476106501919 -0.6820504195513801
P 6.1121256360324825 2.896248247754209 13.293327708487839 1.0345090679749924 -0.394418794905482 0.6911840064215321
Ni 6.570304035060055 7.898782946117767 5.628407523358448 0.9651751574658602 -1.2239741741507824 -0.8836878994236459
Ni 2.373346107527917 5.435012873319964 5.90975910271717 0.6028964376280327 0.05942976402154281 0.8820040839633198
Ni 8.41612752886441 8.968366892380601 6.522473784109992 0.6558102549079287 0.32847154148039565 0.1252554042671004
Ni 6.06691365339754 3.177271383816136 5.456044377985856 -4.695050602283907 -1.6123647605843134 -0.40979553447186845
Ni 7.976829980372873 7.5358623812196734 12.954495768772405 2.1098521392472116 0.5283066780365998 -1.7033962106715372
Ni 5.560489346366334 6.904490450518292 3.4202377765224288 1.0413754560775226 -0.1290560089601132 0.5156015717651056
Ni 9.572823173251496 1.5884222965457442 10.939613974293707 -1.0006124152275477 -0.48596009474958884 0.42208257936933763
Ni 6.968017322076153 7.2631152739922165 1.2895518857461659 -1.421034833285643 0.8823424411393449 2.151648506457707
Ni 5.435820064473103 3.1961986246483303 1.8735602518768273 -0.1691238235152765 -0.07331320687185439 0.11755777851252658
Ni 2.712477728556527 3.5720528041150894 -0.13249439704905228 -0.9898891152727727 -0.8138703644098757 0.38414081001824163
Ni 4.432936086025289 4.884146662570029 3.7773484207297767 -0.683575597946655 -0.957716130084654 0.252952585206474
Ni 4.297235191705841 7.475889006347466 0.09580152840044356 1.0889022980138925 2.331844271516429 1.0544837113247065
Ni 2.5447396957108213 3.0356232535293177 6.823460520220269 -1.0680475660520703 -0.08987471077496134 -0.7146718051308273
Ni 8.77473379621987 9.271805819545756 1.144747359708802 2.654781513442157 -0.29817571871033166 1.5249287411578318
Ni 8.091590295006899 5.567846847336889 6.8818788923652825 -1.0165324288919138 0.6240049374718737 -2.2337703127601274
Ni 8.09994982637445 3.546992766130895 5.224190316821092 2.8689040131553107 1.2597695865828369 -2.078422202872704
Ni 5.169279978871496 1.1221070395721744 3.371134575845809 0.2374390629519072 -1.277121190487407 -0.7716993874687806
Ni 4.569063771069384 6.302771197120682 5.99575650592772 1.3584521254574153 -0.10138425407645765 -0.3257009207137939
Ni 7.245960142473232 5.948896739973271 10.33518274418274 -0.29908897455322037 -0.28059888616883283 0.5654480629735875
Ni 0.9252590958877386 9.10274102422995 12.543718974358402 0.7636698322960849 -0.6009544834103134 0.543124973996355
Ni 5.3732024427199265 5.547796961337688 1.2603547611506598 -2.2388464417314538 0.9632483727567926 0.7765541444579207
Ni 1.9437348528740337 4.361151741751423 3.9826820773873126 -0.02402233105652637 -1.0927764362573178 -1.4795325724112196
Ni 4.403756589742323 4.1537036153950355 7.579369984373795 1.5202513902868204 1.572160677561602 -1.9796054524131068
Ni 6.229363192481309 2.7472797287337625 9.215943552719011 -2.4154465190191177 -0.5531633320689634 1.463383216344867
P 7.087611505569772 1.9926580592015632 2.919525042754115 0.68762842785979 0.7792471179090515 -0.0520129027321814
P -0.26939401662120543 1.7973827465568613 6.0932429298846 1.4768408845116694 -0.8956335018212963 -1.002466694827467
P 4.661473241014803 6.998514302769986 9.27747100251249 0.5053423559309426 0.9028202493777225 -0.32936577115989085
P 3.527017104605545 3.0561463205493244 4.885439096220973 1.2695775738121942 0.6455199287255141 1.060953121099134
P 3.490582166003571 0.04368852530913541 12.461957932992938 0.3911352390582038 -0.5946491100175759 -0.17789848438411296
P 9.106507916277925 4.417209775627951 2.954031072841867 0.15329971199882628 -0.46721521004191785 0.2660091612801161
P 6.4663990497268475 5.130655418290897 5.400816730410543 -0.535123443848117 2.557422321364692 -0.3314774181862549
P 8.856631225056036 7.897419071410741 8.754462164605036 -0.7266338625887099 2.587543566230105 -2.035406361432811
Ni 5.576568223014469 0.9533576982702386 5.637967635590553 0.6754192873881077 0.0189603431525867 1.45798698502996
Ni 5.840009436832764 9.110673764872855 12.379489903514036 -1.1983184212558913 -0.24633405144869192 -0.13768000318369836
Ni 4.333558793597038 9.313594198324287 9.623500860579696 -0.9885277161488717 0.4243389795036821 0.25492205022801906
Ni 6.72817949094271 7.065065821637305 8.050615602022967 -0.10073530763854908 0.02602316353663905 0.5228759939393317
Ni 8.010537169560795 0.6619524139282992 12.713352514705097 -0.014989531430296766 0.6272003044807198 -1.3877323624787714
Ni 0.7791426522750453 7.063655556634123 6.769930757484315 -0.11376488712899761 1.0411491989993293 0.3835959932583652
Ni 7.40700869461305 2.253631309264289 7.3285729096761445 -1.2039352532220362 0.9120276269086035 -1.6397963744327049
Ni 0.29564721302256664 5.685381301681122 4.869999477853887 -1.560087548447152 0.7672979159669753 -0.8613478411655489
Ni 0.7582215565140087 1.417956514285987 8.056820768036973 -0.9793136537497715 -0.24728176007394184 -1.446549946837612
Ni 2.846026113134274 5.968501279129361 13.01579219489102 -1.8641721764427508 -0.778248501441208 0.5195880672166793
Ni 4.613997411927382 1.619160506779597 0.36292520392770883 -1.589450060769669 -1.1557234694035 -0.875300446690899
Ni 3.2168144722606518 0.8633744408138486 7.344623952146584 -1.7909772403163156 -1.1133174936334633 -0.5184223290433523
Ni 9.261757681398075 1.7034331187790188 3.813591303505659 -0.2801486860052917 -0.6372762006594831 0.789587323492795
Ni 2.607218146575525 2.0376937587111077 11.823468803055098 -0.4984325161849868 -1.4821905788593568 -1.0779069753446533
Ni 7.811281569505795 0.5862657179416778 8.707843628190604 -0.41208921560205153 -1.4000731434323113 2.433234182019842
Ni 0.06012646284952685 5.93543427602841 8.844031620619702 -0.6348593636878744 -1.6516244774158846 0.6575524344100159
Ni -0.186437961226729 7.030068982216208 2.1003494205071327 1.450281388855586 -0.5637004841548614 -0.443293666229314
Ni 1.2930274467342735 3.316507218702773 9.569400497201007 1.8316649478436646 1.5493475363218283 -0.13699634685311246
Ni 1.4033806832333513 5.221821628299299 1.6674528050793866 0.33127635791904236 -0.31350103621349235 -0.47693500843284314
Ni 4.9305462367866 2.6574217250769974 11.413073336875508 -0.4822962727447564 -2.2261472489972305 -1.0894072626747688
Ni 0.11255584776062805 3.75720575413826 7.201945029479149 1.0445793077268009 -0.523612357884724 0.49671579060419613
Ni 2.420348755594533 1.2017777341927882 4.7853724439918235 -0.6534306989321584 1.1098354486221338 -0.6775761858301104
Ni 2.0189428010043113 5.573497185408852 9.938773952294586 0.9418655362056423 0.3943002670497467 1.1841071627525157
Ni 3.6668467352829954 2.630645246134981 8.978833470999621 0.41217894710238046 -0.974235982116548 1.7069353341730473
P 7.086414635928912 4.664163878191928 8.505782343024006 -1.0083203253947668 0.06298919923802701 0.12106347767293989
P 2.057595195762606 1.3388517812784928 9.658250903625234 1.6738120692565175 -1.8251981091723988 1.0069807806477367
P 3.040985971765106 6.795018629646204 4.195742501772815 0.171400278254279 -0.7126393480818307 -0.41007012828949374
P 1.5820946601498833 0.2631591608176591 2.637699354568666 -0.6182844900483287 0.6224810446281795 1.848271188941778
P 3.4951840833823793 4.661176343119396 1.4091590585227094 0.06262950190576311 -0.16554150548065683 1.962260790487072
P 5.0363161120253315 8.370924824288698 2.002876913639102 -0.3114626656272249 1.141837198339711 -0.0715741126935606
P 7.8288263795125 7.0812653130554475 3.7147744058549885 -1.0422470600491984 -0.8486471057694288 1.9678745371294237
P 0.8096711783702669 7.045581897251222 0.13812989022624578 0.5012514736910205 -0.06767734874231571 -1.2099346653385807
