# total energy = -340872.23886676587 ev
CRYSTAL
PRIMVEC
9.28080921932747 0.00000000000000 0.00000000000000

0.00000000000000 9.28080921932747 0.00000000000000

0.00000000000000 0.00000000000000 13.58340241106121

PRIMCOORD
 96 1
Ni 5.907736324795294 1.9474015099553554 0.7146947114503578 -0.32821571671584765 -0.03573730550060942 0.4393585928409659
Ni 6.887010205796907 4.5829657535472075 0.07692398842528018 0.27327921257896803 -0.7600700307599684 -1.3529425084930957
Ni 1.1244071778580436 7.525863999274929 10.927779939245065 -1.6443829653621227 0.49597119912868776 -0.6790674256636563
Ni 4.1319369800065475 0.3555422383036048 1.8030199586575233 0.8167942229248901 0.3292187040590652 -0.08302914860803766
Ni 4.11973271569102 6.108999956693784 11.50726068288875 1.3293099566758204 0.32278837505268926 -0.6858114292557091
Ni 2.5787285670380222 3.6964442813435987 13.020900365127808 0.46132866935415384 -0.3371862956455741 -0.7998174858612354
Ni 8.03429457874071 2.765384204995341 1.411017132680931 0.9017640401990663 0.19877841315691572 0.35774123697879034
Ni 9.358675355995448 8.521035906719506 3.273749818795564 -0.0375231937564386 -0.7734425954121324 -0.10894406870158656
Ni 2.6266546666010493 6.105148420807135 1.3560858782088856 0.17321110621077268 0.34397503643263344 0.7044912650533997
Ni 2.38302413994942 3.973040242861198 6.682096431574998 -0.3292207609415943 -0.759257305050686 -1.7788470327116848
Ni 7.754747319844906 2.4326764700544143 6.516882247494608 0.8155341252655439 -0.27641955798016266 0.24338756722585828
Ni 7.641011001071689 7.33955175126413 1.7926013220639032 0.5679381763852929 0.11610510522640002 -0.27632854092825315
Ni 9.025020978499251 4.012595052376617 5.009029149894889 -0.3189738864026055 -1.079870269718611 0.2753155262827065
Ni 3.8691508628246916 3.5496590004201227 10.37809987447374 0.23526416678777548 -0.07459901556281347 -0.04868332413831615
Ni 5.5374877159712454 6.014298577929042 1.3759171116609141 -0.49137895177231505 -0.08838192827951875 0.004628242800630739
Ni 4.089208133688155 4.039082482305524 4.868372915476336 1.2440966559322701 0.5798069027984207 2.2778073963756835
Ni 6.1946061422804135 6.72527354098574 12.638962576908014 1.039560257245655 -0.70406420481831 0.930677895019939
Ni 1.9090903288949035 3.238167195688545 8.957371302872833 -0.5109213926806169 -0.44789645510864795 0.22444445046445216
Ni 2.3754231570791413 7.384823539348647 6.73330608149151 -0.983519721411319 -0.7926988725385833 0.17346821652690125
Ni 4.42609223284352 2.4135672835710156 3.193865252182715 -0.46055810973671646 -0.40046448687892966 -0.6408844868360317
Ni 2.1001357896820654 8.553667232448321 1.458246243460615 -0.1614997313111154 -1.0170533343923904 0.5360932639605542
Ni 8.030025406432618 2.720659984663384 11.659517000933143 -0.4172244799460879 -0.22764136013519506 -0.09597336747353148
Ni 8.497342000409589 0.35971117787055124 11.168341302239549 -0.922080126048599 0.6120832463336233 0.26867745214089855
Ni 7.358122650804336 0.5760403476119259 2.0043940321874607 1.07311752437581 0.32110661647489214 1.0045788560744633
P 0.5570267534649908 6.8940636209146255 1.19999565781564 0.10513780758161893 0.48239680287836284 0.4054277444214759
P 1.0502349494096104 8.29198553158095 8.714432196518928 0.837686492992867 -0.554729905225135 -0.5075375638100486
P 1.8708162710719134 2.759175343529875 11.045235078331006 0.1888128173037716 -0.11119275552644721 1.0947088773933404
P 8.201219215987146 0.9201059370542528 13.29771628182737 -0.39653147037311065 0.6231240775288172 0.7500242164881922
P 0.34686189730412786 3.674690064191055 7.403429705964441 -0.39719378654745785 0.07855285800423892 -0.6245757223736791
P 2.026845238123347 0.649457118178014 3.337509907216933 0.5086518799201498 0.391451484747042 -0.38777943521209346
P 5.966632341028247 3.558373680414251 2.1885716940442124 0.7142100350030602 0.9261494110219664 0.12634375223527272
P 8.75051319908887 0.36831727239510487 5.969539090521497 -2.0907254457200897 0.8993490029996705 -1.0343674001908059
Ni 6.632688186756314 8.86821242346112 13.696824495454127 -1.2374930345728237 -0.49249943853000344 -1.496820670067706
Ni 3.518224899099446 1.8122914872135774 5.456303836047238 -0.16673758267128705 1.1080076513847754 0.16435442715109114
Ni 6.404918563310186 4.716219614415902 5.9555881778833974 0.4937446237910142 1.1256402768648741 0.7706367505322211
Ni 2.752019839509137 0.7882423414284984 13.200703981530639 0.9172582791799235 1.001234879302895 0.8564588885043637
Ni 6.584168115393901 2.9393065725033036 4.344786774316826 0.36744843696422524 -0.08129956751144063 -0.7325610267064222
Ni 7.354271114917687 7.801791742518218 6.681430997543497 -0.35565761497688425 0.28140826944400565 1.3913342208974167
Ni 5.819466546920789 5.31384805269273 3.7455286259154295 -0.2582824820598197 -0.7625861123136027 -1.993978433305327
Ni 5.1942833856380295 8.546177619290427 11.332089118440203 0.49827002246519353 0.22529599983147006 -0.5034903903238683
Ni 4.210146360528937 2.392342072552301 8.047567992295132 -1.7413390084638978 0.5414972085849448 0.34685261509074455
Ni 0.11845932265927896 7.674960201730395 5.528689508692828 0.39635817802004 -0.2576906141120917 -1.2347272989022284
Ni 8.700953677077528 6.546970631457299 12.87861442058469 0.0566498872835605 -0.1764506961939929 -0.15557462407593206
Ni 6.23809601496677 6.373438057942684 10.395445707177707 1.2030111987458703 -0.6985707858039066 -1.4069953244734414
Ni 0.43341565352696737 0.8756787026219893 1.7078007107301914 0.11443877326757065 1.1998785666541594 -0.6768956148233182
Ni 4.852248437284857 6.762684483537747 5.150391653906151 -1.1734864498138757 0.01279586621308764 1.9422447523764617
Ni 6.142123165318965 3.8480463023277274 8.153505646958587 -0.3866671759845212 0.07973582256874655 0.6857926602026319
Ni 3.3313465217173577 0.6670368272779917 10.784665218425612 0.8445456820065455 1.6728684743963256 -0.07929359282500538
Ni 2.0758664731914935 1.3484459159392723 7.362557021519132 -0.3574180493114167 1.4102467415312034 1.528903923755496
Ni 5.224074783701027 7.416972262990461 8.528447561078728 0.5019243313883291 -0.5202735233194782 -1.4629214462170999
Ni 1.91343374767792 3.1759300880840415 4.003083150857998 1.008772582440837 -2.217636126202426 1.6799122686169843
Ni 3.1487558782620932 7.797457604544567 9.64871178563605 -0.5804594487807552 -0.3036467691272319 -0.37873609406290254
Ni 7.792928569574243 5.057706995016515 2.219228991621003 0.4178988803052932 -0.5840805904731102 0.6313881173098224
Ni 2.2160345370374253 7.675925405904398 3.996725796442685 -0.9254539276168384 0.3084434191849269 0.9015172142955828
Ni 4.03623327383034 5.271759582220552 7.680327293786417 0.8926682485453853 0.25954489371201106 -0.21012597695925103
Ni 5.939467412015664 1.0029677873115284 7.547495709743849 1.4741646232310868 -1.1828216111718726 -0.5932650851858556
P 5.946047505855747 8.49405659389423 2.606505101387787 -3.001998968071488 -0.6578193149181574 -1.5045460637364216
P 9.029698506419422 4.301682983300071 12.732415686813107 -0.7357656496866489 0.42985862377033063 -1.8849441188827796
P 4.306843113307244 5.033846034138022 13.413420132186056 0.05821774599131264 0.4251676460525646 0.5647232689924209
P 0.2672297687060183 3.5408979163791665 2.9441483707492435 -2.1473935878360955 -0.262539971784593 -1.55577683688694
P 4.585870646878584 0.16501650284090627 9.014095609714277 0.11747036100504285 0.5324266137422443 0.4669424159965055
P 7.054575218889558 5.940553266711419 7.895624437526357 -1.3184863836977552 -0.8220621561920488 -0.06855486625126259
P 5.513339050002424 2.693235192988569 6.235189265473521 -0.5800598993494913 0.5056778848934903 -0.06325196598111042
P 7.977635237564823 7.670236269763396 10.756845992352766 0.018569535472071245 -1.4879521639334825 1.0966845130624727
Ni 2.347562167364152 6.154782189293399 12.758401024955344 -2.3566160791444704 0.4697703723636039 -0.166627539455984
Ni 5.805220504544869 1.8738974997812325 10.236071936430976 0.4056992529153077 -0.3783964513352967 -0.4348326799461544
Ni 4.386760162752872 7.8931984339582355 0.058445896978729796 -1.510474770516031 -0.32570143493442616 0.023782190021262268
Ni 7.238892092886791 8.870449098518186 9.040419697398354 -0.12307999388233642 0.15123974414600405 0.6414177336316824
Ni 4.151844316095372 7.140070034763803 2.986650765319119 0.9040098988104496 -0.007806383418296233 -1.7319279995626429
Ni 5.181466587904385 3.225703068710787 12.324207639603555 -0.14212955431461974 0.3233671303742947 0.026451252212993152
Ni 3.7386998063843535 -0.046977600845880825 6.8140463387278505 1.5242150029202588 -1.1372598633816737 0.5345454598574602
Ni 8.798624914839206 6.638033932950796 8.936222194490915 0.012753700121242552 0.9248839140459814 0.5656910322223291
Ni 9.029587136707036 5.753220129670424 6.560919687933524 -0.704951749629586 -0.7471692635379004 1.0071358181683623
Ni 8.521769090659372 1.442757500710666 3.8304109083715567 0.8534985203244592 0.8951164529755615 1.4112767254576148
Ni 1.5404008960442455 5.501014135165146 8.334531545954842 0.10209567832118548 1.0289161472682473 0.2824881327717458
Ni 9.172604409028152 0.8794012352584591 7.996453934715084 0.23275554143330882 -0.7985759001446504 -0.46439625253588407
Ni 1.132314427437381 0.9219342564992405 10.011076346904174 0.463492252664376 0.32414540330121594 -0.1932885936869381
Ni 3.169173658866016 4.6137409174029385 2.9306188068563346 0.7818542165145954 0.9231401918819974 -1.4450548503493241
Ni 7.059911684274674 8.013589093046457 4.259470149982397 1.449686949804697 -0.6905504866025913 0.53587703418469
Ni 2.4600084536355755 2.3948942951277914 1.569684633834954 -0.20986243888521922 -0.4441143623583964 0.5261248398939325
Ni 0.6386440471863636 8.784657296744248 13.067844555059976 -0.1731990220259146 -0.816340166106607 0.3584179513308408
Ni 0.7768585006608747 4.303130789561076 0.8773937961927188 0.8794412083321499 0.6749073807486958 2.2084063800740417
Ni 1.4852264843668261 0.32190394475864154 5.521938647960422 1.6679710370947078 -0.20639813448570257 -2.1262642620566474
Ni 4.164243477407572 9.227472553996513 4.214427597889205 0.3489655476686893 0.1187739103078148 -0.12764087378014147
Ni 0.49540496352141444 5.895597026145325 3.511553853327583 0.7056829713686557 0.11501058661064063 -0.43043532220940706
Ni 8.246509565690394 4.086637349493934 9.187038851834188 0.8015054150866197 0.6003880693838822 0.6100101658546784
Ni 0.7097109168211275 1.995141993331074 13.187731266199654 0.4720522264192451 1.8308319104194084 -1.125895330298474
Ni 0.9716543365126028 5.13787462631501 10.91260674401354 0.02943167499755576 -1.3200704403554233 -0.13367191046556978
P 5.623140305604704 8.651180696450783 5.749827065766426 -0.6449283178881022 1.1827223665898468 1.3696328246645832
P 7.777977185686551 5.758213205109019 4.405219692580692 0.5685719533145498 0.8506301976377286 0.7571636557464508
P 3.3175552390003444 5.524234720197427 9.661724408447304 -0.8417917734104922 -0.016533221768332815 -1.0455923223723476
P 2.706070552340944 5.766705145678379 4.803240195349822 0.20324184824490804 -0.3760184380214234 0.5730688127436389
P 2.7418295108259065 8.290732622316618 12.081825381811575 0.5929640090056691 -1.175702226518272 -0.20900600442219489
P 4.930485660235343 1.0497430665132432 12.65531629109082 -0.4814087279334805 -0.8551003175939402 -0.8754313158418084
P 7.935147692289933 1.9255452038997924 9.279433949471622 -1.6009485483275718 -0.2587673921160383 1.6505286732485445
P 6.630887709739423 4.281274483505514 11.06396653587323 -0.42095823595690723 0.2487105221006684 -0.30982667268569863
