# total energy = -340886.04405773495 ev
CRYSTAL
PRIMVEC
9.12914754835407 0.00000000000000 0.00000000000000
0.00000000000000 9.12914754835407 0.00000000000000
0.00000000000000 0.00000000000000 13.36143022539789
PRIMCOORD
 96 1
Ni 6.779204666357771 2.215717181593535 11.163742597775613 -0.8590644444480108 -1.2028137380230834 1.6469419843385507
Ni 4.970629214186869 0.4810841741876801 5.807465319526724 -0.026838974569715065 0.5716511064605059 -0.26327864972283044
Ni 2.9319992398075634 2.11941380243574 4.718588965556462 -0.16270943534850044 -1.6229021697805277 -0.1338536874590727
Ni 3.5592173329951957 4.368141982136639 4.129884920713782 -0.28716934029749897 0.5375829611322032 0.5328534168670178
Ni 3.801477525687433 2.9283475807248904 1.9528935836919947 -0.11435186998071918 0.015173622416644834 1.5292224834371795
Ni 5.656511210537643 4.481754225346305 2.607216116420768 -1.0660549611020735 0.17766425688611984 0.3558195944760452
Ni 5.521098562604419 2.910034510425285 0.5380728787466467 0.6581970099725503 0.936880167175909 -0.7969347649968016
Ni 5.741512704834565 7.792074475266505 12.262786996461578 0.8300886260409509 2.095148257378134 0.3936207244842189
Ni 2.173065803507914 6.7087550335053 0.002182779216667824 -0.8961055563617084 -0.19900235624226373 1.4806700284497725
Ni 1.167827962081966 0.21260050470799646 0.14624620751674422 -2.4754923193581044 -0.5435008692785349 -0.9841342150668664
Ni 8.535935688702422 8.918063553408745 6.799391037766787 -0.9603527963765526 1.2164925210617565 0.42450353010600445
Ni 8.782103156613118 2.5303623864520595 1.129625217673811 1.184718056863637 -0.09492975670036555 0.5471796036817027
Ni 7.3677882064507205 0.928279126258613 4.695848258619115 -0.7029740570779248 -0.6216456932110778 0.1734355635167529
Ni 0.8415038385622823 7.6435888878173115 2.394355431003131 0.38012526110094536 -0.6300819969038891 -0.10967323355812726
Ni 7.994796329241099 4.060763578852635 3.659722858842377 -1.1840570262408705 0.6586932328826786 0.35866863388906617
Ni 7.778636369842268 3.841682292187664 12.332199558134567 1.3443982184675105 1.1079827116841112 1.7102847102612546
Ni 8.737415978588908 7.384777550332857 8.903870467469165 -0.45832304975861066 0.022624936488367487 -0.006020495162467051
Ni 7.041494209118469 1.2391905097051044 13.380136249214212 0.4000358839819433 -1.603857751554567 0.2753093556351194
Ni 1.9230549644127024 7.3442076179243605 9.0229738930244 0.3964548514989043 -0.8478194676618108 0.7700132580156094
Ni 0.16588665589290127 5.103859995818196 1.1413470433291917 -0.04095973024181333 0.7438304289726544 0.7164340392375725
Ni 6.565719547236996 2.0903009503991288 6.982790137705417 0.0788531628534771 0.4622470674033652 0.3283828384213312
Ni 3.9404870578170903 4.881382666206339 0.43224323395692793 -0.06594468232192514 0.36241267431253066 1.1755677578229367
Ni 6.281793924411459 6.206186323104713 5.00692853129818 -0.8759218823249817 -1.8563416246547386 -1.292151088237336
Ni 5.523280428906316 2.8165976836473883 9.39339271288213 -0.26873581618265974 2.8346049827631243 -0.7417450071985354
P 0.3829193618124922 5.817531117788112 12.39605338176896 -0.8375787637704092 0.9285657337729427 -0.12038702043120557
P 4.339531233223896 6.2804793271416965 12.24243721330861 -1.1155268425799563 0.053879523627274946 1.101342580659774
P 2.591171639326273 8.485679730577132 1.4041122146854093 1.5257982882469787 0.22896779225610248 0.7982159457020704
P 6.771052337455703 8.197828574237722 5.6123489585065665 -0.6060352403673305 0.45332611076465157 2.389857100585787
P 4.888877696473525 1.3321343625068405 12.464838770994502 0.9636911167211663 -0.25163463772599887 -0.5551273977738697
P 4.393055426228176 6.425724067155017 7.963626680226173 -0.9398755023588071 -0.4854998672837187 -0.3190191378182441
P 4.700159955080981 1.7114687080149185 3.5216992746650417 0.6964403697244651 -0.9079290313591977 -0.04543910616940562
P 0.4618371920776811 5.728622348272729 3.501375966040425 -0.44011758249417754 1.5178438092865922 0.3096821766880344
Ni 0.8597402240211516 0.5601060767367253 4.679466915974244 -0.10429602840661394 -0.6872412197237002 -0.0653219611362617
Ni 2.1659450682967014 6.9493811087580415 4.441913711839572 -0.23337080641980454 -0.5120418794383053 0.3950098915222617
Ni 6.229639103563181 6.000643562488753 9.197420950721858 1.4091612217765086 -0.9121494971984484 -0.671008817025238
Ni -0.03708807547316898 2.7407709827956817 10.158775892036552 -0.5963740631284825 0.12675307185854945 0.8762954636143165
Ni 2.6027291403229333 5.4604171177981 6.852983699378868 0.14305952232805685 0.5111808169895906 0.26947835077563914
Ni 0.585834753718469 0.38845436406705386 9.627752541149006 0.33191373439272515 0.0461710992394237 -0.4497990714479995
Ni 1.98632908716772 1.745228296234231 11.429648195942928 -0.857463161399162 -0.5049458918234723 0.011404128071883585
Ni 4.426605044050235 7.167978550594557 1.36568489324367 0.21018819765575414 0.03810040641614728 0.0564043469316577
Ni 5.839614526090577 8.038871854368963 7.775631054417228 0.4287509925284487 1.242530339886415 0.418228238620254
Ni 5.597363462546046 3.2665094700758295 4.876320553802984 -0.19463636596408415 -0.8269531657357629 -0.1904668079674268
Ni 1.1781165115473973 7.488283827031226 6.5364651934109315 -0.06978025401793145 -0.2708294654868949 0.5881457616814194
Ni 4.886759734205574 4.491796287823656 7.0433309936370545 1.4383653541442907 0.09719541280609066 -0.8243558373222319
Ni 0.8713643677960705 7.57248195632996 11.249603144871733 0.11396851849937145 0.8848947752475534 0.19799499802367193
Ni 4.776680471158395 0.16762575853102432 10.445738782304103 1.0886369601676478 0.4548957692446166 -0.20288163669201187
Ni 8.400523040769198 7.5391788254959815 4.44692470101577 1.754306624368159 -0.26843962509847963 -0.29529916849348503
Ni 7.542784838840122 6.540066642181218 6.97959676183762 0.9196728021586872 -0.855349971710901 -0.25045630114718154
Ni 2.683567743265608 5.941011969668701 2.3183552763449975 -1.1091667046898832 -1.4218223621839448 0.13594219455698522
Ni 2.479713874975384 5.8009434564050695 11.226915386991086 -0.5378629542664672 -2.135878902328276 -0.8641210330353117
Ni 1.1663399110057768 3.7067991348214275 3.300326571925694 1.0724968600726754 -0.2913949483430724 0.9517061764451481
Ni 1.8310605429724613 1.4420766883384197 2.2860472226110478 -0.8763155182189747 -0.31382319543960147 0.9054538303458277
Ni 1.095132558893652 3.323594030685716 8.162765343725896 2.280825357266401 0.6613229571960417 -0.9961348390721682
Ni 3.6746371474507846 2.3159643525606173 7.132839548156766 0.0051280652551847165 0.5326744680869923 -1.0210179754670934
Ni 4.181240941137725 7.284548637661189 5.880499414094956 0.21661261312485922 -0.7584720901452292 -0.4435518049867071
Ni 8.366023991585644 7.604196615462976 0.3882873006640216 1.5164762395151044 -0.6753334125425208 -1.4880467805298179
P 0.7053225163921557 5.621272700389849 7.911543066730007 -0.7302948563800649 1.1235553693113876 0.5196598009948792
P 8.6303036885464 1.825975607699839 8.001866854139925 0.0804089373763712 -0.5973788502439131 -0.1655224793172633
P 2.1520139888963037 3.5857009904922816 10.227586842875672 -0.8533434828038337 1.1346404234809555 1.3617405664007
P 4.445739737643442 6.319068234497844 3.6447848344499323 -0.02327722536038572 0.6123951211470872 -0.08831713647985436
P 7.100724119439428 4.198841937916209 10.183267569504041 1.0856904759448143 0.026056844988051896 -0.34921905844039214
P 6.919903090813164 7.952464471325212 9.924723716047392 -0.9097308604546269 0.07888015943667061 0.7853434606147764
P 2.67902142770768 8.907364192296512 5.660757177136022 -0.2276346752669757 0.7198026985994893 0.523900321438788
P 7.345001853774842 4.1007583749556105 1.3808767079423607 -1.3370178668430392 0.4540177375150375 -0.37991597330361665
Ni 3.060665447585549 1.4881697551094604 0.20321939252460935 0.7167790812818172 0.6645409499127071 0.2982258552219767
Ni 1.548969878835967 1.0238521735998738 7.417250841640299 -0.4126918821830569 -0.28141315454001214 -1.0925854032924345
Ni 7.044908510360769 0.9974780658752675 9.295279936648871 1.1581526476702826 -1.8142549798973335 -1.104685014769446
Ni 3.3631323694033584 2.0491467525374034 9.398777997114303 -1.2805646689513173 -1.5471021919310777 0.5372672296639973
Ni 6.705806318796042 1.862136161766009 2.612479982988441 -0.37945960249248845 1.1403662702211392 -0.6734259111071628
Ni 4.322368435535332 6.817656636498318 10.118317335230078 -0.6012583878039773 1.4467790321292826 0.06497820464359777
Ni 7.420198643434787 6.390595106779703 11.556154447373514 1.006559633949918 -0.22305991141209972 -0.3362069624514403
Ni 8.070759967308407 4.260363264311544 8.07105210003502 -1.2390868614225048 -0.1691402785755087 -0.35680278432492096
Ni 3.3856631059434514 8.446880852823732 12.44052054733344 0.46241110378505523 0.620884389565021 -0.3417356055791534
Ni -0.010721271066728115 5.345115982262698 10.245437978301322 0.615191710055618 -1.0541746647247199 -0.8706909729433455
Ni 8.636274151146571 2.51151069643776 5.713775615357352 1.0556368510925433 1.0555774586095175 0.7590639580929572
Ni 3.6365594723662107 3.397823130688753 12.159890546830015 -0.10027610861394343 -1.11171518214335 -1.5717863249413189
Ni 1.201487129676505 3.834059453852584 12.626859232833624 0.3320446035436346 -0.6973471978094506 -0.38628099628969603
Ni 3.3720150301219607 8.656449567578338 7.864417493353341 1.169004245672806 0.6439345865162652 -0.2199979846573243
Ni 6.077301015781767 8.14505297134539 3.6247554843814704 -1.605416354290938 1.0955732822761648 -1.480412661023328
Ni 3.5475776696691756 8.804569989119265 3.599141834660831 -0.09705785878696188 0.3637966991442509 -0.22721507123105383
Ni 3.710898122141728 4.540728519531475 9.115221191856117 -0.05593229239124561 0.33829264133587544 0.25294564322793855
Ni 5.572979509021497 4.656668695406345 11.633022783978552 -0.22968898669284316 -0.4160307167483029 -0.40216321473759126
Ni 8.269784516461794 -0.004713378960960258 2.2474327536413212 -0.6257774559912642 1.1977427512580792 0.3492697091726695
Ni 4.944729822143009 0.3416994340872786 1.5510485857687786 -0.025626956539484897 1.3121231604838886 -0.2264206003542165
Ni 6.335582862699233 5.921776855450721 0.41115764149880296 0.0990913442772229 -1.4219426898118932 -0.9581473040848014
Ni 8.08773105289513 8.980881218778428 11.408643852899393 -0.12379270367864488 0.7982534838082253 0.9924818157006132
Ni 0.23981723276592948 4.89940360377933 5.773393514455843 -0.0877311820693973 0.866070957672831 -0.051080363615583
Ni 7.178559232786603 6.359245613554954 2.590153739356978 1.689427664306587 -0.42523835138949995 -0.06725054561754223
P 8.821276329422494 2.0442809168097416 3.422089318207886 0.5572357023661242 -1.6917889654499123 -0.218615759597817
P 1.9838916047300357 3.794667181498248 1.3679562251930926 0.6148739217048829 -0.0987262476283203 -1.4331007633112416
P 5.073742937533849 1.0691601336681398 8.365150332150113 -0.20315674473026948 -1.049619698364186 -1.8433097311714446
P 9.121324027098034 1.8380078243772469 12.38194428398828 -1.1860923115033446 -0.4708880309078148 -0.4861711823191304
P 6.52431886238719 7.959174394889624 1.1809191598933488 -0.7036057771246528 1.1045333196829301 0.7463493387397663
P 2.083070665415436 3.6862037775951513 5.856581960018218 0.29554907972076194 -0.9031760900552445 -0.3007871881912497
P 7.065914679233845 4.3947534477016195 5.917323657199401 0.9723112542900093 -0.33718449587336125 1.1335585032706865
P 2.650036383738963 9.023523467716343 10.486945929222527 -1.29676184753647 -0.7062905230456675 -1.386780282978147
