# total energy = -340865.8976500898 ev
CRYSTAL
PRIMVEC
9.30240213272520 0.00000000000000 0.00000000000000
0.00000000000000 9.30240213272520 0.00000000000000
0.00000000000000 0.00000000000000 13.61500582246117
PRIMCOORD
 96 1
Ni 3.8162917796882194 2.1784364798058427 10.004659767627436 0.8403573549568107 -0.9239130654922798 -0.6330796460796322
Ni 7.9216929084066114 8.672136275469969 3.6673519529117087 0.29069740805541544 -0.5325168594632055 -0.11271536281856073
Ni -0.07001173727181968 2.8039299843841365 7.0761129467466946 0.9548784035255427 -0.3941236322625664 1.6242543129330478
Ni 4.531162761839211 4.755164599885692 8.305738850392231 1.4183349178559765 1.0253621113684017 2.2474251845394004
Ni 1.0003430920334833 1.0441574050400828 6.000840867790587 -1.0763740836398947 -1.3003228254148511 -0.812455229229904
Ni 1.7326095657603442 8.21963023685149 7.164080180189499 -1.5472837118142642 0.8616905692169482 -0.731210940436431
Ni 3.7036675997368604 7.623392786287157 5.969403400528209 -0.076141677459585 -0.32466708013264084 -0.7841864641921978
Ni 4.780829926761532 7.305883204218948 8.929183966069452 0.25074914979725205 0.08408201535258422 0.14566404983043946
Ni 4.195346052807737 2.7184409108107497 7.360503187286794 -0.22800748522536216 -0.5345336327829181 0.909215354270789
Ni 6.905954341208389 2.7050826616647883 6.483315524409504 -1.426805160110517 0.3172574179321311 0.1715000370569369
Ni 4.158257376383679 3.063913513027119 5.045040466833432 0.5377603672503319 0.6458009503010427 -0.8147134291364615
Ni 2.569621085018906 4.36244509835711 2.914156005122523 1.744797142215827 -0.8652368918073098 -1.1797383442608587
Ni 8.620238175201642 0.2935512459432619 12.637543697330841 3.1646232999053496 0.3281257281052027 1.6719598465391272
Ni 8.49646041535752 7.1363841389762195 5.834996716259173 1.1883533396233792 1.249496229681287 0.32650336201043123
Ni 6.488816034660205 5.55994329651838 10.037022823880081 -0.631797436933099 -1.0200023897183852 0.6559696633039284
Ni 1.425416347412798 7.1621145826654455 11.675166498221738 -0.11345069832268848 -0.10713452629667355 0.5953489642980779
Ni 6.6052076873860175 9.471054458897951 12.229092903928487 -2.4399442470501658 -1.5946411180523055 -0.2600771120663973
Ni 2.048491227493912 3.7061048290378644 0.776073344811931 -0.7802279937650821 -0.7524904186404976 -0.4344536993401808
Ni 7.960456017174871 2.7304037996698765 11.624327941531215 -0.05314495945409558 -0.151101675906243 1.7906013450341356
Ni 6.684203684424669 4.540595397378212 0.3098499843336787 -0.12630338591564053 1.1037023391412024 -0.24146463917153255
Ni 4.883770306322262 5.823982672395094 12.8244633706346 -1.5520011718945916 1.5394058517280842 2.086603710242232
Ni 1.6648136606240174 2.5844119040593507 10.596735323576238 -2.027354951883244 0.026689079255412102 0.6702968785598779
Ni 4.175280771883058 0.5960737282906777 0.17392886903333246 1.7294396859231507 0.35451630228358944 1.5542765981923294
Ni 6.452713412838844 6.530630331255677 2.2661227807108975 0.42529311588683527 -0.36139991677730016 -0.4071547544149117
P 5.663897637887541 0.20431888584039415 5.585216062033524 -0.8835539449489428 -0.272809214921085 -0.4152408738571558
P 5.474240267701012 7.75322640977614 0.24143732995057124 0.13491966682974182 -0.008505209257533739 -1.1301605333327311
P 2.9808709711566483 4.129801328934169 9.752441884100781 -0.46008682652725275 -0.19261007956267476 0.08473636110713148
P 2.6424123799821 8.21829069097613 9.828958791029825 1.0088240045040628 0.46712393587969225 -0.03781192864145101
P 2.165915446831982 2.8546559820115225 6.163908252351201 -0.07888170209856737 -0.43543740340968884 -1.0117494056809737
P 6.498323089414503 0.9938128058910982 1.7058242296942712 1.1230038676832919 1.555903078052159 -0.3590774392917106
P 8.802788510327229 2.761287774018477 9.803403232496548 1.237191958392637 0.03533724184871334 -1.826818418384641
P 4.99822705945033 1.4349327045690086 11.733643257122395 -2.208268568944597 -0.25707046402958955 -1.3809546774353056
Ni 3.5958248543683866 5.075418390518007 6.335892919384878 -1.0585090304340157 0.3793714136540563 -2.0604872156608383
Ni 2.187590043287476 2.230241556055047 3.9387662730244384 -0.7037672424031816 -0.41017322952626134 -0.40750545288611106
Ni 4.920552003483215 5.380620894856337 4.15323035839031 -0.05549366219193023 -0.6239347463555706 -0.041462638020160855
Ni 7.76457534010906 0.5304769109664019 6.021468013790765 0.8325903094168822 -0.8070484563920358 0.8872617328178333
Ni 1.403137094833009 5.995891059733091 1.00075146747743 -1.4052575158467282 0.9757076815660681 1.9796036526408938
Ni 7.796761650725373 7.917320779507864 8.324364119500895 -0.6957811388739114 -0.5383491498742664 -0.21490900017019118
Ni 6.00460741032485 2.4105593147216986 13.182252352982761 1.5425955623099756 0.6338090680464891 0.7418825612176643
Ni 6.849591088022192 4.0209539241591745 2.5529772275175455 2.0044644204383157 -0.9172204839634527 1.0006545813193928
Ni 0.4738773767716344 4.590149292364657 12.420820058540489 -0.19561672759948245 0.21019359697239287 0.8012164230912912
Ni 1.1629025654496892 4.310221414021855 4.5850841345234485 -1.1841133334001026 0.3224330485957995 2.0367201951482277
Ni 5.227456847371482 8.754397415579811 2.128597001080692 -0.7270907476204703 -2.233467693918044 -0.6076630057787404
Ni 1.88778293205824 8.40036660360419 2.1932412524491554 -0.5247053338385866 -0.6800781263163578 0.33839831367580436
Ni 7.672304815541658 3.9316415633998623 8.36729191360526 -0.028506849190441226 -1.3902602711069474 0.8661663456001146
Ni 0.5261903641652467 7.743830983844788 9.538549896452514 -0.2835224875735311 -0.6400666189204267 -0.2279393509915881
Ni 8.391147923309171 4.82112793184531 6.1421648181215565 -0.23434268341477058 0.03342562664829728 -0.8124521439061104
Ni -0.004928412533099049 3.87692483535213 2.2450053981299463 1.042182268249534 0.9580930538080984 1.8674906992930225
Ni 8.609000873691668 2.8727677585346325 4.892375028091073 -0.06287658491956269 -1.157933332570625 -2.450009087485335
Ni 2.1013474751591987 1.0272363359617378 8.371009153409387 -0.21257418138942746 -0.3275240899654618 0.5373009111154101
Ni 0.9068679064184477 0.958621819457135 1.2553823940601159 -0.4175360976492357 1.3458740316820885 -0.8351989506843228
Ni 3.097848675202931 7.675867635474042 0.43584078559272027 1.5282806883492002 -0.483448898291961 -2.3880773829775452
Ni 3.895520336774676 5.6697395462884215 10.765126472751222 -0.6446724931235542 -0.555661673010785 -0.4436914158883649
Ni 5.567124750794621 7.792547662659133 4.163577420037282 -0.2886196995907803 0.2753535786094935 1.2880051843897624
Ni 6.853107395945015 7.769617241945489 10.31894885815363 0.9411461415411146 0.20866507614300836 1.751140310825036
Ni -0.05768419425773349 5.88647620844145 8.083759354521469 1.4049332997380901 0.29709559827227544 -0.6289609959255683
P 0.5713600371304582 0.8318412442757451 3.4923849358249712 -1.3226022056383415 0.31701187758022825 -0.09042184152768298
P 7.083927894593159 5.821229161429075 7.986412509230564 -1.3407251404912972 2.1315440223983484 -1.0467950844311973
P 4.984236246974336 4.7543273837135915 2.0779900741977824 -1.7328245432349834 0.6344091635243332 -1.5975220391445262
P 1.6093155308156577 5.9764769469422685 6.415935436638654 -1.0198787196563275 1.0579670418876166 -0.8742812613977653
P 6.225930156620608 3.337887854146094 4.432922885964732 -0.08526497991709187 1.0582874013415131 1.6321005484503441
P 2.9563591421179245 1.7516422800727651 1.622595639785556 -0.6398200501272594 0.39602804837413086 0.5959462315624446
P 3.3521484362775418 8.339668431126896 3.7559852383314287 0.44350655357106844 -0.13336414941716387 0.6722018088920746
P 8.437799468899001 6.19380896281768 11.12389499802074 0.7804833043089977 0.39787795709867607 -0.41965622931603214
Ni 4.687238461122594 7.662453571916607 11.276165084681828 0.4493370442099165 1.7925947213150806 0.8188045684866996
Ni 3.353301934114658 0.9390123562261558 5.918906241987864 0.6682289402872557 -1.0791627021286254 -0.9049488656849511
Ni 8.381380401301332 0.5564334030220952 10.124118422263711 -2.4425235777415675 0.6029226628802777 -1.13931957412418
Ni 5.914913651087135 5.26462924541275 6.206290925703509 1.1272803835714587 -0.8940206488082216 0.7676460433350134
Ni 6.212692838699505 7.648118570569862 6.769939271648729 -0.9518432162436447 -0.20052033554868695 -1.4511779325279266
Ni 3.4214885401312984 2.779036756867011 12.768601516911474 0.8175318724218631 -0.5803566046543037 -1.1032246281738356
Ni 4.389068572629911 1.082836792191132 3.4168894326258923 -1.1675813971833504 0.39004354865592183 1.3900743803483868
Ni 2.6109423543130283 6.537207129407623 8.310966800266904 0.4106506833833121 -1.5813117479332508 1.3831115758773083
Ni 6.12241302814132 2.9572149630938496 10.086431601396697 -0.11067056447439004 0.23367316815157177 -0.1667622652616354
Ni 5.702251440971662 0.4746048246011707 9.918804179418709 0.1662994666926039 -0.4810775698463069 -0.4459334178450062
Ni 0.9428821554216431 0.16553531178792802 11.01859645957526 2.8924990268664317 0.6973469406991345 0.6519152907288966
Ni 8.859849443656842 6.2660886256757005 3.1880894156730846 0.31414021245938806 -0.2887760226629865 -0.15392320451543814
Ni 4.907510036002271 2.6275099321187088 1.6317315287035565 0.3042671763200502 0.626091130576941 0.0755480097396441
Ni 0.6979573549941771 4.8876401055177485 10.131088712016545 0.11477687333327975 -0.0008430647265856449 -0.6972348406013024
Ni 7.561382975140236 7.114058374386869 12.944643891659265 -0.38247139273561875 -1.1182930924711836 -0.8801585461141487
Ni 7.589215761661626 8.433455247205991 1.1520364297760142 0.14848763532216364 1.22107808354991 0.8028927823524495
Ni 4.613730881212159 9.263117868953891 7.612244787835541 -0.9036463448234436 -0.4994964386731269 0.32016507849722925
Ni 0.903413924588437 8.23753736053253 4.252347450765113 0.07061817653819451 -0.3526885050462313 2.1839816713727744
Ni 2.009886259558161 4.080470691593618 7.859152860350695 -1.2260806789708238 0.3414597262099474 0.5052580237472524
Ni 3.644420601957872 6.4349830347941355 2.406860679721396 1.2709844814620497 1.0078179318370515 -1.5832639865636153
Ni 3.1228070195334423 -0.010255898108232733 11.979966208557268 -0.9208218281614657 0.03459007927004365 -1.9773716779865815
Ni 8.583586711667458 3.078453167215933 0.3581601481844588 0.11265237079110921 -1.1455758394465367 -1.1310907584564842
Ni 2.2469765770951478 6.269586328794699 4.054916063300532 -0.81985717812093 1.2078415302549779 2.341072474982916
Ni 6.827209509021368 1.4091557488702213 3.924742902141753 -0.27826689560154655 -0.47855506053476937 -0.7562773964867556
P 0.9898406802745763 8.290933147508726 0.10445760131261332 -0.6760080700120422 0.09677735143206559 -0.3949780098430617
P 7.104458295613449 6.263986282843537 4.524089215425152 -0.13389919598502747 0.04678610711560329 -0.269460095943194
P 8.464199685525909 5.6751349393975135 0.984314123298521 0.028342041477802803 -0.36737053253843827 0.2975236869486295
P 5.871564458176147 1.527426486782304 8.042833437308618 0.8032645638695713 1.8255765755577398 1.0644469931850054
P 1.3224387582444206 2.1872086448090746 12.798445482726288 -1.5267524246301318 -0.06969977848898319 0.0284867945857832
P -0.17685912563568468 0.09906220820352035 8.01079689536309 2.418425142031467 1.8509315093827607 -1.3920073357050413
P 5.925685832501496 4.397031428666779 11.876614662832019 1.116284289571271 -2.123263270446795 -1.068933053980817
P 2.3906521746295284 5.622176365311193 12.866112084476033 2.310675093637982 -1.0151118943953032 -0.9252125010299938
