# total energy = -381176.61246691423 ev
CRYSTAL
PRIMVEC
9.17305334961123 0.00000000000000 0.00000000000000

0.00000000000000 9.17305334961123 0.00000000000000

0.00000000000000 0.00000000000000 13.42569080359771

PRIMCOORD
 96 1
Ni 1.3901120525606583 1.9617584030451747 9.955378328094989 -0.10992211634413973 0.11738165794597848 1.2278128311705823
Ni 7.850675314435944 3.218063123622816 1.6990082093712227 -0.9981827227401325 0.9681568658020034 -1.0848728651395252
Ni 1.557942240122273 2.346980786443186 12.446716375397155 -1.3834237078010885 0.4670768846918407 0.6075845871323213
Ni 3.3932501001232382 5.027071839125576 12.964492134359313 0.30064860573085644 -0.6101168666358718 1.2490336882225714
Ni 4.835510962056862 3.1616029790862106 4.043831493621881 0.9990299012317764 -0.10494626039610314 -1.0427746504178945
Ni 5.524113745172041 1.149952337838826 12.22146012076121 0.2309837942448667 0.9980366840805716 0.23113780332422776
Ni 1.2848053979253642 7.539782183869796 12.049866229332274 -1.2795164301924609 0.40886685201001194 -1.164849085853852
Ni 0.917264075225047 6.92333463989758 0.8091678950083424 -0.4152622140133945 -0.41363959080830703 0.47869801387053684
Ni 7.42049579564006 3.2469215500585857 7.369777982619282 -1.3946871965300496 -0.7835591150208441 0.5417550902320218
Ni 8.417120543563474 1.5780679195882865 3.5742408675982027 -0.32256905995303153 -2.5301729987304364 -0.16038027299469154
Ni 2.0387753605641583 2.4312352832049613 6.526805550706585 -0.20951276885528433 -0.29450778294044117 -0.5901867033708481
Ni 4.979913170878185 6.412533153541627 6.503874751468143 -1.0286832053218349 0.20184522500769753 0.3930283423158586
Ni 6.949404458057294 8.502365730107531 3.5268079250499764 -0.9070198892813668 -0.4599420734192724 0.6607244043800943
Ni 8.384436953801666 8.615221807805966 12.844492999869548 -1.034299523067348 -0.4173460931256167 0.39129490456451965
Ni 5.643647805847347 2.430859188009835 1.0315135397561552 -0.6338913433476503 -0.15128011046563625 -0.4565603014312331
Ni 5.043821834888996 7.907887649362802 1.8728439950852527 0.4631050445282863 -0.05544326856996904 -0.3165107695740936
Ni 3.5958920258678617 4.3345062968812655 6.4993900455926035 0.8345841999184596 -0.3434559307043698 -1.0056823735512874
Ni 1.1936619379553048 7.279258290289919 7.705836468266132 0.20051056535667403 0.7403861791777958 0.09564272360699012
Ni 7.360852601525193 3.6742390761500956 3.919053198237951 0.34180553958514037 0.6574573035930483 0.8127861302067615
Ni 3.372363057213433 3.372408922481131 1.5474858763924149 -0.3352512834063904 -0.25387226880726604 0.08035442998935194
Ni 5.098245561539796 3.209119396421648 10.917530740816362 0.543258928471058 -0.39243518881655 -0.5294281932355527
Ni 6.066250382419471 9.317253941303205 10.1668062045199 -0.01696670976132562 -0.1785482021529699 -1.1066999883169455
Ni 8.443043592866552 9.105099559037955 5.208308444435405 0.6248803980982915 -1.2741230270910315 0.9573759731364156
Ni 1.2460125545061431 4.556237347041921 4.847801936494652 -1.336181744094989 -0.4703275304186545 -0.02032739870344241
P 0.2545925971611327 0.6000617184343205 11.426847109804244 0.8379811414151503 0.9656945203044401 0.7193098181234708
Ni 8.19559130058069 8.368640955606372 10.213218186209163 -1.1927162445777653 1.3613209623647782 0.6247757541996272
P 6.2784689760595 6.525948787505981 8.89639974873574 -0.3007895021840949 0.3194929921308691 0.47026119595709337
Ni 1.1708026885344727 8.614304502452 9.895270977471018 2.163950463753512 -0.2769754304836327 -1.1953840212179154
P 3.3842421615472924 8.291798286104642 9.921504993289089 0.5804692189727679 0.8415958553496021 -1.1994432788889535
P 0.8374227345212024 0.1809072926877538 6.712281941362443 0.9670371503752636 -0.3658219571043958 -0.7038893698033426
P 8.28778966170781 4.38451778477949 5.77473899667727 0.554126467313181 0.6697160663557434 -0.9665355281484966
Ni -0.04892906758054513 6.48120263233952 5.774779358112845 0.23191041982419414 0.026685736821302427 -0.0877715483890295
Ni 3.1533930961682146 7.489257004973349 13.438579391228133 1.00721963613142 -0.636376314553033 0.3853114332875751
Ni 6.782693383027518 6.842483345999019 11.215742124863933 -0.2711549671471137 0.39707320180919353 -1.1733614942002375
Ni 1.7401557756340744 5.243005519449167 2.3269000549395167 -0.016320077316262217 -0.10883068305217386 -0.17716880530694004
Ni 9.370457651833233 3.739688813155568 8.740541313348736 0.2759413327921635 -0.9235112020681707 0.35648036798849575
Ni 2.4446462874799435 6.247610823952084 5.687727080021474 0.32775188970555164 1.4960197714329655 1.7899670538842463
Ni 7.424210882323623 7.228201074288172 1.334333465902049 -0.546528343250949 0.6639405973245469 0.03603375369510568
Ni 2.7121967400711995 3.651618326121295 10.97085737026382 1.883561893823272 0.03543211555536478 -0.38795272756516413
Ni 2.954420391839455 3.3347810568614467 8.599343252128815 0.001959180608899851 -0.2982577369011767 -0.9480914625106963
Ni 1.3217085923154153 7.193893854049845 3.8437616920897777 -0.6582008666272923 -0.620500266752725 0.008112087584173127
Ni 3.727919785464185 0.6722059499130366 0.5309932118074525 0.9137255834363166 0.7716669915689484 0.3698565321850856
Ni 8.945479254394336 6.253243078825435 10.012571399609415 1.12300463901424 -1.1033909785483709 -0.8654376949642064
Ni 0.48564713893949846 3.2474535871638857 3.1463775448210827 1.7512683517624676 2.070831792119956 -0.03204391580942223
Ni 1.4025415401068972 4.926287499885335 7.18048927091234 -0.6165978463745252 -0.3282833367289895 0.9326154783622842
Ni 6.909464982945615 7.367145316253398 5.81878891708007 -0.09386300599874801 0.4695376875275075 -0.5531419919127247
Ni 4.238978117319249 1.5729768748737754 9.446155524253212 1.0957067225302355 -0.3520503572416001 0.8546565451883024
Ni 0.09698027393734482 8.659527656402522 2.2189983434578533 0.8990157880299678 -0.09109444211467538 0.9864803467015398
Ni 3.1659143142498505 8.395692290494829 6.429483121872211 -1.3996054597672734 0.2734836152802903 1.4371613065338604
Ni 1.4995557543423388 9.355046921886604 0.04755861338171997 -0.9839910046207828 -0.23088172144936364 0.9048095118936095
Ni 9.131462914910937 1.0845117738868935 8.390466401893283 -1.0877401593849914 0.23661836682282475 -0.3814946306446462
Ni 1.4800446694634823 0.41658688806081606 4.231133321932131 0.4364306205608935 0.367815847605973 0.06055076499986346
Ni 6.491137049322972 3.8992540794779496 12.736818780115666 0.5020996806239287 0.7968314066497181 -0.2939858489987001
Ni 0.4081972132934432 1.8305195260532627 1.4126245605576913 0.24472736908320433 -1.4062761869192295 -1.4672133887242345
Ni 7.35338573594391 0.38606446971295216 1.5258301315959861 -1.0617959287154037 1.830213817219435 -1.0077533971477033
Ni 5.679798809847147 6.032924678909888 13.390448379305539 -0.05733997137204964 0.9122163458806418 -0.47569933625352917
P 8.551019606081887 3.8598741606321902 11.750299067971541 -0.7414431596874005 -0.38166689455645236 -0.008347086413114657
Ni 8.509511538814927 6.1177662510982005 12.456839757283523 -1.318715983210058 -0.3712850371014961 1.7375977962539106
P 6.419385424535753 1.8280611477046338 2.902487149224671 -1.3682896803731275 -0.09721880984485838 0.8077647657327702
Ni 4.937836374291767 5.5069876542134955 10.952625009048392 1.3552241054384206 -0.582430456464197 -0.022321032094703496
P 5.246592183383175 8.854711889619402 5.705797995494604 0.6030401622947485 -0.04993776537070754 0.3932435436504582
P 1.8795678433298233 4.935726571977645 9.434488317456118 -0.5432548147059998 1.9889830369732646 0.600557762192527
P 8.336388499360929 5.438758481985507 1.1927088576925342 0.470672315352583 -1.8097714902046833 0.8069792937169973
Ni 7.840227206454271 1.97644446176217 13.100225807585657 0.8641701411056923 -0.4318620273536046 -1.430436071994885
Ni 6.227806201359959 4.852792994925581 2.2189442224419693 -0.8994865570187993 0.8239313481903034 -0.58382425148793
Ni 4.2018272504836265 0.6625843340552876 2.9218193595595046 1.3905513199848052 1.3595756975388973 0.09402267150506388
Ni 4.928920166251217 8.422009781100112 8.044996363314743 0.2976756391454615 -0.3217817881650458 0.9982760537848873
Ni 7.7372963726857495 5.530222998829454 7.59734309483116 0.13428074769416232 1.2425768768536343 0.26850647378067305
Ni 3.661204167070239 7.645483279807295 4.399357033490598 0.9068957049986769 1.2436577686226387 -1.871972646323776
Ni 6.432016719259864 1.679375122880289 5.153209581044084 -0.5678039648002737 -0.7085374100983153 0.0009477086252499807
Ni 8.07022317785416 8.006039322237163 7.88792891947121 -0.2599958652065006 -0.45581313885256336 -0.020821564731041558
Ni 5.514775576668667 6.268763885414541 4.094875867348671 1.056816216112625 0.8085893185165944 -1.2497070601405122
Ni 3.0321620205880713 6.514225625082295 11.137671183493241 -0.8415742580830474 -0.36352287665757393 -1.477763396325939
Ni 5.063892476033771 4.610101517426802 8.585729523370606 1.189187148378584 -0.5117204915431445 -0.27587756943376357
Ni 2.5762153943992834 8.309080318973361 2.182923475802433 -0.5770254833985416 -0.41655470757257296 -0.037783903616992985
Ni 1.2118796222850692 5.087430531416539 11.873278527556344 0.3777109952324979 0.006888756700033297 -1.37532524706367
Ni 7.376144081775805 4.266011106100626 9.759873038004223 -0.9591932288508126 0.3330709879256199 1.022461392781839
Ni 3.43499666678223 6.3025849338152655 8.273783326258105 -1.3230806879366568 0.4161507872659349 0.9557862600517927
Ni 0.6510712345576606 4.046123839701441 0.4232969767250771 -0.15688305847471046 0.19847605142514851 0.922963814205133
Ni 2.533533176279247 0.8254574034840703 8.268950044348058 -0.4313922868060377 -1.3324955534926535 -1.3064320236363824
Ni 3.041078228628621 0.7267865357793661 11.709377158825767 0.4244683059926948 -0.6228772516253337 -1.7969666251305312
Ni 3.6970524603032295 1.0987024877127471 5.076092637241518 0.5860359144272682 0.22551120116606968 1.0479857623051887
Ni 4.791471132012956 8.03465007622736 11.668456166985344 -0.4736758780655972 -0.24120727174508777 0.6275407185392741
Ni 7.752541987668664 1.8779533859068431 10.433641158935064 2.2872577431553065 -0.16656223343568732 2.538818590220576
Ni 4.729204444585744 2.1015557389895894 7.036525534050212 -0.434470154400413 0.6995935706414661 0.4751020689891624
Ni 8.773512019686335 2.1207549400480974 5.917078185757525 1.121120791727966 0.4963686916774226 -0.27515688921765513
Ni 5.88888939223015 4.575977758259269 5.514159147470802 0.7784318210966078 -0.9414341050951788 1.631721053623738
Ni 2.6520306819045714 2.8671112682489737 4.045818377018572 -1.2604740688490292 -0.21858362080830096 -0.7206444777744944
P 2.273082667127687 1.3549517383431424 2.164785597038464 0.6884432104516014 0.26856046694706004 0.8380284497133179
Ni 8.227430969416849 6.1171608295645825 3.499205289643786 -0.10719057634558958 -0.06216027557882843 -0.2712092174238168
P 6.121444645567604 8.63744811653256 -0.04497548150495178 -0.01519110591814158 -0.9235343419966223 0.14439958129571903
Ni 6.759531422839877 0.8408974872020255 7.377793396802237 0.377851120354788 -0.5290857222944695 0.18725550011898073
P 6.428283286469224 2.2970426829732786 9.032080218251554 -3.197878205303738 0.11854559634709261 -1.4031625809909123
P 3.883237927997704 2.775839385529359 12.782318960283087 0.08774892268121016 -0.3292333593470846 0.48922153910968
P 4.2619657894896354 5.934809698249687 1.5882059783603184 -1.3769792377273253 -1.2488372559410492 0.33501885568061013
Ni 3.393516118675888 5.260782897209028 3.952455955397268 1.2117341804411648 -0.7017957204991075 -1.0654168132974426
