# total energy = -340886.132988211 ev
CRYSTAL
PRIMVEC
9.10442564728474 0.00000000000000 0.00000000000000

0.00000000000000 9.10442564728474 0.00000000000000

0.00000000000000 0.00000000000000 13.32524722425205

PRIMCOORD
 96 1
Ni 6.567222486872168 2.2260320606334547 11.238046836154188 1.0050869060591334 0.5337247637283776 1.353162852034018
Ni 4.406897065836224 0.2803261748470762 6.017134912651058 1.1089191074554516 1.1281185632020376 -0.9484120790749087
Ni 2.5115286387821003 1.7195528641793072 4.786055422405184 0.9174716807423103 -0.31417312257985247 -0.3370993923587227
Ni 3.4817235446196584 4.254215848425905 4.56393748222663 -0.6056547170994601 0.9071656708306118 0.9725588515244413
Ni 3.378606820207656 2.5060750878441884 2.70326602115645 1.0429661976034101 0.7317102486703528 -0.3470469904897378
Ni 4.794845745327644 4.484512294126205 2.6138405319705442 1.6981863843358238 -0.2524764169010039 -1.1758577782595296
Ni 5.320863039131973 4.549217446907071 11.11342910023138 1.082783072490032 2.2039151770719076 0.9600928578469466
Ni 5.9933978542114525 7.960536468316593 12.427631996258782 -1.5487155591647845 0.43942749840568834 -0.07068451099975567
Ni 2.164786589582816 6.9026386306177585 13.175444933575216 1.023022921712264 -1.4665641851760096 1.3369101376205814
Ni 3.168458468373131 2.2312124788031906 0.2384749512220461 -0.25739339458664706 -0.9447531421660826 0.16931022849446972
Ni 8.071901802327506 9.062954947228096 6.839808989511699 0.7914205200467919 -0.7947614114945667 0.3658669514097183
Ni 8.702975063197886 2.505319420518902 1.1266672060701581 0.45368889342070895 0.5242944715534132 0.1518336689762611
Ni 7.212917455265563 0.6673316358457286 4.646433593083914 -0.8797286576655818 0.18773526796887668 -1.4079638590342975
Ni 0.832588796345426 7.529250722941265 1.954800296524075 0.5357024562800388 -0.9430960661786338 0.9389637891778151
Ni 7.515539457978837 3.8166025272545037 3.9702306049278326 1.026827640170335 0.6421127028161779 -1.2995005866238718
Ni 7.737714756038707 4.456124695087125 13.010225101220504 1.5764924721677365 -1.9526880591969726 -0.7783374616105886
Ni 8.505190521336123 7.474132530323373 8.927688675116672 0.27481313272499125 -0.8817834833120813 -0.3324991745825499
Ni 6.8967753805275835 0.8891081600640618 0.28820878653663223 1.1734417126188692 -0.222122744309811 0.23688447600001783
Ni 1.9575061318141374 6.743174616131071 9.599467822870864 0.6476061218305815 -0.2466171299067495 -1.5666572312448697
Ni 0.5524711128447242 5.231931009813906 0.9236139331102818 -0.4697652301572813 0.0826725365995673 2.496197670226256
Ni 6.615120869984612 1.7804341582057117 6.5149530690263475 0.05003238196704286 0.4405878372623767 1.866469971337992
Ni 3.4786371443392703 4.616735867200149 0.24590143118874838 0.2706841981582822 0.14450345386343502 -0.3283496711905507
Ni 5.924714067440823 5.60362828959886 4.7371655673442605 0.4207348070921916 -0.3151421713613411 0.12224232847238949
Ni 5.516134759526519 3.000827784117985 9.062767396060615 0.16184605890694062 0.26821696756471225 -0.49011782567170437
P 0.38149637306454487 5.938643838617794 12.341790919433905 -0.6259160384516576 -0.7957548857560877 -2.212321913078364
P 4.406496471109566 6.265647493103567 12.36866809426497 -0.536630881631579 -0.09816831824232125 0.2968865675852629
P 2.536383720686106 8.694926750962304 1.120113840519058 0.4397455438667395 0.29853181649816973 1.9668041868833805
P 6.283737986782418 8.065000647718263 5.758465434992647 0.7131877643861331 -0.9808866546638462 -0.3752303949024892
P 5.06773269401217 1.2930378378214527 12.702238770940255 -0.9648936216696995 -0.007150495001852201 -0.7589305178388864
P 3.9987547703510007 6.437702928203162 8.537392874704059 0.06887394015357816 -1.703913002406956 -1.2387271640902409
P 4.755478209007893 1.0908376495408456 3.659818855666183 0.49192016898776575 0.7723077104767408 1.5280873413914717
P 0.42367808733906775 5.72576415910151 3.3714206970769487 -0.5430537544387873 0.5175764361032892 0.31111479536950293
Ni 0.5808869356031826 0.09282872347737711 4.363725700498343 0.18742519292762558 -0.8196124090999756 1.1886346183092238
Ni 2.091814618351825 6.499886155091206 4.6666344926182015 0.4825068460936658 0.1145048506188157 -0.7586695508680159
Ni 6.061526271020123 5.636540788164054 9.041886395933568 -0.03720874783981334 0.7783112363583435 0.2425468164921178
Ni 8.928937802309795 2.2812048798049833 10.31431454551103 0.1485187456704152 1.0218183598812014 -0.6048378776251196
Ni 2.5616211884655575 5.30130673293058 7.057556805399439 -0.3933024219128517 1.4170102855072821 -0.3398628140364728
Ni 1.092075851423243 0.04371307866142906 9.030346536478136 -1.0389815019240494 0.6348704194314679 0.06533713064491328
Ni 1.6474640222320855 1.127118785580209 11.493199274201054 -0.23999422527359315 1.3887160665482792 -0.4848447501982231
Ni 4.320578006667039 6.975191798270879 1.2519441024068303 -1.0925267821403573 1.1014132859967096 0.6226060002418181
Ni 5.563978516085328 7.938267043284653 7.727617037599244 0.651184326100143 0.6939834235435403 2.7353272335067085
Ni 5.399607216197081 2.916657369391783 4.76280271940781 -0.7828667169395098 -0.3541229234999127 0.43813680461872284
Ni 0.926502767355022 7.451316839755081 6.5230414407345965 -1.4193697868783943 -0.2091345595802592 0.370505221512678
Ni 4.844200836537026 4.721955713927106 6.951208009897354 1.6548154735493565 -0.20183082682999431 0.061038246159243276
Ni 1.0112467608943931 7.771082475884194 11.418937205861711 -0.832053977297438 0.7824309149536718 -0.5226196549541516
Ni 4.763663087627564 0.6189507181761738 10.52330754573617 0.9605356018113199 -0.20996425457040613 0.1793709551645814
Ni 7.858002427143366 7.47468790028533 4.470367658504936 1.4879565348088568 -0.8627907442596624 1.1131125767115089
Ni 7.02679568260491 6.040986686853297 6.951101488117766 -0.025614358133994597 0.8391003426212581 -0.3464111566779518
Ni 2.5600461228357436 5.41426534142252 2.207447196644207 -0.7973325146558526 0.6202475273119704 1.927995955766931
Ni 2.7629655607392136 5.225002541927844 11.24084553658543 -0.3142384286001491 -0.2106664228437533 1.0293246955605757
Ni 1.1400743832173517 3.4716813631763914 3.8583390351168996 -0.1848872569971203 1.4634642060944472 -1.7655297467774884
Ni 1.470929209734406 1.1252796916078245 2.5074917364684612 -0.31755977966389826 0.23345153905906893 -1.4518317640618417
Ni 1.3392245889199945 3.5089821948836115 8.094834029543554 -0.19845342571732918 -1.0604188458622188 0.6128980289254348
Ni 3.657056572937364 2.680834537348725 6.934325673496403 0.6635832139851281 0.10500179622438692 -0.20992980178804493
Ni 4.306393311573104 6.906262192008892 6.045611735061076 -0.7671097112155691 -0.09788549689457982 -1.1999269033935915
Ni 0.6724974869344952 9.173710284723416 0.14968495094342973 -0.33401329723423123 0.4556542446771959 0.25293073082960305
P 0.5558561382849839 5.728759515125838 7.919927088344202 -0.9289807098231743 0.1142989052555967 0.38607865047090284
P 8.899002450917719 1.7216650909198672 7.920527069991629 -0.1767366028655279 -0.34853617344075455 0.4949234745904638
P 2.179044120081597 3.0213673682848117 10.447713499930693 -1.7951169735163017 1.729992730213143 -0.004030204205315639
P 4.201992863150676 6.302474894679284 3.633141978198444 -1.9959219301849431 -0.9758724892787065 0.22362529699726647
P 7.28849329221983 4.158956243311763 10.193014462278999 0.16525045660279927 -0.3663649740920593 0.8025755082223467
P 6.673553073523039 8.017038533626577 9.820187323276357 -0.9289053765005486 -0.12833301475115963 0.813335060731696
P 2.4894321978366714 8.683965022532846 5.538652735377499 -1.6559385314102064 -1.0000598851581874 -0.25505086249639947
P 6.92470775828637 4.130104318566784 1.6848313162462283 -0.4064430730598677 0.17294473992326345 0.11172008878482695
Ni 5.548054875700674 3.3735538639964022 13.335241259596518 -0.06387751538025128 -0.8317978954225739 0.8849557103924759
Ni 1.740392894391127 1.1988980770568312 6.919693951105222 -1.0882487235902936 -0.3688864549623324 0.575120553066345
Ni 6.962136051952072 1.1734694163396564 9.247282237601834 0.7179936704152087 -2.0023972534966417 -1.799285503071695
Ni 3.140790118956914 1.6357921486053695 9.081302185709031 -0.19615331682924284 -0.5336964815936034 -0.46076379798961936
Ni 6.319208828942858 2.1032224636359715 2.651177781380188 1.11760995036123 0.7767724311163139 -1.4329889203237258
Ni 4.5429171843878144 7.357386480779394 10.44227633695887 0.6170508747515437 -0.8996395376568959 -0.28536545431954075
Ni 8.112416496273596 7.47004464322634 0.03459863818739982 0.5638989733189127 -0.4664847596337966 0.9256449605817219
Ni 7.979883372729051 3.955918447875416 8.138168364099778 -0.017998236349633517 -0.30593916470583443 -0.42383504328407007
Ni 3.257108260497417 8.865325180601632 12.461798174229903 2.1420724327334977 0.2461093370323955 -0.09918467532197757
Ni 0.5753942356351656 4.80224764334521 10.03017998943302 -0.8399796599024179 -0.052026529578936206 0.9457908394019775
Ni 9.001145001789894 2.3373245592395215 5.3989507871108975 -0.5746089035372491 -0.3899435327429478 1.8760889824849947
Ni 4.092748860305928 2.806857996585078 11.316706342061162 -1.2066295122247477 -1.3808230369534478 0.23990500799389652
Ni 1.1927343809216622 3.6283776322788963 12.647245308953162 -0.1317160722907796 -0.7880665159728943 -1.1381330100152462
Ni 2.8447506159566793 8.069234205624989 7.75694603424597 0.8510220337595086 1.0959759170312222 -0.22769329641905303
Ni 5.6120771965611 7.857028253603539 3.4698541049572946 1.7053803309811018 0.7974718684471944 0.37744025806961445
Ni 3.489007085104348 8.561109903407333 3.456715508365474 -3.277320665001781 -0.3965996046068847 -0.0864803403814317
Ni 3.6431268017603937 4.342255644034599 9.225574555629775 -0.664452761074275 0.11488048879067957 -1.024902398123164
Ni 7.334370492847773 6.114213582001251 11.4574607619278 0.4795763027104321 0.4496815720335288 -1.824513424400548
Ni 8.111943066142091 -0.2008964345338474 2.3900692281019666 -0.7183736794624467 0.6563931239945922 -0.19883420609551564
Ni 4.790484725462436 0.5952983308947027 1.5450091895616298 -1.17752205333583 -1.3404670017339042 -0.844238949399404
Ni 6.124255763444519 5.787036943428967 0.39329479820718244 -0.6911930052825968 0.5947285571052596 0.11466657300766057
Ni 7.9674103096490185 8.92096232547906 11.329618238455396 0.28797332425603306 0.40047708528442 -0.4434281349246492
Ni -0.2794858363636551 5.16671600919911 5.792085347427418 1.4334265220817766 -0.5276541320542655 -0.8347217539375883
Ni 7.291160888922348 6.2151452442678465 2.64091709372238 0.9238444170378733 -1.632484414152324 -0.8362741860263727
P 8.470347884542486 1.8987461689538987 3.2145022799896608 0.7878284318201594 -1.082930910921806 0.934672618001629
P 1.724924475286766 3.4241562615137875 1.6159790976018908 0.21598269285034416 -0.4538740128483216 -1.323876701475391
P 5.09284269983314 1.1327908427326614 7.913784332387927 -0.7602075847790972 0.4871685132353933 1.4613461313101799
P 8.697403154727098 1.6259047423974025 12.403579924693213 -0.4459359889481675 0.8439949517093982 -0.29303479793934045
P 6.36770810414529 7.8114606034461955 1.4172067255618912 0.7981452403651351 0.9068409405013416 -0.9276535063713184
P 1.8767043545621052 3.5762821089621495 5.979771260407157 -0.24873751868386196 -1.0184165332885042 -1.072809763327404
P 7.035508617909721 3.774840527000411 6.0719690471900485 -0.4443966694855056 2.3420983451442696 0.2866888011166546
P 2.791544352716017 8.747386451303285 10.257122364740122 -0.376375564250526 0.03536269577001007 -0.17842941718691852
