# total energy = -340890.35356527875 ev
CRYSTAL
PRIMVEC
9.10486317071385 0.00000000000000 0.00000000000000

0.00000000000000 9.10486317071385 0.00000000000000

0.00000000000000 0.00000000000000 13.32588758401131

PRIMCOORD
 96 1
Ni 6.52287880452567 1.5643429719294397 11.291051067082185 -0.13328907320485434 0.9147087732851924 -0.0793972082824052
Ni 4.636132625430217 0.3735816434122763 5.930273302581242 0.4044576671987227 0.38191809133531 0.379078822114302
Ni 2.840598966227142 1.684900466029558 4.899742088739867 0.10842804829711648 -0.16331390170171872 -0.22322497623505427
Ni 3.480461439822339 4.369833585520825 4.819853287253373 -0.20694526523842421 0.4770661346940687 -0.13744294747222782
Ni 5.388904508007784 4.476196597836932 2.9903293526198502 -0.18792912914723764 -0.43933082492682396 -0.3527766938846634
Ni 7.167985679344466 6.293736711480004 2.558317249394304 0.2859094997484689 -0.31358665394876317 0.18863129742058482
Ni 5.06824943458297 4.491911591781257 11.83434736120258 1.1003061689754599 0.25987579468886857 -0.7500506988507535
Ni 5.57845865570587 7.92759531421183 12.547469385362568 -0.8506096288124383 0.4735707199463005 -0.7660995247835001
Ni 1.8051210801899658 6.4782103454927285 0.2922205855406158 -0.6925145523074977 -0.19696424276631241 -0.3133282580810539
Ni 2.5190060918890804 1.5689318230000886 0.604564739804144 -0.40978293606637817 0.7524302548265235 -1.1591036987296424
Ni 0.434861925418231 0.21519708451430666 5.048406295647709 0.8866402971837504 0.5828654871190865 -0.8005793037279245
Ni 8.695417535717537 2.040572843457775 1.240899989381942 1.534840343844589 1.2675384318949783 1.4332848542975898
Ni 6.943131976882679 0.9233606001562865 4.831847123593384 -0.7318102645833268 -1.1859863820530994 -0.2608708116122862
Ni 0.4450976126674835 7.247780700739636 2.1463877430071103 0.3396725524025376 0.1779231669744613 0.5778605777053274
Ni 7.717482385328178 3.8769053948187406 4.027122891394543 -0.43288866884590615 -0.37988434873473287 -0.9030148818870318
Ni 7.438026818043613 3.924305312822306 12.671119801503755 0.47610402789111544 -1.0503084969010943 -0.40727096827780185
Ni 8.021657656296894 8.823641324661875 6.8973991593375175 -0.013091543076635518 -0.032223635920396114 0.47053861798819613
Ni 6.913167871974932 0.9436098159918475 0.404717544218422 -1.5385905549156405 -1.7766705938856564 -0.49253029176793883
Ni 1.8111940239679871 6.559899178440864 9.345777916623167 0.6127951847989833 0.1936961135380019 -0.45251544193789806
Ni 8.90048637036877 4.845772101425626 1.3097373078732901 -0.09286541797216909 -0.4438125148472615 0.7466987516593849
Ni 6.499042272575355 1.8875929313763469 7.039639885232774 -0.12554259649021604 0.18537088150175818 -0.3899404474191543
Ni 3.436548684437937 4.533602760536218 0.7649751307719933 0.9030313369472642 -0.7932979395751628 -0.23537755243718816
Ni 6.2525918345191664 5.702339424886914 4.937174912959626 -0.6282572849903245 0.6763829368529578 -0.27665764213289773
Ni 5.616881178559318 2.8426657701815805 9.140425920725313 0.07093673621987784 0.23478902692356984 0.28788719230013
P 0.07234815375492405 5.4122129578904445 12.555184846468258 1.4845174272203205 1.1947407312069618 -0.212389319072131
P 3.758742479749536 6.078279227877164 12.742333489299547 1.0797846519833405 1.59109171013815 -0.4830902294009615
P 2.2264395215455184 8.642154085790365 1.4739899511264842 -0.4617192199243533 -0.7130005880759914 0.5175602381533732
P 6.649145047874392 7.882389668247999 5.487467383990112 -1.5733151028810195 -0.20336526119664977 0.47099190347553077
P 4.689614592075039 1.0683646520434915 12.375458488146476 -0.3678554425946568 -0.7678797566123744 0.010686533179568693
P 4.115598489398357 6.360083849876466 8.273723973996686 0.06492498280815916 -1.434159543593059 0.5670544882287589
P 4.702170198476675 1.0174229422413497 3.505307701105461 -0.6770105431346276 1.3505040742549321 0.8393420263184189
P 0.12102002115247726 5.463118248239645 3.572723750445761 0.3131493093010284 0.9720019505797067 0.18156796281590018
Ni 1.616759669575719 1.2513997176650216 2.7546208322088024 -1.6572135414678877 -0.2907488301186412 0.5036014619804359
Ni 1.6957170435532298 6.289566684118183 5.032255178754408 1.4486333117292018 0.1483588230537832 -1.0505275548904358
Ni 6.326286597546609 5.667722734865871 9.286531661064004 -1.3255409765516915 0.5979522062488799 -0.11585313711659402
Ni 8.842306294294472 2.242172725216314 10.085457916354532 -0.6401332104923041 0.43039752699293615 0.21300895493400093
Ni 2.5486606314468236 5.245739638494133 7.230119997521903 -1.4002790887955303 0.15827762482939195 -0.19545474810032146
Ni 0.986056688395348 8.913315122667468 9.013550562026142 -0.38170571821418775 0.4364092804046548 0.6505356367725507
Ni 1.5352074095761148 1.2610326629680897 11.677768296684196 -0.22573000204509513 -0.29056396780134475 -1.1865507391970016
Ni 3.8950513872469203 7.044350741470778 1.5649784913832718 0.5337044520134034 0.6810456324359496 -0.15021078866085744
Ni 5.672238747030637 7.739925873203474 7.714822854777114 0.32475346919886006 0.8414554731169959 -0.2149275121129524
Ni 5.242662194720563 2.7126938474960443 4.842894054156912 -0.003373030237290965 0.4175222136921648 0.15246101814761484
Ni 0.9442744710080326 7.33066227077161 7.08747956813061 0.20040026503105487 0.8839943749204712 -0.2500608654809758
Ni 4.78153729129978 4.678260827620478 6.926716818955551 1.8595542180547653 0.7853095220530475 0.0650414537813654
Ni 8.140558065288166 7.382141167504642 9.140825624221348 0.955590856211535 -0.25985342609136536 -0.4542362812837467
Ni 4.9241285544296005 8.707854778897113 9.987885649492217 -0.493318334886873 1.5290911000656375 0.9370133503196637
Ni 8.615349368425305 7.213737617102422 4.9957556030162795 -0.6419779770105266 -0.34881925189881213 -1.2340829804500102
Ni 7.4054314076608305 6.296650267715336 7.0345493561978545 -0.21663292483983335 -0.4254977756984737 0.13275788329173266
Ni 2.25746889545181 5.574989702813178 2.556784900911784 -1.0443347958161628 -0.906851996244935 1.301490877581023
Ni 2.3233243712335603 5.123861939224879 11.449802551968544 -1.1469282397093732 -0.1942411874081945 0.5962231393729152
Ni 1.1672252570536181 3.3168834669348892 3.929058051431192 -0.48837358928708796 0.7743478808352213 -0.05380059076022348
Ni 3.526231587306766 2.8307839236593653 2.625066822745772 0.7380783569802256 -0.22883460911234785 1.0117812873601737
Ni 1.2014959622717167 3.3908513758593934 8.337021893695608 -0.43899760995712134 0.18386498638019302 -0.20531364317227221
Ni 3.625301604171307 2.8033782853207687 7.555338428400306 0.38490854142220166 -0.21273976043301426 -0.7177967239130542
Ni 4.07632010940078 7.197339758415441 5.6410482170450775 -0.013466409917551 -1.2896571181708885 -0.07372946847366657
Ni 0.7853636510150561 7.480100391054462 11.504451762080146 0.3539640293245452 -1.4573966597441286 -0.7082031666873481
P 0.14775098912532955 5.631303281924214 8.079605558358686 0.2449168593861911 -0.784516850948423 0.1603100818783884
P 8.868164105883048 1.4041702178920348 8.023183631375149 -0.5437651786835151 0.8101407221641146 0.05857590066167976
P 1.7123607335475668 3.196608223595069 10.562925138796562 1.0146226134637106 -0.15797217777383116 -0.6992480143765892
P 4.177156469732991 6.134720275073495 3.6004416855933323 -0.5970451210535782 0.699501268037976 0.8965626985037849
P 6.928363888714837 3.9495348888476385 10.465658795338955 0.2678166468025 -0.15165883396129365 0.0697871959964669
P 6.699130747036816 7.770299696956816 10.65028903299933 -0.6381380344391462 0.35633047267419277 -0.8807393583182831
P 2.385301175277024 8.673210774286362 5.918213000739613 0.43524611333448915 -0.3090931369537838 -0.5478534898202758
P 6.551149404871631 3.8978465802601927 1.275114244447981 0.6671251657001156 0.2429733625065751 0.9865695639812364
Ni 4.933433724656194 2.5842151223811163 0.5250547006282431 0.5329079242540371 1.1511710741461272 0.27767605609508306
Ni 1.840894087841908 1.291843520156731 7.211010710563415 -0.6238478430687191 -0.6025264558831236 -0.5534839486331758
Ni 6.931623429753116 0.575436461341407 9.001277206384803 0.4535809070879349 -0.018471062220993994 0.3839873151595129
Ni 3.3258881766747135 1.8521932231170568 9.706523523846156 -0.5408932564523589 -1.4217462575303708 0.13496466113506433
Ni 6.5023564427930465 2.1229172265588603 2.5518810215731897 -0.2502287585174078 -0.2884242957505226 0.33721869154540635
Ni 3.85568195861699 6.734958383868171 10.661869508548453 0.6195080780427846 0.09544423444293886 -0.14598775171844536
Ni 7.927950403878011 7.22569230253052 0.19138331472208106 0.07194717976226318 0.4041277946631298 0.8199201701483815
Ni 7.723619063148848 3.8826960878364636 8.221846284253942 0.45472196267091364 -0.18161244290059045 -0.43262281677902914
Ni 2.9910204117394183 8.55279895799801 12.691762347431087 1.3420952813659468 -0.6251143684859686 -0.8854938422841331
Ni 0.30031389847057544 4.894164449521853 10.159723554306835 -1.5107776464684302 -0.40242161060530046 0.48575852026174404
Ni 8.643975058437448 2.3723904792092063 5.887563299630238 0.7524469669970719 0.7061681385351903 0.7499997910081599
Ni 3.50015525900054 2.8851763766277294 11.885891812950907 -0.749453945807019 -0.742208062877883 0.26345682717190755
Ni 1.0256719483326349 3.385998483754918 12.865211813038371 -0.7348446805342764 0.18135044748845544 -1.0556121685021949
Ni 3.309444793671556 8.385169320970801 8.166717247849833 -0.6953556213007186 0.5311377197274917 -0.5173206113387414
Ni 5.503935350124006 8.152357968041262 3.5080400705624086 0.1719065284667362 -1.013027758172765 0.42138863862610654
Ni 2.9678394299420536 8.472066135689593 3.5349048800248215 0.2515315364892313 -0.4936227535011693 0.8785233245035707
Ni 3.837144457069687 4.310005529200919 9.67643377182576 -0.5871294046017631 0.8914940257316258 -0.7477073954295574
Ni 7.453823755757056 6.066779785610835 11.555290586927725 -0.7606403014411416 -1.1792287516142916 -0.9354277510000987
Ni 0.643746608251425 8.842488391559181 0.033997559321036284 -1.2805286735070591 0.9125660159105766 1.1019766146993475
Ni 4.385393796790147 0.40177758387970675 1.3148478676073283 1.2095777962197942 -0.9961898606798198 0.7624359598889837
Ni 5.6967308291339 5.737347624027082 0.46297228017124853 0.7952676617070239 0.3191651764778052 0.4975974218782011
Ni 8.337268635489288 9.09102384329628 10.94437793647585 0.7092285226280689 0.5376721784118997 0.7936725493057621
Ni 8.967525478371122 4.96808683413018 5.815470992532229 0.3815820481521299 -1.516173363562705 1.0119766912004313
Ni 7.840252361194502 8.773355165012681 2.7272898537487364 -0.18601545706429254 0.7496030697903736 -0.40436407904365196
P 8.482919132666208 1.7065154113504313 3.6125019874349618 1.4367566148962738 0.28796381117433634 -0.6010385584836874
P 1.7865107397367794 3.4218261205862723 1.5057185785292555 -1.1352526031436576 -0.22875207670087055 1.733715687590685
P 4.828718692585696 1.0081906109206398 8.198538744857606 0.2208305078609487 -0.6895600976648639 -0.4320862275492688
P 8.50742942449594 1.7004606772988808 12.452562111969257 0.3232321474583272 -0.815008591779377 -0.9026215031033552
P 6.1032629725951395 7.943601663779688 1.3139200820436396 1.2271178619860865 -0.26678871975861795 0.8890885016139268
P 1.9494968965139274 3.3454727374940894 6.136504828267637 -0.34315614007576384 -0.08720256325943693 -0.24674311396165244
P 6.692502406601435 3.8926021790365946 6.15041705929135 1.0443983020642464 0.30187759304195105 -0.2572998064315762
P 2.6083976391343757 8.637665388215305 10.470883165863437 -0.6743551077896516 0.0371203018910651 -0.3982008876557335
