# total energy = -340859.8969712295 ev
CRYSTAL
PRIMVEC
9.39320473259055 0.00000000000000 0.00000000000000
0.00000000000000 9.39320473259055 0.00000000000000
0.00000000000000 0.00000000000000 13.74790460582738
PRIMCOORD
 96 1
Ni 2.706398256628326 4.774171326542482 9.316322048353127 3.2352180794047767 1.42264820051935 0.25776389055218835
Ni 8.525497830003253 7.24170978625143 4.928678268520832 -0.3270360945854497 1.4910482863603032 1.1814015908958944
Ni 0.8643889779367044 6.894245759044513 6.488598344599484 0.7756789409418189 -0.09271140889280807 0.589566553288346
Ni 7.721542851099931 6.326661377871312 7.074822600758206 0.5707774456063008 -0.6755480996564882 0.24872054940299748
Ni 3.3043414747059843 9.057312888487047 11.213629121864223 0.6716135404887724 0.8248605448727924 -0.02198627446310407
Ni 4.41689140064585 1.364062369304263 6.587885455355608 0.2825570383364682 -1.3131364322397514 0.7273643129968311
Ni 2.546159581271542 0.9471074152968608 13.500579468014092 0.602544967825885 -0.5655894736474582 -0.8029804569702494
Ni 6.358109826496349 0.7435144046267976 2.631733552795979 -0.21827380287736603 -0.12503197540238467 0.9403303305080386
Ni 4.8998617957932655 5.399843284268023 9.27810297793331 0.6493565288627848 0.03770265675709636 -0.7242465933034559
Ni 1.1101922316134374 3.5427316114009737 9.018349876271797 -3.604834470554598 -2.978471317263193 0.7520631012950919
Ni 7.294433843041255 1.3269592115775912 7.325667187283523 -0.30142147934113894 -0.3574329617097522 0.07306355275489351
Ni 0.6983537560905209 9.068641093099291 0.4269897143616816 -0.7070284296529565 -0.6941232915555142 -2.484698925558037
Ni 1.09690084726325 8.472801952826892 3.8547748038049767 1.4945002494646453 -3.679932023020385 1.3343765725654502
Ni 2.8057501804954166 0.41025853852807453 2.5085942778840717 0.10958170228558546 0.6757013374049009 -1.175580099118111
Ni 1.9828397149357848 2.770657168529126 3.4734351239333843 -1.690694703944469 -0.60522637131279 0.1284155471626369
Ni 0.8142236300493464 4.521653810297894 6.933755455760951 0.9509212186500074 -0.30723474358880637 -0.8745813091366873
Ni 1.445623563871527 5.0737957632932105 2.6187145713759366 0.03546425434488086 -0.5823037010783455 -0.04808322866047203
Ni 2.0119492556433687 7.356062657685482 1.799985960454258 -0.2261087255407525 0.19537864344674738 -1.3937693127014708
Ni 4.519258543153514 4.638617992579545 1.3213946772390393 0.10873452379394177 -0.2333286403279594 -0.0002828213477414484
Ni 5.304605583966573 2.6535239085666964 8.468681154018109 -0.6094841181478793 0.2232519728182478 0.15549003478192575
Ni 3.784860243482093 4.23108442267337 3.5533797480083034 1.9178208150061422 0.9361707998137102 0.95840441440093
Ni 4.140270921685659 1.547041992725926 4.156005478523114 0.10169252934549583 0.416674778090205 -0.22503066198522534
Ni 6.361078079114483 5.363237966379202 11.09905457080426 1.4808921717629078 -0.2515140529877346 0.8220431300286553
Ni 4.537706796767485 7.631668670560996 1.3575322135443688 0.6577992603134994 -0.15708283319034239 1.1295303559478997
P 4.639848502367442 8.929170792864955 3.15783848227166 0.5733359503620965 -1.3449546051916128 0.8983886959689302
P 6.675722249841148 7.145354294615936 9.69081502147359 0.20267209178436707 -0.7296523377000596 -0.055925350412710136
P 1.601212603006867 4.477083055003449 11.183521083519588 -0.23478079939345375 -0.08799034926805492 0.009774048667628328
P 9.125836315225293 2.4752878534113547 5.856676148607783 0.3857958291231614 -0.6558426508077608 -0.5951543317887685
P 1.2031849560423113 8.881086979092087 5.825977277700869 -0.06388522868973513 0.9663853757238776 0.9657132893575175
P 2.764946100200565 5.2744252179473845 0.17776827357185085 -0.6216019844573359 2.1482302248047778 -0.1711439392690988
P 4.806643634456686 0.4426566401268249 8.69407861026562 -1.9868325662891653 0.34617024431173926 -1.1848517542280237
P 8.21189630497473 6.189407873896088 13.366798631737998 0.6863899274669986 -0.49099020097432855 -1.3871404945310435
Ni 7.897026697340358 2.723061801389621 3.6820328339545285 -1.2957033243649685 1.8902225936728991 0.2411512216961718
Ni 2.8449949888452983 6.514130953038126 11.329868148759417 -2.1788741749428797 -0.8440833976581462 -0.5852087905402825
Ni 6.525055249857396 1.2148982820385543 4.943403055875852 0.47337068812035255 -1.4211451336112622 0.45526317988636433
Ni 4.8347762818975415 1.483919658568145 11.41954507200411 -2.6130957036675966 0.7121482673780252 -2.900121833519012
Ni 0.10178758179076826 2.4249496705614217 11.048984094282227 -0.6142787113230453 -0.9089878116410152 -0.23504716568096293
Ni 1.0589053351102402 6.385857352553208 8.98270172592028 -3.0351086061412635 -1.8791213415534151 0.6313441514457644
Ni 8.663418251497108 7.144612231461403 10.808052156452849 -0.5711052612593648 -1.1227125616951181 0.1378185856440917
Ni 8.842133360081325 9.36427341794272 11.952854589321907 -0.0625503119283955 0.7216652057295249 0.27420660948924386
Ni 4.863453735198688 7.290075396158933 10.833458895951358 1.0772855397105705 1.0531973884131152 0.021273821777111752
Ni 7.470471888346459 3.124978235012111 9.418276829183778 0.5675273141001194 0.28124654705516083 0.4622601800294878
Ni 4.6511109545482725 7.488901355551454 7.735189298579757 -0.763796073461304 1.2138113746851678 2.8646231263917694
Ni 3.068487503222692 7.728428069989464 13.356363720872539 0.3078790620410246 0.6980187699551785 -0.3227184410467023
Ni 6.953469913339872 2.1348029771388477 0.947690733295551 0.36746643468635426 1.177034057955818 -1.1720805706052846
Ni 4.818807834268341 5.894940306409143 12.99652602539389 0.49532790911773406 2.5429578091999305 1.002794510480531
Ni 9.168603575258086 4.957996338368043 4.774358251311788 0.1528302285615755 -0.5103048421425405 -0.6653989270376282
Ni 5.717436921203848 7.037736350799613 6.079598495472769 0.6694268172500988 -1.93189246260786 -3.6656150921770805
Ni 6.569099985700527 4.778783389945975 5.022288126484551 1.182894116281021 0.5487600607949452 -2.1739322575565723
Ni 2.5870575936112705 8.980251038869422 7.4105742412893285 0.41431964759446704 0.11541630668949156 0.722253474132827
Ni 3.508051900432145 5.8313577052314605 5.798783950708789 1.5660077705863287 2.1681382765826145 1.8014560283604522
Ni 9.181538017837738 6.581423869988475 1.4526863143258775 1.1046497906561363 0.17736472336783002 1.3187715190383416
Ni 0.2526922298480599 1.0004138507649274 8.000482512248153 0.19452606563846497 0.4171815425232944 -1.8190734843318994
Ni 2.4971270538454085 2.488898606714126 11.403075027255262 -0.44120747312424663 -1.2861295646336044 -0.213632961671245
Ni 0.13793920790282957 3.8634531854312226 0.20315153005913833 -0.2984338574677247 -0.18337133457322613 1.1688877746995998
Ni 0.8106636055484835 8.440047848778054 9.59137668012521 -1.1140273752162944 1.3238885285499327 -1.4566178725965753
P 8.162497442573573 0.9089381288608277 9.480210922973859 1.8186384536770097 1.837504180233261 0.6378063621313403
P 3.69678016500032 2.5630485629405433 2.1665463723848006 0.23138488633802728 -0.14581240248284566 -1.443204427404147
P 6.24290217345391 4.353318192672657 13.45864820318071 -0.25404813226349793 0.2417263774733514 1.5817436932643467
P 5.098734721208228 8.569974653252821 13.019691546301615 -0.13601444255581735 -3.5254909983282636 -3.2906189247725846
P 2.5961032495329883 2.3721880409536458 7.969041578186705 0.37510415373727013 0.12193276765177065 -1.160014640579686
P 7.7691663978529 6.300717347076104 3.2584594280650476 -0.10739729303975695 -1.874620111248952 -0.03635668425216319
P 8.804128454723827 5.029610129382765 8.697886615364961 -1.0152695030190901 -0.8023399951727731 -0.4614153155306892
P 0.7027760767633605 0.17601362297353634 2.307887798953099 -1.7909487010712253 2.2458897217314804 -0.615098121900547
Ni 7.8450822765230175 8.438582508877964 8.351701003288829 0.6473076167535561 -0.8689714191490776 -1.1541324707672964
Ni 6.892047749194377 2.960738054543539 11.968801432580786 -0.025105022597743862 1.1276099989967354 -1.022307126592162
Ni 3.152838479522822 6.947664912966434 3.660833310746092 0.8156045734921631 -0.9826154644294949 0.16641362367296503
Ni 7.173336650784989 9.120266144964047 0.7249994592609639 0.5131559384380904 -0.46424121501525856 -0.8645681478750593
Ni 6.732466598151737 4.268506949352627 2.309895126752134 0.3319826399574476 0.8754508562258343 -0.18992764763450515
Ni 0.9784995046949716 6.850266775632798 13.142501119736002 -0.6729194037843895 -1.2720900558214028 -1.000019261728239
Ni 8.82496258227769 4.601749664965067 11.748340105291593 0.14819170134829962 0.9498938058267576 0.20122661758709215
Ni 4.868638784075935 0.5833236346129014 0.47514585580910657 -0.799496612186707 2.9308069213076946 3.9956802033968413
Ni 4.785170768997655 2.6332251936686357 13.268789936112656 -0.13940444207397282 1.054354899056326 1.9001809904371922
Ni 2.038597776775158 0.8758759277047923 9.363670374214605 2.0934991518104846 1.5732783361058131 1.7034628022434148
Ni 2.4642978041606693 3.1591413197341125 0.25497665717948437 0.5864462624918093 0.11799563738089357 0.8591145809596559
Ni 3.4432951486934926 3.4503870180817553 6.2218069148152875 -0.6916560609619443 0.7119366655878513 -0.2401821729146831
Ni 1.8926367722397772 1.6418851784388895 5.64776282691585 -0.6843104192301506 -0.8337583615830543 1.0647706950730111
Ni 9.061971917912977 0.9659689699082931 4.141899703343837 0.9297101317900311 -0.814432664671249 0.9282109215366854
Ni 6.9199737461365025 6.685171813555839 1.3497198853718946 -2.0343072148313612 0.017931130557123955 -1.5314629427319237
Ni 8.178588001861115 8.464761369785364 2.8841449258298546 -0.18222205146013135 0.4249228770316101 -0.9432233357851175
Ni 6.836843886419782 7.559867015456519 12.426029750829478 0.4346768710945804 -0.25138395516777345 -0.6006415801555848
Ni 3.556915350177498 8.657462959851864 5.18925609353637 0.11506689376987281 0.3177371857820269 -0.029971863771741932
Ni 3.7953524528949263 4.252519715314451 11.977435666145938 -0.8466614427979677 0.19340429332919595 -1.146616107785593
Ni 6.392216551991424 9.406073177913274 9.913229195975786 -1.536438027349012 -1.085382972006724 0.9755305325582554
Ni 7.93841315631345 3.669023245738974 7.048866358797165 -1.0886264186446866 1.0706456657965497 0.310843029765355
Ni 6.611810886506395 0.6544893697735557 12.057352110607395 2.2361670951270782 -1.5067458996012177 3.100629056441576
Ni 5.587885844908592 4.620573646758548 6.959807508407767 -0.8964081752037916 0.3296377938743549 1.5492254089216675
Ni 5.569456377703596 6.350416792020869 3.293887777431551 -0.7723534761130119 -0.02200838595029113 0.5177726112744954
P 5.334053280035717 3.482802966769033 10.523856058073275 -0.5814503519391148 0.26174550090775567 -1.4066171151984164
P 2.780463674014353 6.952145471507098 8.291622067385084 1.5413557763656036 -0.3850054720113821 -0.772585903838792
P 8.443626659687894 2.0971925863698364 13.03305431900591 1.6366177195944072 -1.5565090870672742 0.4713027498477303
P 7.014694820191125 8.566950041407761 5.982578904279991 1.387960162218861 1.7396526219004103 0.801232363930891
P 1.339001299730906 8.522266567659463 11.531342991817489 0.45965359564457614 -1.0656870362396935 2.3710188848333615
P 2.1357704772010875 4.804163828471915 4.816234096238693 -2.803690295462139 -0.7211597268480161 -0.7240164795705207
P 0.05618733128446412 3.141209692366969 2.362274452937258 0.496829433363925 0.9920892082478852 -0.7318223487681849
P 5.471194065557086 2.9816849005512553 5.393701067853474 -0.22732022935035043 0.3326809515760529 0.3090265453819065
