# total energy = -340887.766254791 ev
CRYSTAL
PRIMVEC
9.15328485112834 0.00000000000000 0.00000000000000

0.00000000000000 9.15328485112834 0.00000000000000

0.00000000000000 0.00000000000000 13.39675760784018

PRIMCOORD
 96 1
Ni 6.295409790025919 2.1768525611297047 11.83402597073813 1.346992461557248 0.3198673447511523 0.0362569254495053
Ni 4.9407236001562 0.3845267596660131 6.526726118260199 -0.9759128555983386 1.2239394642581052 -1.8899665117980355
Ni 2.9115959067177606 1.765595463083445 4.806448569541923 0.8793422208604403 1.0058983462168354 1.5185218091902235
Ni 3.3059285806757153 4.461182995512452 4.901164017426484 0.6225265531541343 -0.7567337672978838 0.3884978014353567
Ni 3.992589719808463 3.075814994099197 2.212447856097038 0.7820807307031047 -1.3446306461932906 0.4496494332440127
Ni 5.356941778708603 5.0420596191294935 2.6960305514262344 0.30414016382388265 0.3375740180022961 0.15818455089495337
Ni 5.548767173851169 3.8305033478475643 0.22062620660489712 1.1776282398963913 -1.0707379684000398 1.0285911598286608
Ni 5.760134832611112 8.786064423096864 12.933230244469009 0.33692995666039394 -0.1892748445418547 0.08167032058729805
Ni 2.3896206725048508 5.5350463995362045 11.596662067060288 0.28853845273088374 0.401315007804683 0.6770475670201501
Ni 0.8449681196896105 7.824530133411496 11.467022260003784 -0.23217550056012273 0.30628369252944665 0.28753135162260807
Ni 0.5482973360791821 0.19275536890534098 5.147141162352078 0.191806866935089 -0.6733634333003435 -1.4208702826833208
Ni 8.959116430567653 2.9025524610718736 1.507603716179317 0.05920273561240126 -1.0943823472918572 0.3839163527122614
Ni 1.664808641214151 1.3115192974952217 2.8811337740158254 -0.6509431566236145 -0.22315581356001568 -0.35686449080079186
Ni 2.0590955487467726 6.815014323406555 0.3807702514746446 -0.6301424178281793 0.27022551335430883 -0.15170151427377102
Ni 7.692933354007733 4.394208408679501 4.013239530918909 0.3470297640985572 0.12753057345452232 0.20169507258307845
Ni 7.7159538659504525 4.3884967587978885 12.775563993866813 0.6020531157911309 -0.5894958479514105 -0.7226383682760716
Ni 8.190579156513389 8.999720403123478 7.05820246237233 -0.01046824652117552 0.5655707045943809 0.8213044520904178
Ni 7.268587058316111 1.262604142098845 0.7036542128590522 -0.9191511253272623 -0.21040237054908928 0.19987498865520417
Ni 2.1102074925591547 6.811847286773482 9.392131802545935 -1.1687972718683226 0.6779816487986453 0.337935772217089
Ni 0.529947745505994 5.135844177922771 1.5226489708434308 -0.901705419046989 1.1628135434810618 0.14313794097447605
Ni 6.504269448677588 2.152761114834184 7.217516304286528 1.5327114704270441 0.14451630937924143 0.5146273807772944
Ni 3.6561515738973047 4.9577670169503705 0.5271944373579346 -0.6728733810378025 -0.6500718097622546 -0.22968358737620445
Ni 5.630112418238819 5.948848110831004 5.239981102126474 2.180212948358961 -0.08418923035440985 0.9952118130372666
Ni 5.204502969207994 3.1386065296566716 9.643053552064554 -0.3637164807256188 -0.5355484472006776 0.05485114351192489
P 0.17199937968812087 5.99627128076151 12.685644867357198 0.7440060353185702 -0.11810233816208691 -0.2376123553049779
P 4.128763141745569 6.518997084349889 12.638514602548824 0.3334803075488967 2.392643662191989 0.34839553409783225
P 2.3741516207421496 8.73984948679516 1.3804151588636704 -0.3129269088775772 -0.04207995988918559 1.3894100072915105
P 6.459738716828156 8.13859765061967 6.074303951283527 -0.2962522764353737 -0.8771161597433992 -0.3327457433757173
P 4.75490276001738 1.6793806710403172 0.2877380927138483 1.0349225013633274 0.2306996873455446 -0.733720337121846
P 4.080717548430528 6.467610541985506 8.532729867634666 0.24252290523271783 0.6489906608829339 -0.28765039369897555
P 5.034434932668944 1.812945406733418 3.915926380732423 -1.7416807080740326 -0.7128980010598561 1.1448793276001443
P 0.5829351974285402 5.795594658959459 3.8344465830542926 -0.8217500242682687 -0.69381475917616 -0.3176921914767045
Ni 0.9591361289978945 7.645839702339628 2.9570794955426365 0.9551072317068972 0.8394983493906251 -0.7828626031744518
Ni 2.2300239940820914 6.734035210421573 4.9147484077939545 -1.7552306788443257 0.4257178621290797 1.1939269770564147
Ni 6.219455830542548 6.103740000729486 9.651881895511375 0.1363779965428232 0.2345152044368929 -0.2576389349385498
Ni 8.772188042935765 2.7541136371454056 10.578763678591276 -0.2191765171972935 0.8815428280561851 0.03488704168517217
Ni 2.395030263979263 5.412410686212728 7.286215370026043 0.1637607594311502 -0.4929082439326478 -0.7084813600493992
Ni 0.6959993205577816 0.6634886826579217 9.384268215345143 -0.11676793562137955 -0.7149273727850591 0.3925606586508207
Ni 1.7487442652756735 1.3493132115355735 11.698303805754811 -0.6140359991846198 1.2581155959191817 0.4002014630255301
Ni 4.236222708428478 7.324934681186638 1.5297088996153667 -0.1178467705078551 0.20273019871581216 -0.1978841834774205
Ni 5.6808948437888 8.089462816381694 8.388540913964661 0.2003172183989453 0.8997346684738634 -0.009000403726397403
Ni 7.0235261572256915 0.815987903839972 4.782616161213789 -0.48390809731656664 -0.7304558074379615 1.0355282532681263
Ni 1.2977893698951908 7.878104310906817 7.363300675543657 -1.9116802493260434 -0.8398793868791277 -0.035056220273184786
Ni 5.265948971860666 4.9499318049332865 7.664700961548043 0.28141366876064433 -0.6448457854766249 -0.7415753143898907
Ni 8.257974794459406 7.806269329703455 9.464166325363752 0.41287314495592764 -0.4193263567804391 -0.48227698947104686
Ni 4.657099909079826 0.6156005258460271 10.731861524616686 0.23828289900944127 1.3052889111708745 -0.6713590012758051
Ni 8.159375607721051 7.3417401125690755 5.029893072618853 0.22763724637013696 0.49607661435830047 -0.6232945416684105
Ni 7.252074532055807 6.473990381676987 7.395492779123196 1.0974882399106907 -0.2084205642323701 -0.5774926528429474
Ni 2.7819213171780013 5.185802807816751 2.6427785695652615 -0.2842387969142653 2.273358873686027 1.5059329167816196
Ni 3.2566381405916047 4.6984727575812535 9.536253937234953 1.5049312149899825 -0.3747732527604126 -1.0651679305114299
Ni 1.1096710552046336 3.65246280001543 3.944715292924168 0.15819534952823078 0.0053993166387003785 -0.1210915026973979
Ni 0.4566866824892423 0.41083513160468565 0.2890003307245445 0.6069037590152129 -0.6765742269281574 0.37668923883620287
Ni 1.1114376392225043 3.6641240851903896 8.809949005149877 -0.5202123310642396 0.34129337583541225 -1.2381185839719646
Ni 5.578387204326969 3.2698188710876344 5.413884365108466 -1.6650227530996615 -0.21330154647375527 -1.2833131782307319
Ni 3.9772030476113613 7.34523666746455 6.5106904781518695 0.9027845110437808 -1.2731696620388266 0.04559157258686987
Ni 8.75089750187065 7.371131310918209 0.8294331642744288 -0.04038328891305303 1.1807706421801147 -0.8147507101323002
P 0.39741641569692215 5.914651437821861 8.039957274098516 -0.7573528889391214 0.05267650445810928 1.3737550743630726
P 8.564646457333698 2.096202966407123 8.245369805594072 0.971522696950443 -0.39445144791563036 -0.898322361507369
P 2.215461117540992 3.4113835779290196 10.797022845677928 -1.2939935407627132 -0.08894268587899522 1.3094898366260996
P 4.043536904489644 6.363702449908472 4.073645720388005 0.40325259114702816 1.065963429829532 -2.200792572282526
P 6.8460988794930255 4.200479130243064 10.4237628646005 1.0725421114883142 -0.027333911928262605 2.0943848968495478
P 6.4950063241901015 8.461360788641198 10.607753963054487 -0.7124493435582117 -1.2726844948722922 0.35595046362695476
P 2.580668038416748 8.828398366530292 6.018158616012974 -0.019659426102140335 1.9675580343302694 -1.3670028432409038
P 7.277529817826265 4.3958743065616375 1.7250335956389269 -0.3084408480817656 0.34256812878277776 -0.29010374033547454
Ni 2.576787045548473 1.6489368449085153 0.6857101128143184 0.22843043169539368 0.45750518184300565 -1.0325676279779055
Ni 1.2474188421732109 1.2715102884687317 7.068839494948327 0.41637704434412803 1.6547429684402082 0.6525853202127277
Ni 7.152788848937449 1.0863118717144475 9.526662209813571 -1.2780318752271345 0.2244529351048844 -0.8780731243400297
Ni 2.7930425585340264 1.9837914725031365 9.35329441400798 0.8571685129768787 -0.5613872626406525 0.29089821121231196
Ni 6.817897608202562 2.349639123333561 2.9766391504016405 1.1643520916127754 1.1604273026370724 -1.3629582408578849
Ni 4.250986957241045 7.507396265705982 10.421739988600761 0.23451751842973806 -1.0719862389848442 1.344417244630904
Ni 7.446957124410646 6.746447064972001 11.640201498137001 0.011701861817960492 0.20937752882900068 0.6958934960820596
Ni 7.623048022523577 4.111536659250064 8.421295944575801 1.0063112653845379 0.3182706896879938 -0.4769776887453204
Ni 3.3164457052173395 8.745918114794373 12.670425700276816 -0.28517982067129594 -0.5688393480433236 0.2646662740989765
Ni 0.21203401791279775 5.50626847128654 10.51350807869385 -0.7346477340321219 -0.46924303910522414 -0.8619685054686832
Ni 8.430166393133929 2.854314648770431 5.869414072365278 0.8614694543450777 -0.7866585798817742 1.3109412243606455
Ni 4.071875475056109 2.743532439608315 11.988142577391464 -1.9861651079084954 0.4530335192248972 -0.5963781768935407
Ni 1.0427788479372828 3.816077770582465 12.703208190743156 0.3462473774065779 -0.39949106722206684 0.3053262137121839
Ni 3.1268811714862452 9.013432024153376 8.273087783433015 0.9914667441725377 -0.011435495530451272 0.6345024945690879
Ni 5.645462477295654 7.847541492069149 3.509240433248467 1.0282461177844162 -0.27228908075155683 0.6366475659365487
Ni 3.3371595893232526 8.79085159118674 3.8894807095177506 0.008644820159191564 -0.7790612271504905 -0.6802820147970478
Ni 4.040955678100838 2.9296827980095346 7.447846823719128 0.15968196137608628 0.04323798475302876 -0.4104393387034544
Ni 5.014517384363832 4.965721221673322 11.512490288244047 0.4303967556619878 -0.16603978527331403 -0.27803189677260504
Ni 8.542870792160048 0.20794799145902854 2.7099362220995458 -1.169132029499922 -0.07645509493494575 -0.4837281200952766
Ni 5.097006789384817 0.6711801880994589 2.1460270430106223 -0.04014803297379537 -0.8133191198920962 -0.6799891661469774
Ni 6.554154852291035 6.270659307205595 0.5592126285212067 -1.009368564153623 0.06962444516635752 -0.10180488655364403
Ni 8.081435385378208 0.49444489871783404 11.611278032654777 0.6968633161944966 -1.826830502569499 0.07434061969510423
Ni -0.004582134504383658 5.3050060392402205 5.864055739287239 0.47130120718583346 -0.2853196886832699 1.182876632779524
Ni 7.844676513843275 6.4489469937345305 2.7335013545037325 -0.8051504680383746 0.006398961547808334 0.4770270539260172
P 8.882183069582146 1.9298694701752817 4.026529185507233 0.0238310409813267 -0.39490987560928764 -1.3065068427383755
P 2.032303883356579 3.650055486042891 1.5103368871002298 -0.835732968810922 -2.177950634687346 -0.6830163830090753
P 5.065876466873014 1.2890388293714379 8.440694501617632 -1.0892038884147113 -0.9399544352258586 1.9601738260510564
P 8.74534145783517 2.1156628504589006 12.720422773968075 -0.11862967142046667 1.2854816466369603 0.5718367401087506
P 6.753586627324017 8.284958678836 1.566429133317396 0.11302235253601825 -0.3024859160499113 0.13033230456937553
P 2.2713785360133847 3.329443370012035 6.436445436990449 -1.7321946229604686 -0.33035436032540527 -0.36866302609761664
P 7.052002027068156 4.463791681756458 6.22066406417135 0.3170188195587637 1.430078688655466 0.8309815701688658
P 2.5323661531198396 8.922686356002238 10.565956402125968 -0.10408596927833688 -0.42928681042726063 -1.3954186753794353
