# total energy = -340892.91742826125 ev
CRYSTAL
PRIMVEC
9.05383690083319 0.00000000000000 0.00000000000000
0.00000000000000 9.05383690083319 0.00000000000000
0.00000000000000 0.00000000000000 13.25120548023318
PRIMCOORD
 96 1
Ni 6.306142188354966 1.815746969020939 11.355792906449517 1.3198210433487787 0.32215202702027096 2.1408462736358804
Ni 4.700942193976669 0.33708882997656436 6.073544594200727 -0.3795588470745141 -0.43948560533713343 -0.026233993995864496
Ni 2.783873737394955 1.7446109733310984 4.643845077619483 -0.03819450879185035 -0.42830413479901724 1.8907568689098146
Ni 3.822430302188886 4.1542896360332815 5.38829771338335 -0.647889200288639 0.22636609296719723 -0.7580440014688752
Ni 5.017192713188344 4.554233822567967 2.778075660312128 0.5541485788003683 -0.10891732922870918 -0.5366524788981338
Ni 7.28024448901297 6.113186818602912 2.44818644135409 0.37709881556979574 0.08109722169264742 0.19513721685990265
Ni 4.980416028131436 4.771652659337195 11.483958114720588 0.10455596693621994 0.18439154830762436 -0.169626731293624
Ni 5.608055156196449 7.918060129634352 12.175433129868503 0.1362304152213654 0.15664908808703343 1.1094017035188248
Ni 1.787625751939019 6.5393690241663815 0.39645755398534527 0.3965029311280203 0.4212749958663777 -0.4251429634622162
Ni 2.7763409451824126 1.7055527214021213 0.4295764889775098 0.6396015063585501 -1.2296036045224177 -0.53496917765844
Ni 0.50686456676882 0.002535074302297995 4.95510240583931 -0.3960591587223824 0.5914375450588137 -1.078404226696046
Ni 8.687554772586525 2.4231598256883324 1.3890975854789038 0.02074880251157717 0.10550007601704411 -0.04064708409740096
Ni 6.917076987535194 0.5502098104197187 4.766405960915117 -0.3060335241918536 -0.4326960932191257 0.24379328730470917
Ni 0.8674997100953358 7.586128365095606 2.5921614594347075 -1.2191692965629712 0.3960612156049115 -0.15028637909379924
Ni 7.760459992562561 4.0438418809842345 3.650256204029921 0.32786656090654503 -0.7366521660566604 0.009111732493281082
Ni 7.743375402532432 3.839433407687871 12.620845684782262 -0.35077174763949265 0.027632674115604022 -0.03609443172971203
Ni 7.784497929250423 8.672434865140678 7.081245683200974 -0.09421781823500547 0.6736776221066526 0.049865260261559276
Ni 6.9603452735733455 0.6189890923921014 0.3745780519891548 -0.6951152231551383 0.6316231161387639 -0.6391117112063252
Ni 1.6629815807971031 6.3062236728861105 9.260207233651018 0.20152692243633036 1.0808688861864546 -0.3410347228573869
Ni 9.179866202092796 4.842589470617569 1.3005248055076502 -0.32261611114088307 -0.1753320092085174 0.5234046127492921
Ni 6.460319975118653 2.007896547298333 6.914942998202867 -0.13446920955588454 0.06218212995569936 1.0077042890773225
Ni 3.5196699998001546 4.456063070211476 0.3954516727175406 -0.7292283627887635 -0.2700666191789413 0.7990243005359787
Ni 5.964948348776037 5.564442824360129 5.067963008393938 -0.6126841131424158 0.7794870018339995 -1.614245008326162
Ni 5.426706805214203 2.8840816030300775 9.59421685373397 -1.4618354122417727 0.460191213315601 -1.9684378658320618
P 0.07095672972132089 5.760585144663643 12.580521706469497 -0.09392702646746404 -0.26533553225185913 -1.2277076730512855
P 3.959876598557407 6.314209156938349 12.817559302187473 0.08850379856936372 0.34994668063503603 -1.591643468876562
P 2.4599908337660046 8.5221140128512 1.4906943096782137 0.46308344726173145 0.6034098869293415 -0.7955682236665782
P 6.3157573630301105 7.5708998116082284 5.9676409598385485 -0.9256146215644188 1.006527495160402 -1.4387731311056706
P 4.72784114309141 0.9124366182546058 12.623442325174759 -0.26464879059747975 0.8047606887991238 -0.029808084500368016
P 3.7512128219679006 6.277278556655944 8.282427264487323 -0.11187049831976217 -0.4106439985150928 -0.1914818794955025
P 4.776333492959653 1.0938302384208214 3.930479695871224 0.3424557715746296 -0.824875714381444 -0.5668737396765204
P 0.3183691170214525 5.638068625168299 3.488565543494637 -1.0223618910894974 -0.3168344714620995 0.2689530743997884
Ni 1.527391320971336 1.1935310891954838 2.4983953986784604 -0.11086571120433164 -0.5118043095062024 0.6368794794416968
Ni 1.8338636964455757 6.695185555389768 4.668651685051148 0.4789386691264332 -0.9837927725670477 0.7760106132496248
Ni 5.859914788129754 5.596656375672901 9.105631983452076 -0.291376179289995 -0.6991891361141959 1.6532722974319527
Ni 8.895847341867482 2.0763978764811424 10.235575260692812 -0.5397478299940058 0.18273935741618205 -0.7818300481448793
Ni 2.214342133873329 5.3487623242553335 6.995231517507683 -0.07183867920885692 -0.4515723612983384 -0.20713372710014646
Ni 0.2762063044558399 8.706939037162313 9.062791038510598 0.31847689216152897 0.7529218497509614 0.16402095507107237
Ni 1.6343533488547235 1.1365552942513366 11.61957100913834 -0.11681910057428914 0.1689703286565477 -0.5281842935261226
Ni 3.9219410223908766 6.883668329765624 1.764080343972747 1.086164587367755 0.4648842479158961 0.03857040407403035
Ni 5.416086654654933 7.614131882299203 8.059581557943817 0.37640513193688074 1.948482505756057 -0.3666704211476201
Ni 5.733568495670582 2.8688711572162893 4.676284069468425 -0.2202514954290271 0.5833257145849567 -0.06852838388870133
Ni 0.6522121465073961 7.34927999456662 6.7508394901620035 0.20017272240128106 -0.433236539103628 0.8510994239646633
Ni 5.4159327394294365 4.461794148902029 7.175090512337329 -0.3280231410890673 -0.9919164301154467 -0.20320688124191458
Ni 7.958566995450356 6.75997481148707 8.992943403796534 0.35860281364813723 1.1309164376621492 2.0070496646669884
Ni 4.568729015275035 0.3810506399131292 10.366510943022824 -0.308895676230997 -0.43227546074193934 0.22856464328041282
Ni 8.133867383454263 7.226111598822114 4.571294872622431 -0.3726274100620034 -0.4698835009027004 0.1251633587739264
Ni 7.482606795193908 6.038546988073824 6.931361225844964 -0.9317749847388598 -0.7575585771920244 -1.243502216881381
Ni 2.2326308841970506 5.408789262199033 2.4823746344716167 0.44000573950666155 -1.2280213476369626 0.7276669318389145
Ni 2.477799730739648 5.3019449341939655 11.300733808754643 -0.19543520771629566 -0.010511698164601251 0.7893068161378988
Ni 1.1957673868835825 3.238720390247979 3.662884495590083 -0.712751962400295 1.341324207527877 0.4932851676560924
Ni 3.6351426342698283 2.563765911097932 2.5971962980758074 0.8025230577178566 0.9599738157705792 0.10197715046545018
Ni 0.9415356497102693 3.284270243158198 8.041189593880645 0.2727174265382271 0.17091691085995725 0.8142938251005396
Ni 3.5642691998470113 2.6237113645104855 7.304051552862587 0.6818159349430709 0.8871421765208335 -0.6498874616655904
Ni 4.0080792256482445 6.880037741211262 6.104273316279296 0.24468803120483665 0.04875788612999345 -0.6527951222306887
Ni 0.9093764214182605 7.422090950063336 11.330191372147347 -0.46370951088150464 -0.23889173623803373 0.059795117780761534
P 0.15887310652501535 5.416557454168218 7.9669426998684125 1.7769328464081076 -0.768384978383567 0.13950085844252103
P 8.519986361204628 1.5298449107424887 7.970785148203753 -0.6200649789875192 0.10842522008363907 0.3372767984768514
P 1.79949533197585 3.2789103717761963 10.261190375750175 -0.22721661389295061 1.6354532669726607 1.5338201301101906
P 3.891239461822689 5.934328272738995 3.999928961766357 -0.07125041080555472 0.6757782133894232 -0.13514566679761886
P 6.87636188347293 4.124212790203875 10.54662072913166 0.26923898107132344 -0.5624666117477602 -0.18434552556103737
P 6.369998899262493 7.7332351053232395 10.104826087400754 -0.29419693656824175 0.7539968279826951 0.5212605698230958
P 2.3502311703132954 8.535015730282538 5.8468030216847975 0.6278726479573961 0.05488971005934418 -0.4704704837544221
P 6.915383920054731 3.927346162956848 1.5666505680771379 -0.2610911551532084 0.16410837257855607 -0.2073975222844944
Ni 5.264697449623774 2.931958291996334 0.31422336515351584 0.9852619009134064 -0.5844958236336578 0.5315375262690717
Ni 1.4989713272752165 1.1481804206947317 6.995351028153363 -0.39678780935829083 0.2984148313043313 0.046689176526422814
Ni 6.7693093172216035 0.7625720793395424 9.317929970130661 0.4636979409172788 -0.726696340395529 -1.2169522343069945
Ni 2.7999442977041658 1.7575760676199939 9.39775493299163 0.06253437108879552 -1.4739537927718613 -0.6387864666564225
Ni 6.515267710620962 1.8416137807411725 2.5095931840251824 0.31198948466497234 1.6276597390701713 0.7323671655280612
Ni 4.085353722684364 7.000182155466599 10.413247753936727 -0.02961628020453609 -0.29291627008360527 -0.9008767524981065
Ni 8.112636136172517 7.45056526678022 0.3801017978171263 -0.24246222719811145 -1.1337312814031248 0.0717196371324894
Ni 7.67048296250457 3.7924983177481826 8.475457781084765 -0.7273833391602247 -0.1231995501793362 -0.30407794312737957
Ni 3.038512897223995 8.222857545301716 12.247214664121753 0.33318385935440037 0.9716738778163265 0.6328397621546844
Ni 0.08562575609483235 4.623568104735816 10.46060746882205 -0.6317267315961637 0.7423348182637344 -0.21936523616933187
Ni 8.582014197079785 2.20404792143864 5.671145007127532 0.4624075042406295 0.7121621513350961 0.1984017465437873
Ni 3.633159844011959 2.89006618915086 11.69628235752588 -0.0818657244275558 -1.023289030889457 -0.9391743625267246
Ni 1.27162948537985 3.520548221969165 12.436150130337303 -0.5483389140971267 -0.03524673901743607 1.1742960901993647
Ni 2.810292833159618 8.383717063619317 7.942586973509084 1.0660426198068995 -0.4184575810222406 1.0783718307962136
Ni 5.732645004317601 7.658151636791249 3.4982124065985607 -1.1562202065342602 0.1844195733320824 1.042337819990792
Ni 3.0231123208375346 8.540438978522097 3.7082831494258426 1.3308598176614435 -0.029957465594038727 -0.19413628639921401
Ni 3.348208438596871 4.374406516167099 9.096330071530002 0.6583875287168015 -0.7421453279607476 0.2857444349255144
Ni 7.111743532441299 6.103417728702271 11.40589502849972 1.1938310749084988 0.3647572632853073 0.43740635421060153
Ni 0.6237984904970325 0.19609433496850565 0.5036241985802754 -0.33131363891488097 -0.13065934889149108 -0.7805270130627396
Ni 4.730847016906991 0.6709309540788286 1.650317979273445 -0.7673390536175559 -1.8582781795558188 -0.21736466079953534
Ni 6.032272679175637 5.654736738705908 0.3853104701246692 -0.5279603504407746 0.0803289760680552 -0.06935936443042894
Ni 8.050381954377512 8.80625962679163 11.6248448690708 -0.24770830608839917 0.717290473700597 -1.1485344078542286
Ni 9.268322187569408 4.69455018520016 5.687986954331584 0.2363106057744188 0.5737103029823797 -0.3990804620472095
Ni 7.653543233863144 8.824711346177642 2.5001047630651527 1.2901690248103006 -0.5346881560829114 0.20659302410532807
P 8.687581934096908 1.5771964771746976 3.551257025606788 -0.9285269101152073 -0.46122865344117986 -0.06716852742669722
P 1.9120073618139115 3.313278736245922 1.5283546492062092 -0.8565367929301507 0.8345844570287757 -0.13619159156362998
P 4.537828270297381 0.9792629876305399 8.24936536866696 1.8417457291184345 0.12145094291934566 -0.4088938485932055
P 8.732199241817353 1.8560365427538892 12.424065068984778 -0.8866629228915698 -1.750393148246366 0.5490320835094092
P 6.01784991716292 7.713841786910661 1.3052282737220924 1.1373588508533832 0.15729366364956782 0.04660664411494554
P 1.851690701092807 3.279544140351771 6.071066559070231 0.5909294950741436 -0.7310052521835282 -1.5834730172506277
P 7.21321893522757 4.029138450030906 5.861975441384051 -0.8911654387476136 -1.1244498561011989 1.057004163753715
P 2.2084390322836924 8.768704311770444 10.063495322436504 0.32440791293398324 -1.0312810479559982 0.7560871348528204
