# total energy = -340887.094770492 ev
CRYSTAL
PRIMVEC
9.10184187111313 0.00000000000000 0.00000000000000

0.00000000000000 9.10184187111313 0.00000000000000

0.00000000000000 0.00000000000000 13.32146560665445

PRIMCOORD
 96 1
Ni 6.71174352979119 2.081090580304048 11.304742160440318 -0.4063679968475582 0.02991504239187751 0.17487923794181495
Ni 4.595829303397163 0.5962479926516991 5.464917741592942 -0.1000429095572148 -0.3726299811651647 2.27582918960339
Ni 2.5817828885658765 2.011770954422898 4.656198178215876 1.1690718656859478 -0.9524150295867145 -0.2969778417474885
Ni 3.5320151551089567 4.6116938133644485 4.7455454964275 0.11660775589443143 -0.2387410695927824 0.5021868410210965
Ni 3.7983168376234917 2.9668727062399296 2.501358105707626 0.8926883031500432 -1.6010961296490296 0.634154881421682
Ni 5.5046663941908385 4.826560988807767 2.468654278534102 -1.2768301416095496 0.34164793096135354 0.41982129413898667
Ni 5.898603201932706 3.5178890968936805 13.33825013305247 -1.003928109864342 -1.43685251704419 -0.3155026400245534
Ni 5.88570589233796 8.155086270515348 12.404828968006566 1.1102113439043138 -0.1748077612739312 0.31220160067577846
Ni 1.8238998412647014 6.972520394434158 0.2653714742995857 1.65871763681724 -0.778542378532543 -0.6874829034208612
Ni 0.8302909280485906 0.1367333261242345 -0.04435145391198393 -0.7359289147373905 0.2450847524226231 0.6375086283852633
Ni 8.203453456956057 9.149080191632558 6.952099502545114 0.2886232991352061 -0.3227966025828054 -0.4755466127257488
Ni 8.712801616611396 2.7998994214723743 1.3443620333275803 2.1197786543323045 -0.7957967947376166 0.630543767031656
Ni 7.066906492174117 1.2433206689851661 4.617992287774867 -0.028578582968641103 -1.1945203876660395 -0.50458542316026
Ni 0.8352268567664671 7.7717622101182045 2.297206528419491 0.6133667410317372 -0.2215956681617474 0.5346089661055438
Ni 7.931253781062979 3.7120131752541288 3.762394599248343 -0.438057100420723 1.4752005206947691 -0.174767394954299
Ni 8.027087071622672 4.19002369416514 12.63802088121072 0.8558490228345067 -1.7321989938358426 -1.2079652003170358
Ni 8.459051373709531 7.637291601824071 9.182126248051505 1.1963620688604686 -1.1427085452010708 -1.6343749463068176
Ni 7.112916301631735 1.4061617176510879 0.37878770252698046 -0.4809425869303394 -2.182693805799286 -1.3402556570540465
Ni 2.3690637477480765 6.669902363801741 9.247348224829228 -1.3167801996399258 0.13897866739046388 -0.9451748030845336
Ni 0.4323247350155476 5.196432527270518 1.2167332793893901 -0.015360027395838064 -1.34758407239466 0.6886296154307947
Ni 6.362596884728044 2.0210730365723903 6.741607582375046 0.3760068680571976 0.057518663041759004 1.1022180412861922
Ni 3.7374983318280814 4.199516914988937 0.2844398325218822 -0.12118149130804291 0.9113619683001466 -0.6645841444458167
Ni 6.446707003263719 5.880435926032131 4.750341256784219 -1.0004843742901155 0.6203881666548928 -0.7953270541900496
Ni 5.631327622363381 3.17464954705071 9.449821422520136 -0.331859484116022 -0.4399517463402745 -0.799270869329146
P 0.32677522851203383 5.697579927614024 12.289651533423077 1.499674080356101 0.39150084992773865 -0.12200887230534471
P 4.042719489167695 6.278013470427422 12.96277186014345 0.6581350463863633 -0.027260378377849823 -1.313179369662545
P 2.629840612391044 8.677395452656867 1.3059176746357732 -0.5166726933420973 0.9622628689150717 0.4657172853401528
P 6.928640415918792 8.17793189301557 5.556049930948905 -1.0342025924781673 -0.5480303817177723 0.060530710395205425
P 5.027201985777841 1.398771022244642 12.590876072101398 0.1445898429296542 -0.6120997013938555 0.85519596263154
P 4.342506847052077 6.2652890958237135 7.79873187706259 0.5800077059553171 0.04037454716230466 0.9939254901256752
P 5.120195501747866 1.2968850069986337 3.636653567264952 -1.2441637617247798 0.505431058990007 -1.5544784297904906
P 0.699979861380992 5.85920132950105 3.3042424784134212 -0.6495827859409781 -0.8367614100754364 -0.2707705872245014
Ni 0.6439370918907075 0.22812491796675433 4.482166415261498 1.003628576346052 -0.9937964207469788 1.0969315960762722
Ni 2.079816322475351 6.784976947574769 4.604817372010298 0.9917364528941566 0.0020759086924222315 -0.37719446060739553
Ni 6.259636852169276 5.843919337398312 9.109484449974106 -0.75428273465423 0.9485969413922051 -0.8580105492621998
Ni 8.734627832848659 2.7051401482254396 10.07875412847793 1.3578144918734165 -1.2702697147832123 1.0406640318327949
Ni 2.565690832557752 5.255548988680454 6.981766955349686 -0.792026529061907 0.9752345985843914 -0.12109638779340434
Ni 0.9110670419938959 0.5469005378670572 9.2209583451969 -0.9923979977375554 -0.3813241665050529 -0.8253670521955655
Ni 1.9441715766104892 1.2141219610247236 11.371749008362382 -0.4800272742049217 -0.30003411207530906 -0.544658894142378
Ni 4.20566975993322 7.080313504900343 1.6945572105469129 0.6219030606375224 0.39286147772069113 -0.8815775379488623
Ni 5.608409185130091 8.240507054246256 7.357632056528131 0.41264071723014745 0.06301465315932372 1.1032287419388935
Ni 5.621042541317465 3.414373851995266 4.638694426570388 -0.25752760617166615 -0.6886159885840398 0.11407521928056483
Ni 0.9594251265929705 7.697591302646369 6.705785464257866 -0.07711278312360267 -0.38021190727748067 0.4275780552662701
Ni 5.532053835666203 4.247265176198563 7.250767333908569 0.581674809245095 1.5920607589196387 -0.3227012146555216
Ni 0.7736902156661691 7.629764378793121 11.380794418577809 1.2856153440013471 -0.5845976393188448 -0.42157632915688037
Ni 4.8952343839329355 0.4777911645276419 10.438286885029127 -0.3950888243893131 -0.04988274376305603 -0.33956790850387325
Ni 8.570248572946666 7.226088600503351 4.527699288217518 -0.1572792654718646 1.049630239887147 0.18637001219023386
Ni 7.587267880206056 6.295934996603891 6.879737131005867 -0.2643549135061447 0.6621002016816984 1.1271790821069039
Ni 2.974181485071674 5.137325167702215 2.506113817961159 -1.4832437027142198 1.5222889895421396 -0.6147373961270187
Ni 2.4712137164014574 5.454442432056885 11.558702655883916 0.19601422014821726 -0.4743302238201444 -0.020689152918235337
Ni 1.3048127110614598 3.6249722637124484 3.4872268127985624 -0.7895765248595176 0.7648620528319731 -0.6490294845406693
Ni 1.851742374821744 1.2653835331049021 2.4790849890461555 -1.503066650977418 1.1219967665750161 -0.9163640495004283
Ni 1.4357062955936055 3.31600114761981 7.966955754870596 -0.8441918982115526 0.47640176163719244 0.7967301051851634
Ni 3.7162364297720982 2.9967540523228893 6.650075822171369 0.00039646410747028497 -1.0922632440663251 0.4859518672194728
Ni 4.195411984412203 7.02243489395257 5.814087141260174 0.19391054354165313 0.28691248709168654 -0.6897652716971346
Ni 8.507591495141277 7.142451777732619 13.653569783684514 -0.11275084404218647 1.5943531544982412 -0.7821838319398723
P 0.43160386915817006 5.95395150090635 8.086449282756714 0.2906976651657316 0.3712495558778703 -1.4581168257396049
P 8.552290639403662 1.8887413610621429 7.933598415467782 0.727442217422618 0.6896876243816639 0.8021057676747799
P 2.304131209534299 3.3791770303983113 10.48810945594704 -2.250792044129104 0.9746152198328376 -0.7054891101902947
P 4.398373950998834 6.336183340307468 3.7035803189806407 0.4488426210720012 0.2696310743034195 0.6343618552261655
P 7.306503371335803 4.320116316633533 10.406169216456801 -0.6795729045451651 -0.6306952050078557 0.5392292384863746
P 6.483132573481204 7.904703709017901 9.928834054195002 -2.243530220360368 -0.5974775806053065 0.5504220218784005
P 2.6270645506928094 8.63092144927594 5.5762187018247 -0.7014180254447145 1.4048579664154643 0.7340867193223293
P 7.222557085949531 4.226485671749159 1.5628207954794997 1.1933484788451254 1.4767118151329728 -0.5955176286654583
Ni 2.745452204820452 1.712948391751673 0.1712356772045492 1.652151296453632 -0.11896237216953705 1.25561725497736
Ni 1.7094714882476554 1.2814391817464919 6.750519195518459 -0.288618928259832 -0.8470350240873026 0.44700865318705596
Ni 6.966458567906211 0.649408208896637 8.935426291678992 -0.6534124440997134 1.2427802511136918 0.3209821750818859
Ni 2.9710231460248306 1.7793008172602847 9.264586202699016 1.0099851146916994 -0.23087992167715077 -1.0858311152877365
Ni 6.313656282264421 2.3558205681712545 2.2855507100235615 0.20245869022198035 0.17029984610124865 0.5414992654674738
Ni 4.180257418092336 7.089096782076723 10.706648314305335 1.1295660942818417 0.04263840349581689 0.22615731939050082
Ni 7.412066530601767 6.308158769917754 11.323072359306133 1.235118620803376 0.7518779818674792 -0.6940050208100951
Ni 8.013070235507 4.1232343802581175 8.417967480943993 -0.33726985649831587 0.4768807581561399 -2.8648846075832726
Ni 3.6652115055743923 8.676248620611041 12.695076685674819 -1.28061429124233 -0.4157424960839227 -0.8119844602410725
Ni 0.568932455725239 5.137043010611576 10.005006456642054 -0.025217122695575925 -0.7810538321004872 1.1591798033832166
Ni 8.873212473561157 2.3961053192413666 5.791080416163038 -0.14215295135338746 1.6005693106112822 0.5468101361574259
Ni 4.076450914261648 2.97632041785556 11.42554089241669 0.8288344419188758 -0.4405297303309316 0.5607599134692988
Ni 1.2834506887475075 3.1967397166953466 12.512599323868667 -1.374817197079 1.3033976076854328 -0.3266820536801406
Ni 2.9368275270075666 8.629865635646448 7.894340352133934 1.3562029244119223 0.3659021755230279 0.16464161937420677
Ni 5.923123563293502 8.099255573935125 3.607319241864169 -0.35816752588293155 0.5122005165033566 -0.43788406517796846
Ni 3.311796096785108 8.875806498426721 3.4924348865812824 0.5190540490900802 -0.9381027267291006 0.0872717259344755
Ni 3.569268992915095 4.684690583265554 9.116877875933042 1.0064264508061636 -1.2194747436185323 0.8143943552341458
Ni 5.409069751513616 5.005375769540578 11.256185655693631 -1.111096060502112 -0.34206187857032055 0.8240136234914647
Ni 8.30504821326979 0.27196393819476916 2.3187205514887235 -1.1036267487082605 0.17182759559968472 -0.29628518655583813
Ni 4.711804969491913 0.3849205234196694 1.5072567828591403 1.2529206819818035 0.9144771168903606 -0.18336644947721967
Ni 6.552006209122311 5.781781064566036 0.06523380917184782 -2.145329249107899 1.5407446251441659 1.8691390335297229
Ni 8.008810573622496 -0.2985595194480152 11.089760301792415 -0.23493917934818895 1.89785799873097 1.5737244225042961
Ni 0.36668953462765996 5.498276901364083 5.722488937612573 0.3296192819315936 -2.3320407037979516 0.045191508934973784
Ni 7.54697402729431 6.4780810513745815 2.5412696812707622 0.05579422415148456 -0.9896299480741151 -0.7666787943257377
P 8.916792091302616 1.8899154986328714 3.6085052118290215 0.6316426565227896 -0.06212659412741558 -1.6917632544182992
P 2.0369557502229427 3.515340581236285 1.3105987517879103 -1.1372027848914932 -1.1926398828138751 0.09427618227676667
P 4.668380083058226 1.2771340106538207 7.976427131274472 0.6417265231213529 -0.04157782344178646 -0.17246111541862555
P 8.64782356918945 1.561238895403588 12.0895894135809 1.3498556420376557 0.6866809763448561 0.5498409525639498
P 6.737301501098211 8.025976646943379 1.1775216354478746 -0.8263461282793834 0.8416038257694022 0.4936476932018337
P 1.7211218455386048 3.6535247409169083 5.699349325627587 0.4043414533358327 -0.1973601926531504 1.0851852541736215
P 7.355271038808389 4.319806854017991 5.850347968144091 -0.4749100075830143 -0.9433765735335301 0.9401403259844198
P 2.5366377540634466 8.525048827394436 10.312266426507586 0.7818701573541953 0.6166292138330929 0.031374143435907255
