# total energy = -340895.77088526724 ev
CRYSTAL
PRIMVEC
9.05411828620646 0.00000000000000 0.00000000000000
0.00000000000000 9.05411828620646 0.00000000000000
0.00000000000000 0.00000000000000 13.25161731617179
PRIMCOORD
 96 1
Ni 6.200794415911852 2.0615503076513577 11.794111817516832 1.0616383200916168 0.15258520243030496 -1.5135151000042515
Ni 4.66323309757372 0.373678854910557 5.9614252575155815 -0.6950375758396675 -0.9084298822550161 0.4666616515312931
Ni 2.639655762140489 1.4228094227986607 4.663601600189188 0.6260795606127153 0.19214008190479168 1.6200099358343971
Ni 3.5693779014391014 4.306093400591358 4.7272891738371445 -1.180440512534206 0.14581883024074888 0.2755556673179706
Ni 4.867213329119305 4.712071011771282 2.326002995430818 0.4549129956357972 -0.4659299155715911 0.6822946743517023
Ni 7.396843445481377 6.08116235059995 2.7625780940484956 -1.1888958423904106 -0.7210851648563388 -1.9193529353799526
Ni 5.162296099162457 4.586834447221656 11.625525039881088 -0.07368036040328602 -0.24799189876708908 -0.516880181367213
Ni 5.668140635370025 7.900723238014331 12.439001354118059 -0.33870710316547475 0.24069330822314677 0.23799699233790622
Ni 1.909404903465996 6.504876979561303 0.2916385834356711 -0.06606423861892494 -0.44421232138884137 -0.34823689703278093
Ni 2.661747810832008 1.5999894641283052 0.34711588259450044 0.5485559152039391 -0.11287631387645722 0.4265843238944331
Ni 0.6122059803034209 -0.17196849082684196 4.475892524669639 0.30447980655148854 0.04901705332865107 0.8817194628433654
Ni 8.542977120773712 2.376588354463407 1.4643297985730734 0.8168433309952706 0.540351782126592 0.12002835154020618
Ni 6.8681734769986775 0.7367897429224497 4.891370622198749 0.3485667695683739 -0.06717495518460044 -0.8058284679420057
Ni 0.8242135931481459 7.338652627063184 2.3684088639765553 -0.16074562675391024 -0.4834715239997803 0.6287200835593559
Ni 7.733738133908724 3.820702117660077 4.091595905209679 -1.0526384305858516 0.2786811003208297 -1.861657123330381
Ni 7.478049832659341 3.759288033121318 12.729848607612894 1.1914448340645094 0.6365020414976198 0.37999619172224874
Ni 8.068043344497637 8.923901986572721 6.729210869081697 -0.46176087179556596 -0.7867822499438321 0.38061942712854446
Ni 7.054778855495482 0.6115884894342563 0.3994677001105788 -0.730403356933471 0.4114179005666398 0.05253483667392243
Ni 1.853079233420939 6.605060798730014 9.119921837294706 0.4020374877930044 -0.5126771990294591 0.13285558521186153
Ni 0.06295056841701771 4.998344124692776 1.3128055069042026 0.12165328873813888 -1.1997446121794564 0.39200607169893137
Ni 6.387191549687384 1.8848682428291041 7.091483345737511 -0.3387868073634746 0.4678276468149362 0.09970866614624764
Ni 3.3921616436361917 4.212953685472647 0.29372827394304923 -0.5376084150535 0.9181237125040123 -0.029842794393045376
Ni 5.857688602319595 5.532681971241413 4.672413973546343 0.2702895338230248 0.10808866267982677 0.43107578400688334
Ni 5.180422444031482 3.039684817586672 9.598556937138444 1.0067642937615564 -0.6272692100454422 -0.33743646398316723
P 0.20348859292101598 5.535180907896684 12.475986522027886 -0.04735894889993779 0.0065036054464726704 -1.2016284594657305
P 3.9622179869422243 6.1976616909744475 12.571398820843964 0.6707522209297416 0.3320623441554475 0.7980197705308644
P 2.35303859272298 8.52101182973862 1.3611925260096185 1.4478434688380548 0.2345370588137638 0.08818549599799651
P 6.254077902202667 7.733692863317143 5.919815245969838 0.07002296615635682 0.3487704009387477 -0.8183862500023583
P 4.690431668995573 0.9952105770796601 12.721486223936054 -0.9123603276576739 -0.11576006318215547 0.9157045615395585
P 3.9486549177045625 6.056888259394229 8.218838779642054 0.010796833505187857 2.582075086916366 1.0786896191469488
P 4.8934974345912226 1.0318978644968873 3.873487627443501 -1.513858085165967 -0.9277879750666538 -0.31590990276530106
P 0.18012987307706127 5.504713799762683 3.617625487122448 1.32404279473961 0.27378494857079294 0.5730569856690969
Ni 1.5299830213074757 1.12070065694214 2.6596526878536397 -0.45793069941619846 0.6107257038644642 -1.2732233980948975
Ni 1.9419544588127216 6.515090025021972 4.687004685212893 -0.396234250847666 0.11758246110287493 0.2694564963987682
Ni 6.084503320258627 5.771330421819715 9.263476694021662 -1.0692888946583392 -0.28272724536574534 -0.018639212367742092
Ni 8.798393798473608 2.3488193735876326 10.187392427244099 -0.8824113467040674 0.34516828540978617 -0.0979016948444959
Ni 2.32019025147182 5.308456731140813 6.923665262746813 0.0386958739083011 -0.6754815080846109 0.3919523356428604
Ni 0.47848661230335005 -0.10604817160211188 9.055095255562573 0.14672128745036023 0.26920709939212345 0.2729413696235751
Ni 1.3345408233340632 0.929233216909538 11.489523128653506 0.3601367337941604 0.40722880218595675 -0.5231295047110345
Ni 3.9654321989444745 6.891985808170273 1.6037641260543274 0.8814422979225787 0.642360557160926 -1.694584268806862
Ni 5.564606792424321 8.011645241506052 7.987995884464146 0.38078089240707325 -0.019783610384830445 0.742879892133927
Ni 5.343939820821987 2.8418704406144157 5.024615554399051 0.17200654437971022 -0.14394629580838436 -0.647165177638421
Ni 0.6913770016839041 7.3232063012157536 6.791189025191556 0.27119456213579746 0.07512300638708351 0.13255810857610073
Ni 4.960579397195921 4.580831566778017 7.2435861955667855 1.2583467380933813 -1.0886269328653186 -1.1145516231508805
Ni 8.210518950321303 6.955663422288082 9.341528626378263 0.8795839045576012 0.46684805651048633 -0.21488303202826217
Ni 4.599347238734639 0.5383678346111772 10.575890157602773 -0.20514549302552415 -0.5665382107139726 -0.6422826527351391
Ni 8.086251176431508 7.143536377349154 4.72487715671771 0.10129066592138684 0.16760712976043393 0.9389110815630088
Ni 7.286591446745055 6.2191018431472 7.05474988231687 0.0832615763338179 -0.6715312651876112 -0.24071541971033383
Ni 2.3111270790373077 5.297718546817805 2.5552695686098765 -0.5476750552608826 -0.765109650066405 -0.16612745989111388
Ni 2.5750998985460094 5.194619301551278 11.250742487947788 -0.2883199089621744 0.5518834369152753 0.3852890646900719
Ni 1.0593046806400133 3.3733109693018717 3.8218058146828215 0.6242998430044733 -0.0026099268190213115 -0.15601505404746033
Ni 3.718607879526648 2.5915512315265383 2.73859282921706 -0.2667074728987213 0.05283025642715418 0.3137144377758791
Ni 1.0612150996047307 3.1471300396449724 8.101482014263015 -0.8004306939652022 1.3585801663948476 0.471796144544381
Ni 3.775811799048376 2.551513920332318 6.823814635132138 -1.387424087209733 0.32380858878708746 0.1822397920719442
Ni 4.107301178840953 6.712859131402648 5.989545538182024 0.3150007606874704 1.2228940537127262 -0.003103321515672075
Ni 0.7404267822500658 7.428523805469748 11.329417343644543 0.11402251166575848 -0.40482482073015447 0.0532316056306309
P 0.2232012193190385 5.564851253618858 8.028889715251077 -0.10469917738230355 -0.7390738881242755 -0.1810285453726624
P 8.386268440956988 1.5926737365288186 7.931967189499861 0.5151464865055579 0.6199991587465903 1.313611829214273
P 1.7705781073237588 3.249993877835278 10.426836734822393 0.7134263627595003 -0.8612570812239554 -1.6372887775195029
P 3.9964063377041814 6.21857670428486 3.6388673541040757 0.15985422528789245 -0.06331984310456837 1.4083613515830327
P 7.028322721775557 4.0274166929371535 10.488376671605748 -0.20883862560639516 0.05690931159253424 -0.2820741851627787
P 6.497226249584116 7.840341322963618 10.19749048540215 -1.3920435882596156 0.35493436365761455 0.5726515227005622
P 2.364519214747917 8.466822931616186 5.903569441475088 0.5276291923536011 0.12762081917548343 -0.9628963887340126
P 6.899527888727666 3.917997673085922 1.7808717344374423 -0.11249707616016756 0.6300601425270181 -0.21445391491064358
Ni 5.159951082518562 2.8194433895451976 0.8059052605009654 0.7425289365524116 -0.6458240902294943 -1.1468827311834184
Ni 1.2779525838578367 1.0777569737684214 6.944854615842207 0.8569831364389499 -0.412243996012361 -0.49928483688295305
Ni 6.824224786691861 0.824622839296038 9.331364473156501 -0.24027704662133456 0.10927496967844405 -0.13653843338008745
Ni 2.569803239331035 1.4971437341746319 9.292802983247821 0.3604928315819985 -0.08448336455606095 -0.33902026353051934
Ni 6.40862264774182 1.8569181795870062 2.651039505099442 1.2302983165965975 0.5371137348052686 0.132890552214855
Ni 4.274766151217319 7.01165408995544 10.48342044723946 -0.02457511823620284 0.010970640078890783 -0.9328188526223419
Ni 8.375448769569132 7.195606611785599 0.2482159374030255 -0.8055798422663093 0.48623134613310454 0.25618343343894584
Ni 7.358046548496476 3.986410591083101 8.206793180634188 1.2021709622327619 -0.6948298307042357 0.26238673403618035
Ni 2.972702450283452 8.334741453619515 12.328417069239531 1.0349381850926112 0.19439571070818779 0.5224743876255389
Ni 0.3856058449684823 4.938342482611343 10.25424713147906 -1.3394182487544157 -0.40286846833473194 -0.16805064505575573
Ni 8.571651513481106 2.5056729192974165 5.821687617070735 0.39311627404397453 -0.8000709966329382 0.7149679962150074
Ni 3.5831129989247708 2.8035443577819574 11.501516213775139 -0.01735314656646689 -0.9017396147190342 0.04966831375940478
Ni 1.082437952937895 3.408694463681566 12.405382507398189 -0.45733214660025107 0.3598184312227932 1.5783079281099206
Ni 3.18484044243193 8.33270427699837 8.00396372752659 -0.1793133624537686 0.3942177346382695 -0.16169076427599893
Ni 5.898776191238493 7.808199202941122 3.6221969114602954 -1.2723775051548345 0.6396449580019758 -0.163960277036466
Ni 3.1351786034675935 8.262208911788466 3.43367930317511 0.2584786572310258 0.8191426685524085 0.9015460106509894
Ni 3.280922746003405 4.214574372651247 9.073700563290526 -0.8130239572491805 -0.33756141959680575 0.07458821692953606
Ni 7.191613745608156 6.082402764809269 11.503967163603333 0.8909756913343106 -0.2780468091709405 -0.11763825404147482
Ni 0.6045869397403417 9.210935645432775 0.45917236711124015 -1.0287575102031958 0.11853634037571198 -0.49532662356615337
Ni 4.735765639404768 0.2529756874018499 1.6978499965370808 -0.1442802821090354 0.06671472771873027 -0.6851686534653878
Ni 6.0401019240360005 5.563674218237754 0.37335743371033203 -0.05932434879193008 1.2497235152007444 1.0221957978252785
Ni 7.995963508582399 9.084721236104999 11.352859361377007 -0.18652273571801425 -0.5474590825953346 -0.04790787942487233
Ni 0.2449048463347925 4.887983476536659 5.869909851222797 -1.0006509817749671 0.17776273013719707 -0.38177848043365215
Ni 8.050315380834524 8.753005503354517 2.534716720032111 -0.06415030942566372 0.7829083688107227 0.42836378439235906
P 8.551967860261696 1.61368834514071 3.635581614567128 0.08056680311047415 -0.04159222161948966 0.47015166696242255
P 1.8863983888245413 3.33125458972314 1.635289660619491 -0.513017098867381 -0.845744330300337 -0.31555123387430173
P 4.616676821191838 1.2534521396942098 8.31732495162648 0.5513085382484119 -0.9175868661639358 0.25186963655494043
P 8.543149149021719 1.8003933189389931 12.499866759086855 -0.17435061913185454 -0.4635745279655371 -0.05897185054851779
P 6.514791239117538 7.801218477719334 1.3434618461110115 -0.9585828489603233 -1.4659525197339398 0.29663999879209557
P 1.7890394545704829 3.2777809669476845 6.020779530137406 0.8640138180334862 -0.8959752014314311 -0.9132337314015626
P 6.794844172755804 4.0702064560994975 6.0521330364545625 0.6587073739500656 0.06555361753109355 0.6399095245172721
P 2.462466666692528 8.396255133459752 10.15187855356065 -0.6472657077720272 1.309214985698158 0.5887970221121731
