# total energy = -340858.8573717377 ev
CRYSTAL
PRIMVEC
9.33220217221223 0.00000000000000 0.00000000000000

0.00000000000000 9.33220217221223 0.00000000000000

0.00000000000000 0.00000000000000 13.65862119248454

PRIMCOORD
 96 1
Ni 0.4866696680707361 2.540654665022399 5.582250734630374 1.4948887431523157 2.5975963224804164 -0.9411021756770566
Ni 1.6089089531839649 4.662396114577205 5.145817243132598 -0.4467001208077016 0.16374970368755667 0.14255969987350284
Ni 8.030313157873575 2.1392953215121793 8.870523033198936 0.807286540544771 0.7581401607271072 0.7855694605826535
Ni 6.557906323307634 7.020466247517724 2.273218019498083 0.7506412812469009 0.5838785017646332 -1.1226595969699953
Ni 8.444448285918428 5.162079538333511 11.465387526404847 -1.2204507343785562 1.6228139809420954 2.136582356153204
Ni 5.604481906228914 0.9318315680968117 0.4395971079749422 -1.345362639263309 -2.799894318754817 2.050701597028984
Ni 8.295683653875637 7.018291844452298 9.90911125926681 -0.13612654265364943 0.02929360675779471 -0.9164640654134023
Ni 5.08574212599363 9.087007722257079 12.046712786116435 -0.5322990870254445 -0.5554061053565532 -0.5771172717813996
Ni 7.573371219266004 2.6099182682481445 5.178406225728208 0.6099402318486915 -0.22232817545239777 -1.1169790016454506
Ni 8.246810912014515 5.2171581945229955 1.6792317613364312 0.12034742544252178 2.1008501928589176 1.590425537309061
Ni 8.907670796470345 1.0709355046317501 6.845222425527111 -1.6033337607302967 -1.888886134249663 1.2283458208559168
Ni 7.889312917892736 8.883873681376615 -0.01098680141170438 -0.896876887310094 0.8793867009451307 1.8509083694543091
Ni 8.628460644905932 2.3746721202941448 1.1234020774821225 -1.1635504216470864 1.984974430034504 3.6684042248864435
Ni 6.796502731778752 6.876880987583568 12.474240557247958 0.12084082013917254 0.6287920744478719 -2.2463175532975184
Ni 8.537826299105818 4.667771462927789 9.065322484475395 -1.2669391077480827 -0.005760556632861047 -0.41331151804492694
Ni 2.119240419419465 1.2455596684097272 12.251264388480324 -1.537124254782759 1.4820072592039573 -4.9751872041043415
Ni 4.617890843250934 2.282469964558445 8.479244334286458 0.6432676423562277 1.3279590990748806 0.41318939064476584
Ni 9.301125764888647 1.5989608258545867 12.992435336886587 -0.1878926194823474 -0.9016221153045633 -2.8405236622404044
Ni 7.631156214034775 2.9866779272928476 11.22914843215831 0.7800791268920436 -0.07504150241687076 0.039565935218080245
Ni 0.13249953718127916 6.27031585434943 3.696077393998482 2.369518646138751 0.021763874039652843 -0.2154129363898032
Ni 6.663276216061864 0.6141708778621325 7.744629257783468 -0.2556859249772371 -0.4604146421803168 -0.18141806750159725
Ni 6.058288224965311 7.561967268425009 8.232965657130965 -0.33046028977565023 -0.1526584788704016 -2.2157664199835385
Ni 8.92657783771736 8.7166032927727 11.658288807795007 0.744007577980467 0.059937556895896776 0.6025318551997623
Ni 2.9951049056966266 5.854603584166993 3.689097840124522 -0.9810884862620071 1.538555330802331 -0.7897598445149173
P 1.8702479379230879 3.231732219546263 13.20137120774892 0.9299672421061597 -1.1458434912856263 -1.2467307511210077
P 0.5195367502858739 3.0592824588337124 7.801490364554483 -0.1743300503065643 0.48934752316458296 -0.41361773643143607
P 2.6223114325008785 0.27062732538727496 8.45566932560027 -1.0257156380530785 -0.24342124867727108 -0.8990019040728969
P 6.838199010303763 9.257115100268246 2.076110714667632 0.9272719546621837 -0.4379334303586651 0.013610134584266884
P 3.778655249814119 1.3871198405104184 1.6313034383174627 0.9069345286564123 1.2379051824095777 -0.5631584956084623
P 1.296756128568234 8.28921643789134 4.414670946112094 -0.4886852069902357 0.2676837207690616 0.6854581596813485
P 8.51634357010748 6.759313906818553 13.591939726089384 1.5295623832751013 -1.1234342703524909 0.9526878236321271
P 2.2114425751551647 6.119526134473172 7.319080846695623 4.585545004651896 0.5690576347017168 -0.39292601241003944
Ni 0.8414827876778235 8.639817934736937 9.74004442177837 0.536656849773508 0.6237120888218032 -0.5464830918353104
Ni 5.736280595040178 4.526080639999131 12.27086387911556 0.31035966237103324 -0.18007132366571568 -0.08849839925272501
Ni 2.714569581448563 0.3632270329280699 3.177418803920577 -0.38357593865370715 -0.5250508901034635 1.0741930168281757
Ni 4.683337575859686 6.489566608079646 11.385376026138534 -2.3582294463781768 1.2526987957789846 1.1167175204539477
Ni 2.110346830915809 4.409596094665831 8.85213859526378 0.7205735153272429 0.3212035470640726 -0.9792815149602554
Ni 5.169834598193467 8.759680737193348 3.267196453577316 -0.5063913660207473 -2.5691714914808204 0.25320583886786074
Ni 4.026051924768916 4.936109599165066 5.671428323698669 -3.513950601788832 -3.7680558125425105 -2.273326992006827
Ni 3.932057986249689 4.442090822021267 0.07953089186343928 -0.43221041183195885 1.6394202220402088 1.1193778408949302
Ni 7.5645242917723365 9.32437228006452 10.016959784871586 1.5529949032664288 -0.07671580479550014 -1.450034820062419
Ni 2.9533246373536386 3.2285499386651013 6.768720766432073 -0.5917656178221938 -1.3336306955383614 -0.11792878869870013
Ni 9.091879131699795 3.88682480316761 3.413890269996854 -0.7649026762619213 -1.4648405176166837 0.6378616408493079
Ni 0.41794080001944983 5.456715819799858 7.260841373689573 -3.359794455326982 -1.4444421564659897 -0.9491535852266236
Ni 0.7212961578120992 0.534796766992252 1.4015520908996146 0.3615809224398547 0.15211031967641547 0.04376017580508593
Ni 5.983957236054902 5.575496086824553 9.830601310301903 2.750338105093244 1.590229362137855 -0.19440959466525873
Ni 4.365837399499364 0.5425452943108098 7.200251119000343 -0.8232656895818465 -1.2150683870207202 -2.3709792898446778
Ni 9.02588179917319 0.8471791637771222 3.9054910736030903 -0.052621482850457764 0.41717125811064926 1.5088642314958014
Ni 1.7286691014184017 0.6892213795465527 6.080449405048871 1.9207523868306402 -0.27469409064862366 -0.8351187322656908
Ni 6.024235019876286 1.4932643060304436 10.43855974129427 -2.00527303238254 0.8272223602367496 0.07898377489407044
Ni 5.602344831971477 3.125933045500146 1.0918172398214467 -0.8510919677654954 -0.11116061673693114 -0.34671480396129967
Ni 7.435935880448226 6.609168108880125 4.430364910211358 -0.8073755007141513 -0.3917592457954479 -0.4824340838742015
Ni 3.376465340326118 8.16044138252728 5.557515733235892 -0.2949520695667114 -0.6791599853774626 -0.6676848948583274
Ni 2.285530926813638 5.078966947343416 11.903023938740105 0.1814214099357069 -0.8765137502727097 -1.6390420127651835
Ni 5.060610506014254 5.22984998923965 2.117918979616613 0.23447715211010586 0.2374969127730361 -0.8090976256115807
Ni 3.7598601949910724 7.441740510090696 1.6798738168338618 0.4281529539331336 0.5944261953734924 1.0786690503216585
P 8.698004214191602 8.127284068830019 7.788214373992782 -1.7237071543147475 -0.0167147416515196 3.0469819605400814
P 6.040939661451883 7.928284193434466 10.201869901691254 -0.16230037283553983 -0.9840707088187827 3.3409930063497626
P 6.503798216125895 0.7620414849535606 5.561640566518805 0.7489284123208522 1.0412975516517355 -0.18254498201718883
P 5.095727582130999 6.24470829206818 6.404486788908469 3.912828975127564 4.775746731883395 2.1617439430204963
P 3.7801670665377203 1.999424277973043 10.464156104933126 -0.4783596566945117 -1.6050857104243972 1.7612020659364118
P 1.1572583731089996 1.9388489548070078 2.8866945815315987 0.06794937145677976 2.1873613864782846 0.09139346141233293
P 3.579636710014571 1.6645755380992937 5.1748693211711405 -0.6978015117380498 -0.31654290836360965 0.3310441873035782
P 2.8050266154107226 7.857583431101099 12.163466098867264 0.7060678655119002 0.8225956600980155 -0.5697415481426188
Ni 2.753344880748344 6.332916265348932 -0.024395309241770507 -0.5667094461845144 1.527874196939401 1.1855647211346485
Ni 4.4303135831003715 3.982162578774483 10.26740435699878 -1.6316634609129255 0.3894514235978776 0.9219646835166572
Ni 6.255001710871467 4.576913144279734 4.642579183635428 0.8958294198821862 -1.4319283402696952 -0.3469351475022218
Ni 8.82686325937364 8.330324787690506 2.651630411516551 -0.66470678606661 -1.5419977808249767 -0.8480626940208685
Ni 0.990501255614949 8.202986891434065 -0.135345858790529 -0.7309060076015025 -2.16941765751567 -0.47172621053839403
Ni 3.950731722446767 2.4880770389682563 12.837027110241745 1.2353415354474597 -1.498570305768961 -0.9940910691692622
Ni 5.135464098236525 6.455186775920707 4.1557172722035425 -1.0868343597412702 1.3288821251097824 -0.7397608868889711
Ni 7.386792504729178 6.132684539289704 6.914799590739974 0.1367322945584484 0.8937355134676349 -0.2838330768354144
Ni 1.8068356253498006 2.031013781734717 9.326093138112867 0.2088180567811049 -0.24316465258177478 0.21216768997962818
Ni 8.439595540879708 8.113901691165545 5.783292495822987 1.1144171544555452 1.4381254702193427 -1.5312744808702017
Ni 2.869605453233703 6.577363964472506 9.441261842964515 -0.35315901692474666 0.6270228983625911 0.6922181041130013
Ni 4.724707227314782 4.842432955513756 7.992751978053675 -0.5089902370961751 -0.28199165275130145 -0.13365802650849884
Ni 2.7796056971694223 9.533497594627406 0.15396640143622148 3.0084411241524056 -2.1807927321218314 3.2673221590281734
Ni 1.9674334895254744 4.05688552016879 2.7245942328343213 -0.75689009037009 -0.6029558301110584 -1.0763211189147721
Ni 1.418242734172216 8.164332910760253 7.4680694515863575 0.7128095551111079 -1.3656846386501125 -1.3978416829986313
Ni 7.647935513226353 4.206667362229314 13.576914880873344 -0.31896128799711515 -1.3659684884391186 -1.8776866659894178
Ni 4.095091555146721 3.669757784704819 3.4116505415174445 0.18208089789657672 -0.4083122650581226 1.131231912020039
Ni 4.261839340438773 8.831827990836333 9.441972023536525 0.7060113012423518 0.4070213141608409 0.9369531865056895
Ni 7.102962913175983 3.8923867955581444 7.166855834152144 -0.35413346502287396 -1.0598609164762198 0.6579527551722282
Ni 0.6909263728515033 3.799298080632678 10.532695529283862 0.4296485646420536 -2.895187886552504 1.8986905219345944
Ni 0.936057189161298 4.769819091770892 0.3823459151604311 -1.2836942157192344 1.3220147085659877 1.020427650181262
Ni 5.9507625935496495 8.110075488346553 5.549142881603698 -0.3036326280598448 0.17321753396867587 1.4566525824892524
Ni 5.3983802251132325 2.6539196006665478 5.850793246091397 -1.6134759913706211 -0.09384449405598677 0.7891587205958087
Ni 5.031036757884047 1.5115460897436255 3.4569835791608967 0.5413956500100741 2.509130319127524 0.2300643677543909
P 0.8286883387391955 5.885502504980849 10.43382084911992 0.8840146866354452 1.326243916155987 -1.0847021438896158
P 8.586531061330982 4.944359265730892 5.332106659407501 0.1613223251929867 -0.41119292904002736 0.36707022768920006
P 7.074471700477492 3.4325332099273407 2.458183196309535 0.7970741187881434 0.886741598648305 1.3374737234335354
P 5.408580321896545 6.5071204800370195 0.2755248649955842 -2.029342414626918 -1.0561901524928519 1.0346255389481986
P 6.350852757588204 3.5576780387143585 9.348752657783097 0.8707771048992489 -0.7775468473884932 -0.7517196019127441
P 9.560840946480198 1.5323382357941455 10.752612602236702 -1.167284691878538 -1.21420038259347 0.1494296875204588
P 6.837013820650075 1.7372173984481487 12.812523547456802 2.1535295255305043 1.2293279822635281 -1.8068964826497333
P 1.5140377876769686 6.902992488772686 2.0765064000323274 0.9791498744783974 -0.4409714458540405 -1.1800620461488645
