# total energy = -340869.01342333964 ev
CRYSTAL
PRIMVEC
9.21858400298629 0.00000000000000 0.00000000000000
0.00000000000000 9.21858400298629 0.00000000000000
0.00000000000000 0.00000000000000 13.49232951712184
PRIMCOORD
 96 1
Ni 4.369719413727278 5.953435261428795 13.07934257512313 0.2205955090320072 -1.2340243592979327 -0.5853404310221403
Ni 2.1549085276209192 2.6836127541301362 1.903092766675383 1.0693536864580035 -0.7761409681799021 1.3521706633240775
Ni 2.0518631962650815 4.0273965174517645 13.406855816288324 2.5953548347444078 1.6791689626930564 0.7309237482133154
Ni 6.314186107013695 4.81915303687911 6.533714699544426 -0.735813729315765 1.1981024485903429 -0.911726550728417
Ni 8.609171017704211 3.100689147629168 10.51775621669502 -0.2957833072187551 -2.2672190793368756 -0.14919057492645918
Ni 2.819844987693974 6.824692848812191 5.775904693642286 -0.5301136493383515 0.7216626346263635 -1.094309585072393
Ni 4.083648316694323 4.990978223061026 4.352747078823071 -0.9653474213776666 -0.46569208852917215 0.9838182264883442
Ni 2.2984971911741967 0.1585430504315597 9.225542133829437 1.172103196313104 1.9562048141009796 0.5019852665332516
Ni 5.576810014287735 1.3821146353718674 13.27600723574934 0.7269953596931867 -0.06550373812976461 0.75072767031312
Ni 4.124210086059656 2.2544784528288644 11.54979789226741 -0.7420607386667414 1.5374281591764232 -0.8339262546194864
Ni 0.9561146526124621 6.5895267723327295 11.721447925354338 -1.9288711592830328 -0.24552698216636426 -0.38300926751695974
Ni 7.812279747018573 6.729114570453154 2.442260085964066 0.0520578970375039 1.4735293036399333 0.020988686436525142
Ni 4.663451154019912 0.1741547223452394 11.763084581607854 -0.614172267652168 -3.67984074885816 -2.0313707579108566
Ni 0.031124704979130082 5.370488886977392 5.017082487222802 -0.43040549741273615 -1.0197301098936051 -0.09880698026758467
Ni 2.2894353231546236 8.490159098952747 12.1632540921487 0.3087470664682747 1.069980521408725 0.24560154415804153
Ni 3.385515735829323 2.1000763903061475 5.661934418451254 1.8364633976735727 0.35860152809655665 -1.4974996984126017
Ni 6.279515012790282 7.305036383937196 7.309510162726513 2.2996802851893747 1.2157191332308417 1.2668429484898505
Ni 4.771631236634044 3.0676220870124755 3.0537324465800335 -0.5036189454819326 0.2985135616657246 0.13288952377359048
Ni 5.722777072499253 2.912270510343252 5.41030302918465 -0.7920013322509263 -0.7473281577132678 -0.9558826764203411
Ni 7.600021851646577 7.1956486668260515 5.162502883406281 0.5978007682726801 0.23692921319502422 0.865526912243903
Ni 0.1568403779766104 4.038329758012511 12.419634895864625 -2.1629058245390813 2.490329384370937 -0.34138670688016687
Ni 1.3640646480042942 7.219792138182371 2.953511689345454 -0.4280909903469466 0.9274745575912929 0.6397349466126208
Ni 2.7491107930712015 6.767030606225793 10.399118572451789 1.1887050665358432 0.1607836790806973 -0.9574366511710221
Ni 4.41398705383917 8.370695469587897 9.086814429591238 -0.7776088109746802 1.0954339284848231 0.7905206339403418
P 1.757495373680127 4.788888425782203 10.805723576445802 0.48310128514455514 -1.6519990871464838 -0.855733580302565
P 6.9759974671288285 1.517738442395225 3.633066057982737 0.06881197656739117 0.8616918547685288 0.5312220519111819
P 7.770814556426467 9.148845359109961 8.305473066306837 0.7887411734424158 -1.5039246281023388 -1.5694183389297744
P 0.3448432571265322 3.2831433611015917 1.1747370583412367 -2.984746351638627 0.06862300048503665 -0.8718523402412985
P 4.067552669123444 1.3122838619758688 9.00576556139054 0.9355143971766341 1.0431562021270293 0.416702803114663
P 0.6781771121956512 7.335245683530422 5.256112072234312 -0.1837220330444255 2.097899851981342 0.6276551326299513
P 0.5814437452680957 0.7997121573733182 10.461439887364833 0.10057564213223325 1.4271435172865423 0.6720426576063909
P 8.136580311678353 6.284723512720149 9.546052016770348 0.15185398069123526 1.8827249997442734 1.8152839353824801
Ni 3.158185455704527 4.61083147685234 8.63248666022212 -1.7163815671876117 1.1251152575993397 0.5933671579813588
Ni 1.512207292027225 2.2418674299898242 12.208710007731318 0.30282093079182687 -2.244327005230051 -0.664980608553287
Ni 4.045750718089577 2.8476390182931732 0.510827548519841 -1.158860986591217 0.4398301331607458 0.7216911738714539
Ni 0.6244862355734763 5.4524420982632575 1.655265887003569 -0.41646497607224403 -0.7283539306036101 -0.8095714799242058
Ni 6.412151998614919 8.112160282803634 10.004440572367972 2.8463595521958913 -0.05337018809102421 0.19540538291962475
Ni 5.2966664667324865 0.8957504430712951 2.228245128491835 -1.3527813003248832 -1.1016030334100124 -0.04364524749377645
Ni 6.680412791462914 2.571588522010245 1.561899146933336 0.934808372248545 0.7759324517135218 1.5837386122071886
Ni 5.6801779960817065 3.7204637649475036 12.60910813915404 1.566791957050521 0.8957985666442507 -0.44671117655129516
Ni 7.563129078692017 5.047478924070146 0.6756327830263713 -0.21714688836177443 -0.21353011754479354 -1.0401451832148472
Ni 6.929803142972083 1.0270240003302207 11.339790253236794 -0.6967609862886774 0.7901159423027554 1.1106782562384032
Ni 7.513026074941886 2.405810726897341 7.132854438556543 -0.14123738151765353 0.5653922700349876 1.1433004131487987
Ni 2.734536211851522 2.526601832350513 7.773929515942046 0.08435198118451925 -0.19319371998028662 -0.13395473181331125
Ni 5.1609320367017695 3.390069716298976 8.431693917704594 -0.20818890783753824 -1.4057457683370564 0.2836093908603825
Ni 7.9098308023421975 4.328779682420132 3.017532911138263 0.35163923784611056 -0.4096153001402623 -0.11737574440870753
Ni 3.1540555300964206 0.0814646263366918 6.916667582706478 -0.09804233418741824 -1.0380098820393993 1.2278699096607626
Ni 5.170869670196276 6.8744547649562975 5.352406634566006 -0.1800669527903415 0.45963456948118264 -1.1670057271855385
Ni 0.5751981546442292 7.7357286259254545 0.3315592776593858 0.30813642946746933 -1.5781171522553532 1.276983636468278
Ni 6.39182502101252 8.5678625430392 3.65234672630719 1.0214386079442797 -0.7790488858553163 -0.1032660444802028
Ni 4.2794326025536265 4.740656794573244 10.922782999117363 -1.0376746101871677 -0.5951764432759556 -0.4007393378068711
Ni 1.645489578728129 2.83052932648816 4.349198845861998 -1.2689108867624728 -1.3461992762319912 0.2087128986618083
Ni 6.090404981708366 7.724675543773401 12.743667199731558 1.2922143373751036 0.5006909732018603 0.7780099030678407
Ni 6.539432987166544 5.809330357174503 11.19099677718723 1.1869580019377495 -0.7357779909818232 0.022147482631316696
Ni 6.695595799223074 0.5168555805625663 5.676115366136411 1.8382978797791503 -0.5505567476840518 -0.49771852083709767
Ni 0.21679620424893994 4.572177954363967 9.053974146139632 1.700217812943556 0.2365353201907152 -1.1391118289887479
P 6.561465402799077 5.588757299082615 4.201025780512044 1.2505431828885623 -1.006089379181719 1.155833769729119
P 6.451432384811666 3.1595037132089003 10.606090531788766 -0.7676141616558134 1.135382958073935 0.09765744004417375
P 8.364288553744963 4.656592527563593 6.972903710356327 1.1874575672819871 -2.3365745871125627 -0.19420210664014295
P 4.805454221134363 7.093866281470907 11.037899144292965 -1.0767021564032746 0.0590654387035886 0.3578448524361902
P 5.985285468964528 8.024629828230037 1.6046291272429247 0.3852695243060462 0.006760972872917389 -1.0316392026263652
P 4.212146158326908 7.323704016429196 7.341230388228598 -1.0609317809428953 -0.4305865030752906 -1.4273499768703934
P 1.3215208830904286 1.7134766353347946 6.1784212556559535 -1.253207617094603 -0.5486312485265648 1.4445020631696477
P 8.2408517146991 6.7244038740564065 12.665357172821414 -1.7528824903271234 -0.593689574317784 0.4496795151509997
Ni 8.785061599406609 0.08416290585788108 4.466244440657639 -0.07963220711134672 -1.6856797672283808 0.8498928052510718
Ni 2.2897948479285435 2.6315646291672574 10.046928103919765 -0.5385237277789178 0.7128663764909722 -0.0030603840928786004
Ni 2.005936211042789 9.149048167956789 4.866669305973808 -0.4270046992613033 0.17895829310719502 -1.111273209509925
Ni 3.9050751270634465 7.412239296652981 1.3008113342542422 -0.579971196290427 0.8224339377091708 0.25488399790123195
Ni 0.0007891107858346518 1.5735016566886104 2.9235715724034703 -0.29382104128606173 3.055223117502951 -1.4955831981161791
Ni 0.4663322093844659 1.9412862818248169 8.284559786765428 -0.51243140156724 -0.10350695684641528 0.5813421084960246
Ni 2.6380913866014972 0.0988951248630488 1.9236686460443424 -0.4884658918905781 0.3333504668392517 0.2637802719495973
Ni 2.083187944515854 7.101914105256347 8.088947888425928 1.8519566082131653 -1.123963917603716 -1.3300522341584837
Ni 5.403657352017498 5.951259675617382 2.5344662063154137 -0.44275707699955363 1.2290099368024767 -0.5212901375094506
Ni 0.7529149378264605 0.7682601926640815 0.36725179098408905 0.014819324401019638 1.619123933685018 0.6293345772149033
Ni 4.928319507975535 6.013946046454713 8.937346153196776 0.5851576255873729 0.07574675601401147 0.49587246876729435
Ni 4.513658383470529 0.01997482769563696 4.7788079042365235 -1.0210326307551125 0.07346155952426058 -0.2616367432440333
Ni 6.983787170563762 4.731392117706844 8.808993043332155 0.418704406925724 -0.8151996247442606 0.79193268379652
Ni 8.580657937557172 9.025362427144364 12.127054556706929 1.4355142578487405 -1.2839338425338662 -1.0215784759562534
Ni 7.865572380814252 2.3852809404481152 13.247902538871138 1.9144015049119483 0.9299960384615662 -1.7210879715243457
Ni 0.6482323859616945 8.119986860574354 9.334722432801783 -5.155979722206798 -1.63184446657548 2.2247336564791556
Ni 5.239317656000275 1.2329302913629636 7.0639897727581555 -0.9693575709783242 0.4169660840783787 1.897391343507197
Ni 0.4414936567985677 9.034793038521803 7.0315274512483645 -0.4028270735738353 -0.5383730611336663 -0.8157701525357498
Ni 8.021643007031317 3.0273092194137035 5.057680209065526 1.0968963719629625 -0.033988698240618884 -1.3488032895137416
Ni 6.833542689400992 1.496729289580772 9.17899381604914 -1.3193425610504632 0.8670533761907583 -0.5085937729887048
Ni 7.400236700354421 0.35977736312013187 0.5762223393207038 0.37593204895520416 -2.1894097843668807 1.5058943502342002
Ni 8.965515380162605 6.585415283892516 7.618011918218497 0.22739119179760195 0.6751210394213987 -1.4127219425445732
Ni 2.0092456826796425 4.697181952680765 6.482578292533873 -0.28784348354638817 -0.6371934111376897 -0.3249501585906984
Ni 2.9940485685341307 5.16945000826849 1.947226737320049 0.7785007266613303 -0.1417624007831881 0.49754060049833665
P 1.5182731202641315 4.680192102467059 3.6313117614576864 0.5316208300114973 1.8550879547532955 -1.7933205437375115
P 3.334020725903244 0.8356609473317389 13.448195634138756 -0.8255673411318298 -0.2531227922357512 -0.30355729473721915
P 9.076156824690496 8.909659980029753 2.0977468541428244 0.21669771663949777 -2.0683000268370377 0.2429985593175557
P 5.46435250872235 4.3058991570645055 1.2674677161191494 0.0043644476162828065 0.13324767844395763 -0.6504811293855314
P 4.165647620899922 4.133493200093949 6.537141247197403 -0.9212296051228458 -0.17452545414682202 -0.03863031077768831
P 2.2283529859240114 6.2283242161344425 -0.09434022253500089 0.5305962454017249 0.5066713591550113 1.491602101981244
P 3.462251228601375 7.226411081456078 3.5161144927433523 0.9958121656254267 -0.11295730362603772 0.47311383491453995
P 3.247578064235352 1.4653031369065859 3.504012335738169 0.9127781319213828 0.06321391365432338 -0.17928508031899446
