# total energy = -340898.03666087304 ev
CRYSTAL
PRIMVEC
9.01391096223242 0.00000000000000 0.00000000000000
0.00000000000000 9.01391096223242 0.00000000000000
0.00000000000000 0.00000000000000 13.19276983331692
PRIMCOORD
 96 1
Ni 6.255663180404373 1.9945711628230198 11.317167049979657 0.8168034788962707 -0.3942516731999985 0.6736459975377689
Ni 4.533402265952777 0.31119986557015444 6.155403252215507 -0.08805077019234513 0.16833886572013587 -0.7895078764051113
Ni 2.736100543235967 1.5983286534499845 4.73497765129722 -0.0967488121869753 0.6067484643842712 1.1132056506459473
Ni 3.414343255200859 4.3439929561537465 4.8587260285164175 0.19126950637438028 0.007235341406174636 -0.40412753755281366
Ni 5.168261024742837 4.563752103962264 2.5831182501770424 -0.4362380449341132 0.1224968676853568 0.5293484890375529
Ni 7.263869114874539 6.106690274914983 2.6775254460167677 0.3201095426689454 -0.4047176057283288 -0.4878079465916051
Ni 5.0581200474224 4.559335287619927 11.305688735836123 -0.19512976066073492 -0.3424143768137329 0.505055163707827
Ni 5.76295379655034 7.7618155809630585 12.33207302442382 -1.2469778341348075 0.8261532955422869 0.5590257043870115
Ni 1.7649327686651126 6.557827501685634 0.6240366573602444 0.19921472936338594 -0.06580789963374473 -1.2982433171780028
Ni 2.6110235155497086 1.4258925378807914 0.17938043252865513 0.5045072616241569 0.20618910379869007 1.1354261526070444
Ni 0.654645194612639 0.07565916255314063 4.580107845295265 -0.13676417623764833 0.1206011933245407 0.7962498231146351
Ni 8.590356243320043 2.2194862676678975 1.3672723711070782 0.19424221584945903 0.8938404144766154 -0.17585857113594874
Ni 6.7415850893486535 0.7763942863936102 4.8671026559183215 -0.3412697216863284 -0.43395927620226554 -0.7916416349186625
Ni 0.757017082126015 7.636963901049368 2.5628270353439104 -0.08798469284110008 -1.0012953002271852 0.6092681454823314
Ni 7.526363214272892 3.8092967753148037 3.6779731073729542 0.49263082190154517 0.4719938623774839 0.3377966755360634
Ni 7.532195214626957 3.875431839608122 12.474990384568759 0.6908947573158876 -0.6941811413766432 0.4098960646054747
Ni 8.209473438125256 8.992818351215961 6.617348158158529 -0.639539285662047 0.5028735826754759 0.9501468023778282
Ni 6.831724198375937 0.6271239218444288 0.6023122306935788 -0.5041946154797445 0.011799563738089356 -1.181342712633501
Ni 1.9028095498332454 6.452031229420311 9.15440983057808 -0.19133069862961888 0.03952016958180936 -0.16305010651737079
Ni 0.12420448111087441 4.737026513245411 1.3890004033381047 -0.5981568660605182 -0.4649832353876056 0.34226730971290736
Ni 6.420536624726179 1.8941471814557234 6.864844912596922 0.18475844472873987 0.6015802899197703 1.5770699419377614
Ni 3.3314964000938825 4.327533554845364 0.4496796773776798 0.6040979141353015 -0.06204457593657057 -1.0485460056840328
Ni 5.965622569287284 5.650919897940329 4.859187540754636 -0.11378057085828146 -0.46782610415303943 -0.31374837633760805
Ni 5.220658888820397 2.98392900959558 9.321984743997433 -0.14258026869879317 -0.5349594074664271 -1.0042402417881222
P 0.1722450206580554 5.50241571581788 12.517985838183684 0.4471384938967009 0.4265866378872783 -1.2343616880326935
P 4.017211644197136 6.125790752117864 12.49339498784995 -0.8430408153262448 -0.08632658841238681 1.1071481315979579
P 2.4126904339569766 8.565261515366847 1.4576431376445618 0.3847432194889309 -0.7711432578549945 -1.2131297752371109
P 6.4812363007451514 7.781592101483644 5.842721499692944 -0.9472404273643107 -0.057438187512810754 0.018305226067091052
P 4.693958046952175 0.9454240450326625 12.456441558713125 -0.20108006470689885 -0.3197385324827719 1.1280838533093605
P 3.885247988581193 6.178522130898825 8.13429201284996 0.35314101920261765 -1.048376569985704 0.4461743302112187
P 4.637395756037554 1.0990841841914725 3.8876321680149646 1.078490358651949 -0.7783189496678272 -0.11512345803942109
P 0.28630614783008956 5.541382852650375 3.4328506170663404 0.25408489903870435 0.5725594772073882 0.9007209436465327
Ni 1.6146889017384365 1.14605567390559 2.669028933599856 -0.8712159922088801 0.9985591322429449 -1.2034961088020886
Ni 1.887458859565899 6.576242921659908 4.707576263544016 0.08397737145391988 -0.4288155272177969 -0.23237964615112883
Ni 6.005959820576993 5.6330362987093165 9.313211504515808 -0.16052425477172352 -0.05384841327902339 -1.1147758233465448
Ni 8.525221723136926 2.152539951393334 10.15615008675772 -0.08403496416473269 1.1675140342805248 -0.08590698437646495
Ni 2.279104274378543 5.175526236930437 6.898803019140771 0.26757804842913274 0.35166443465709113 0.8291789697424882
Ni 0.7608272622645984 -0.0010519234023483978 8.865316581496868 -0.2414188735352617 0.15501952290341042 0.4186840952107499
Ni 1.2124881972586978 0.9930355224208736 11.384884957027493 1.007781422172161 -0.07339908171744133 -0.3187453153315672
Ni 4.106413306490536 6.713335492579502 1.5040152022836477 0.6249541887590205 0.9892399117245478 0.15359461753142578
Ni 5.678484437480873 7.640975091401082 7.9074957047996834 -0.22027514957811095 0.5523529203525261 -0.09056505197376662
Ni 5.413159970059064 2.9995771589227167 4.834253260415509 -1.3881877048486349 -0.3387891213563198 -0.7670870855077498
Ni 0.7589226228908519 7.3925967764764025 6.848960598804134 0.47849978181680175 -0.7980673359393481 0.39581927479743445
Ni 5.189272451057097 4.626317659538101 7.110968848404829 -0.843678963130876 0.13610597382835915 0.4056090071943466
Ni 8.240751708957724 7.266293856907373 9.126282822997206 -0.4077401946047365 -0.7692848644900171 -0.3772312273826019
Ni 4.618322320567381 0.3235435151603506 10.290003959489965 -0.4966116609261641 -0.6452849298965726 -0.01628973829895904
Ni 8.226653952305856 7.1593888736010145 4.76408086542886 0.19871387846756744 -0.32116240941349206 -0.31574020995665625
Ni 7.283492398909779 5.971445555730447 6.936679472754035 0.6148451253494767 0.6148993756261798 0.39217884983136975
Ni 2.4675400818000788 5.111752817293634 2.463473005200768 -0.7484409311614723 0.10636705200302972 1.68057201368817
Ni 2.1687920327509533 5.161419466367666 11.358328172725875 0.18204593089358326 0.6377104599834243 1.2436883647502581
Ni 0.9528605215274133 3.3196611350786003 3.683289512023384 0.41278984121350193 0.49155532944917923 0.162402702741359
Ni 3.754942892571352 2.5815930964523006 2.5346477470798012 -0.3025391378853499 0.7098157625901066 0.1749334882185181
Ni 1.0306866282615699 3.428675373536197 8.339993966605672 0.12779462574918635 -0.07679885142760967 -0.5352661400735684
Ni 3.6473618659472895 2.830295912169478 7.069992510832116 -0.12459823029907573 -0.3708134967817162 -0.19791709359788495
Ni 4.080110714476374 6.896155633508639 6.017209181383598 0.1117015768420657 -0.12087681558343052 -0.34673100191121575
Ni 0.8513107026883661 7.36850259263341 11.236295142751468 -0.5270288397654408 -0.6242121683866733 0.5225728608766161
P 0.2419522978421245 5.573959126652834 7.969119306686185 -0.3737671800934015 -0.43727959882475015 0.13671352550537097
P 8.502750043256427 1.7174655138513453 7.990570611852498 -0.2889117769099024 -0.3312470473430037 -0.3610211932816427
P 1.6205659716470155 3.1459180024285116 10.520389606861709 0.9375273138416046 -0.30210590700267326 -0.8048823019786526
P 3.9771448102345084 6.214208204162726 3.7884620216542375 -0.16081401809800047 -0.3286036961828857 -0.3072522270903031
P 6.9029611362402 3.907007569500379 10.360031230511082 0.5588871219266182 0.3540159656084032 -0.06825533273297277
P 6.240312490137027 7.692741981715451 10.081215642641158 0.31476756163074177 -0.2695799093505099 0.6435664045435691
P 2.3841884476825497 8.478223191690102 5.864463052790325 0.1868415525100137 0.6212132336593496 -0.026218053156264524
P 6.88849380924132 3.8660213166256736 1.472458401604286 0.36521132010359036 -0.09991384017851825 0.3328976955725492
Ni 5.230718413387842 2.7728953275409043 0.5209247277617544 -0.0904246697411604 -0.2863512152715778 -0.6027552840644781
Ni 1.4951374014355505 1.3154180458569529 6.96359230653631 0.44851326275704045 -0.3029435724126202 -0.2067470331846891
Ni 6.875865320066597 0.5725636205413044 9.201482276094309 -0.37116239548070273 0.5901262824465577 -1.2806392309429946
Ni 2.7671444523849633 1.7026466443272599 9.18096751627079 0.0649316676763785 -0.39945250067464755 0.4464363256233538
Ni 6.35261680607412 1.912012752864931 2.697736437042865 -0.4646739316773029 0.3687501864947843 -0.7803771177484367
Ni 4.125396602851682 6.706502948115235 10.460441691012024 -0.42833575936790097 1.0657891090351967 -1.0155199284669996
Ni 8.207409252528532 7.133401768468449 0.39627405806119487 -0.37239318256401027 -0.42061550790550783 -0.269712064053
Ni 7.478030624012462 3.8754588813408297 8.20628521783896 0.7595018169613242 -0.5599746985638421 -0.024964126144505397
Ni 2.918460974709064 8.21596345397522 12.308326777541673 1.1968960869870677 -0.07485226922420012 0.16159589056934753
Ni 0.028743559086620143 4.85543324686365 10.13556952538461 -0.506002872333077 -0.0835179153189981 0.3573550572839652
Ni 8.658303103704808 2.345023004810195 5.716229287994957 -0.2812123513831157 0.7512935701189191 -0.20682622316205668
Ni 3.676359617321366 2.6738324467199197 11.549505110452932 -0.7582751436430748 0.003861796948251414 -0.6572968667557841
Ni 1.0258551720177076 3.35626662725458 12.611945042651543 -0.16031830940850456 -0.5255540549921272 0.40696629255318945
Ni 3.2377246849728 8.315558155539467 8.094885898556504 -0.2094893718165166 0.7301539599268264 -0.31090910711659997
Ni 5.625924323007063 7.723290125764797 3.700466420639623 -0.6196548880332942 0.9453108144417655 -0.2968731978488242
Ni 3.033640728224127 8.445520722935003 3.560398357731037 1.1701612420953846 -0.8471409535375475 0.7497704486061733
Ni 3.291123093160562 4.322098166571019 9.45587827793765 0.21685763925612975 0.18337210590417452 -1.1656566693568118
Ni 7.2265515237372435 6.125700613008837 11.403381502199894 0.922738071347572 -0.4650290010238765 -0.0983845480181854
Ni 0.45612822923749163 0.04148201797435584 0.5133593523410944 0.30911036334496444 0.3466592681330159 -0.35504517820386594
Ni 4.525830580794485 0.3368913144251108 1.7409179072380638 0.3592574165130006 -0.4425521600775991 -0.8254231022444818
Ni 5.907645094360935 5.447412831489432 0.2568351661336193 0.25821434782604563 0.737787308102368 0.8582370634507089
Ni 7.895149351036216 8.660592637074101 11.199012705866695 0.1929921454924418 0.5689553047958975 0.8863950139421637
Ni 0.16591455103106928 4.9457977036635015 5.693088775925473 -0.6514131542814975 -0.6896089486249285 -0.38598711919836104
Ni 7.7428232706910105 8.813351385142639 2.826432549956569 0.10273511167739727 -0.8232505200731951 -0.6120449368965202
P 8.421237246963052 1.673802129438529 3.5033529211920307 0.41064939783173143 0.17049833526529992 1.1970025306579448
P 1.8462743006513334 3.1401130438071543 1.5870504481284908 -0.2747244296659268 -0.5103747761485274 -0.46527094183135354
P 4.7750111337895085 1.1502561563862612 8.158527715094126 -0.0813029099455503 -0.04389181628694376 0.3583441606701119
P 8.361943741044906 1.510019368335955 12.361717974600714 -0.6284496035067886 0.2506869291007489 0.5762137861305238
P 6.4002823669277475 7.670144107082311 1.433182989018918 -1.57088103951823 -0.08826571441662863 0.09891650926225545
P 1.7728920519922218 3.2827581838428306 5.918237341062731 -0.1702957323361906 -0.3281105585965511 -0.1534020419046455
P 6.861902772078271 3.925657351158124 5.978013091214174 1.99002870462896 0.5004909413759122 -0.12074388954999206
P 2.429312085661608 8.450874986011224 10.14406603780152 0.0962739294330858 0.5310639290667628 0.49658903521834474
