# total energy = -381166.3763203727 ev
CRYSTAL
PRIMVEC
9.30296214203212 0.00000000000000 0.00000000000000
0.00000000000000 9.30296214203212 0.00000000000000
0.00000000000000 0.00000000000000 13.61582545268626
PRIMCOORD
 96 1
Ni 4.443597159647229 5.35610612679809 6.923020814153937 -0.23419433076236443 -1.4780071369056287 0.012886883264997161
Ni 0.9687453743202085 1.1085875037775503 12.364136480252736 -0.1457686937291038 -0.38400582710227416 1.325598569262504
Ni 7.039123644386343 1.8931900421159449 4.95418652489566 1.6750490269874123 -0.5328971256207596 -0.29806387572281573
Ni 0.9208527940475009 6.7574950663486835 9.388560727707869 0.6223092949370056 0.35294664380362445 0.4433749130892106
Ni 4.930570024773227 1.49325569237066 4.057774473431337 -0.5472323112965092 -0.7716590211491484 -0.771484443244497
Ni 3.461492731448578 3.741735168101915 11.804226530016875 0.0761668742705656 -1.346358684627991 -1.760355915886033
Ni 2.4759182983079646 2.654618901337906 13.732104527701447 0.8913667561251424 -0.8758699460411238 0.8415359486459443
Ni 6.314497304066275 6.6373007932919466 9.258175989735781 -1.002854417184189 -0.4455894042420261 0.130401210134098
Ni 0.9036692923630506 3.9046021292787167 1.4475390749824704 0.8911551543349684 0.3367592354104845 0.423063198115052
Ni 3.411889336406897 4.89412101843915 1.7958726836779257 -0.5347346930501307 -0.5367170135874821 0.2717319226965062
Ni 6.859222959218296 7.8399598519572455 3.2817678722682073 -0.548659530661339 1.0963728953593246 0.014189404126504596
Ni 6.3139484292899315 3.4922762337353226 1.4343995710145652 -0.7879927253121655 0.3967253315514716 -0.36049000336852105
Ni 6.220723443972474 8.214171510912912 0.6961890451281311 0.07355334790711848 -1.3369119373927942 -0.46438648234387114
Ni 1.6082123976463634 6.395591226530327 2.505461715718667 0.04117056070103877 -0.19743244065198254 0.40722854507564055
Ni 3.598041612247864 0.059591985674886536 1.0612977554625884 0.9517971934970575 1.7029213279176478 -0.25652281905623564
Ni 2.3623105225673404 1.3314027540857456 8.399194407129336 0.2843154157884716 -0.13883365717216736 -0.11236800678147099
Ni 4.009399999710925 5.384024316693079 13.194552386787354 0.9216731204181674 0.271813426666719 0.7013131244357341
Ni 7.987728105303468 6.9785613597424305 5.344239268074315 2.467792379610685 -1.6939936864107148 -0.5552852635079727
Ni 8.215343684164084 3.5670627477525905 2.604775489868604 0.719208002438284 -0.67638345107359 1.4092463252911471
Ni 8.665830331106761 4.942170818774911 11.966976273868559 -1.0809030818584997 -0.6866961458535077 -0.4061967613770166
Ni 6.335205698170323 1.23975927236114 0.4522356038571248 -0.7614396574139853 0.38882613130905297 -1.1061335742905143
Ni 2.452828345852328 0.96209375626792 4.927934495550552 -0.8917447082898513 -1.1440735438693974 0.3506483346877509
Ni -0.01663462690810756 8.116099682231479 3.2401854913309784 0.3579322699436739 -1.0246064641493 -0.7084121973743606
Ni 8.733053536765274 1.7537665459625933 6.659092052208981 -0.03285021376080149 0.3587491094180144 0.4454343667214006
P 5.487417439816342 9.262271153745036 2.4503723638022525 -2.4723995393653935 -1.0091032263073783 -0.08465768535039615
Ni 4.500308017894432 7.086057089244798 2.711809792440351 1.7565046604607426 -0.8840311416956774 -0.60462267629052
P 3.4254716613808007 1.3969142146790534 10.381372865526359 0.15705635082778113 -0.1507229524105856 0.6383948876449586
Ni 6.761913973446356 6.217365074578242 12.763053085921207 -0.12168825574113235 0.5016217125462458 -0.5026941196748181
P 1.6069658006967038 0.6878647544523441 2.2426493092510187 0.3456866198071014 -0.1170309594747791 -0.16414231114028505
P 4.4373641748989305 2.731814882593695 7.67096595980249 0.5004058378612737 0.21485063612842997 0.9728745829926471
P 0.7904941043698832 3.3910879126797404 12.676142951420386 1.5105771004218502 1.3460771488318302 -1.4065680071280355
Ni 5.820649549792526 6.349402018656744 5.082174819776462 0.2601629869119842 -0.5246593110919996 0.01199008248234064
Ni 6.903839966461338 3.400586237199162 8.093001357109763 -0.43683788330164125 -1.1825218205432666 -0.2994342737077811
Ni 5.416593987743515 8.835181457014256 9.065402795618153 -1.6346994195257716 0.36260602127025937 0.03773968064261887
Ni 8.249829765450565 6.930995313446835 10.644117360369137 -0.0066203335299950495 0.4958274744619719 0.2273639381040923
Ni 7.63484813892668 8.002380270943124 7.806987362638749 -0.7643763714448062 0.35023952928510643 -0.1817219718952612
Ni 8.981972899317833 1.149436811284681 3.2307494966590395 0.2272263840849635 1.5565440540702677 -1.283210076993964
Ni 8.06724982713698 2.5060691991575683 11.241975024167361 1.17767349131203 -0.3663706305190142 -1.4818882171275898
Ni 9.318591287575181 5.3440960024547275 4.170350550651683 0.4863213347437496 0.5033224972874364 -1.2234720377033834
Ni 3.425164663624541 2.465712948652915 2.56471786445413 -1.5521333265970816 -0.7979575498343613 -0.7864243523837811
Ni 6.621532272174983 0.9831556629397815 7.584164669960703 0.9853675732533352 0.43601101652497165 -0.18955792299991223
Ni 7.1560525776719555 4.477394821722703 4.5779263536391355 0.6804961876903828 0.13851201216669046 -0.3489035840825023
Ni 5.041563668104491 4.222465745517305 9.580285477973062 0.9305074308803458 0.28840295559428397 0.2286767433782449
Ni 1.341896495572433 5.966529301789637 13.40418161831609 -0.9741531925947544 -0.42397208308256656 0.44139722053754954
Ni 6.71693415067319 1.5519201727031506 2.4894355025456916 2.47707920422925 0.8872321651314784 3.2159103802151
Ni 6.26184253738662 3.3891156846698314 12.404370861951117 -0.535974993215135 1.0063495748216411 -0.28193868802617894
Ni 3.7151938166289376 5.843962773343624 4.476053334557472 -2.4234089683993036 0.14177062831330423 0.6428374967973445
Ni 4.433177841859028 8.230377271258487 5.072657889332419 -1.1679074130642015 -0.020406845791126147 0.02308002174791509
Ni 0.12749895906324912 6.668642473317345 7.135005555739792 -0.07126686586578694 -0.41969248187060626 0.8817649713693201
Ni 5.713098002516293 5.656349932419847 1.2571167394408038 0.14677913727148914 0.7043513970414257 0.36284693363647186
Ni 3.5678441965867056 2.7875582327605652 5.660411605764782 -1.000157072857684 1.7990677306339338 -1.1447273754033125
Ni 1.5178899365699043 5.120080670008427 11.15337640200711 -0.29050277554610615 -1.2858241175780436 -0.7680026553434838
Ni 0.2581990674576765 0.6113599832962543 9.810774741891512 0.517649969653702 0.07074107526930397 2.299566642429646
Ni 8.80940294845077 4.484306922719696 6.4867295574014525 -2.8455162303589896 -2.079790029754508 1.12331677093802
Ni 8.129384312411434 4.90433567105651 0.6575529123547618 0.28658647121083547 1.9626911931562714 -0.23533564345565924
Ni 3.0276862959293322 8.675347261550804 12.15400302816675 2.053347005071631 1.8530670676685246 1.4992148813314956
P 4.827493202368535 7.433922758936015 12.583269618078278 -0.5444472923522043 -0.6564126643786179 1.6859954986965866
Ni 4.8710217630212025 0.9050768305606888 6.238049280980281 -1.063356074113672 -0.43630772182978406 1.3801260108864233
P 6.622890504672373 5.120908633654095 10.779812229228282 1.6183135219685807 -0.44656333811952126 0.8889838577152624
Ni 0.46013847034022826 3.0999796160472806 4.683707547187605 0.21145986527932611 -0.7436810478789838 -0.916013608139545
P 4.006209083638289 5.930415202098751 9.119131124148483 -1.2843429050468267 2.4105575663579324 -0.3700982158822465
P 2.8187324594643672 8.934490579683038 6.914729083846238 -0.036450015296917875 0.539351880107168 -0.8006680067869888
P 6.856311132014986 0.9772017670608101 12.10896180584233 0.08548635189927858 -0.14749056151621695 -1.7367079374497896
Ni 3.0241697761758144 7.167904551656033 0.7882353451207984 1.9870269416881587 -0.8893571818942813 -0.10032393113274335
Ni 2.671931714198477 6.904667930107008 7.512287192258052 -0.3087876898982231 -0.4093625606995078 0.3380195901801469
Ni 6.872256409415857 5.521354646326479 7.213827694807525 -0.4332784480851571 1.22738859914897 -0.8800873265565811
Ni 5.681514445470811 3.4058703197917493 5.871306970464031 0.39763447362930227 0.6048173087998293 1.3163901632903585
Ni 0.4443429706325633 8.975451522737897 7.945038671851243 1.0915453920636944 -0.6108948824524769 -2.5090706695341822
Ni 9.03550214445471 0.11009962865318618 5.1134364943259865 0.1904030446090269 -0.9602049579447787 1.8994181441292382
Ni 7.754856352737198 5.995591756048866 2.6387880503734595 0.38395543348031297 -0.3902908887800375 -0.4679713714816521
Ni -0.15797267270504095 2.8636843733506017 8.782820663943625 0.879607044486053 -1.3400311997480663 -0.20568619602034255
Ni 3.1351355106201453 8.635446856199385 3.273094720505762 -2.4521490166464734 1.242206380888093 -0.2470938124328519
Ni 5.134686320836528 7.556414863683541 7.208041252250149 0.2211860914281545 0.19432371981967175 -0.22364663715350516
Ni 3.2559716880763325 6.521776607315278 11.348804661568268 -0.04498890600586446 -0.16415773775925277 -1.9061140680921755
Ni 8.345240946911082 4.931351473607342 9.163423458006875 -0.42449658812746893 1.4880413812131792 0.580257360072278
Ni 1.5641721740665966 2.9112690255708187 6.724489086365866 -0.5451576881556676 -0.47427006000617034 1.3847303424276538
Ni 2.7726920989877577 3.816530985081494 9.055069065083213 0.3010867217095395 -0.34949030982390783 -0.15246436058172452
Ni 1.409194124929432 8.665932663692182 0.35510058348039897 -1.1373300544979765 -0.07711998221245428 0.1809681244483722
Ni 1.3171971306370123 2.484477023633986 10.6987443550587 1.5045080114096347 1.645436860547934 -1.44714978520514
Ni 6.724190461275686 8.633911867418087 5.417301012879142 -1.2869520605348996 2.9747889833155994 1.3671743358217616
Ni 5.668146088630059 2.0897709387074226 9.847550282202702 -1.1162997161902388 -1.1947677277901552 0.3623697368897372
Ni 8.442475508984534 2.787809412742959 0.014137711823863912 -1.6255954003419748 -1.839882450657451 1.2334610305952953
Ni 8.671579561814893 0.418709588281129 0.8518452802177596 -0.6302786862957275 0.0947351241910562 1.1275932868261869
Ni 1.4690028696261623 7.471683482955928 5.38106969586314 0.5519968225646881 1.1742531527765712 -0.8103402397694301
Ni 7.296825003360387 0.4756586023634909 9.682717605089609 2.0187260725636524 -0.05102405645635083 1.1642078527254272
Ni 4.825753548416397 3.9768210256981784 3.6371959200219495 1.4272034239902 0.05727260846922394 0.126560239121453
Ni 4.567847524271514 1.3753871598916474 12.485086153849116 -0.46325931071796345 0.10259730054795234 -1.1021424508532502
Ni 1.4040030719599537 5.097241897535184 5.878700964908728 4.8023041706569485 0.9327401768656066 -0.29208297554903245
P 1.0496904493872874 4.679352830529876 8.1775150485193 -0.6748456742728248 0.7910420536614505 -0.3228572806174117
Ni 8.584624773094978 8.796239256780858 12.252649779918995 -0.6183073728664641 -1.0914219791119524 -0.32799871560903515
P 4.610724877562419 3.22572775760362 0.2211500200545456 -1.4197158573639033 0.24809551422448886 0.013453040181112316
Ni 6.159770434911504 8.27988763667706 11.24167546878095 0.8337840726146672 0.5207643469129677 0.12587735412181547
P 8.850801130734245 7.3428188490254405 0.48701100727147345 -0.5013959696886848 -0.37075359007805825 0.2076929420377262
P 2.504785390358665 4.1097231452715945 3.812757703568196 -0.886699175446144 0.11327971996246297 0.12707625952592308
P 1.2647842409774417 8.325360516452704 11.290038778946588 -2.4552741925390165 -0.8564799715502862 -2.014072632952041
Ni 2.930619187177476 8.495037246041079 9.624713635081191 -0.1597182139306604 0.1459908370422389 -0.27439275735812096
