# total energy = -340861.56092803285 ev
CRYSTAL
PRIMVEC
9.38332351140079 0.00000000000000 0.00000000000000

0.00000000000000 9.38332351140079 0.00000000000000

0.00000000000000 0.00000000000000 13.73344243981129

PRIMCOORD
 96 1
Ni 2.836259718762847 4.492960582986183 8.709955739557357 0.44043151419017046 1.126745079893279 1.6205863771631572
Ni 0.4389612655854273 2.583379145292266 11.349303595668916 0.9083998003480291 0.9286824618564651 1.656936119436785
Ni 7.9966842658560005 2.0642749120626 5.598396810361557 1.5573426387121632 2.0174549191607127 -1.3225410133831028
Ni 0.6502305518162074 4.922313325112096 7.103595468603495 -2.7240244068993795 -2.3893698765367235 -1.403003429705229
Ni 0.7823336743989748 6.470833850502693 9.02409440341181 -0.07563851257092134 0.902293173229659 1.0417714059643608
Ni 4.94220597133687 3.165830196759405 10.3502498623071 -4.936923018416821 0.22048572292702026 1.9025842005620461
Ni 3.9012481910360957 8.162919228364528 10.569160927351774 -0.015302948905657515 -0.7255300880015699 -0.581352907129302
Ni 1.5833514229313306 5.675465801164647 3.3760513657339084 -0.42777037378273425 -0.4906359029587034 0.15217434014513145
Ni 3.6995536482995406 3.8319335789311904 12.427433412771313 0.15593997783515082 -0.1265044461828531 1.7419997819763484
Ni 9.382150775469293 5.770715919951284 1.3562693596165942 -0.7935452796992785 -1.4871764621097225 0.24967777110994419
Ni 6.123209857724785 2.1935677291999336 12.734444503950135 -0.4778199821409577 0.8777239685307271 -1.3244102053813578
Ni 4.446137797768438 5.828367060708362 4.053686852721848 -0.5353425018374588 -0.45966413716753735 0.4956832355746238
Ni 7.780013938508721 8.487263195065237 9.302896408578588 1.535996311825903 0.8856133985811329 -2.2215102644458513
Ni 8.073026987405413 1.2109648389330565 10.87565030573338 -2.726170506708105 -1.041062295712478 0.761081245633302
Ni 6.5772970410999925 5.557104556127247 3.084874633283531 2.242543688077383 0.5902334974483835 0.8626606464397013
Ni 3.5456108398261326 1.7516038000334084 0.4110242959604194 0.8670862863112228 -0.3331540345577294 0.21355557146609025
Ni 4.354556558544956 3.2365992240364037 7.592766899259092 1.0712730149679033 -1.463307368801609 -0.13051665266603973
Ni 1.2847365297911535 7.151162351389929 13.571470757146438 -0.3613731773044228 0.6654176960907057 -1.7467406390954432
Ni 7.050742021249589 4.22876372114434 11.289562788725869 1.8890193173934176 0.5412578388806292 -1.141111633027596
Ni 2.384846782639555 0.20352522918865512 11.933222198961317 1.4029124126533195 0.15807605034154712 -0.32744052911272
Ni 2.52978160036967 5.550695746046341 0.9908226818201321 -1.2123959823948796 0.8509276742734893 1.0795547953607214
Ni 0.5053961356495854 3.543640341851037 9.352625209143412 -0.28618203668356523 0.8553404586292043 -0.4174617927678746
Ni 0.21091271993052485 9.181281965217542 12.674347130706831 -1.3270556134240048 -0.7759980148441346 -1.7706845515055507
Ni 3.2596728169924023 3.8932348326040405 3.223334957666904 0.1076736866295952 -0.20332206666354016 0.7435787179731645
P 0.7181451720264254 1.4357892745677552 4.830683292605421 0.7371998110300142 -0.7101852301143834 -0.9400539369182004
P 8.644893649749182 8.099788226571947 7.026894304089089 -1.2311020434448152 -0.6477552458139361 -0.307485940367664
P 5.941210911415494 4.71313089007018 12.929088417265325 -0.8156616519823436 -1.2261716960227336 2.494180125575595
P 4.008124247875795 1.7216522308119577 11.84373437925328 0.608037872619656 -1.456263317470634 0.13765634903461454
P 3.3846962218503625 3.7950008168836873 1.1763394361811532 0.923295486512939 -2.462463254088288 -1.0246959385393126
P 8.874344063963509 4.718995467377012 3.38565050586973 -0.25510536988341875 -1.3692875255100223 -0.792966524377673
P 1.7805232036488567 9.333348108952764 0.6663905118767283 0.2597598379362946 -1.7941216994825682 1.7380410544389164
P 4.245531720580032 6.1144364500737645 9.497622895142257 1.0189333250239225 0.9617974992428789 0.20485701525082783
Ni 0.6086511678769555 0.8367428768208363 9.915270879296104 2.185151009090527 -1.7412917001657302 -1.8532375318081182
Ni 1.0229324154904968 4.216030550895747 13.256699657275217 0.4385312118436641 0.30528944693697746 -0.2573905663731696
Ni 6.66609143318727 1.6001475723380965 1.1599702280023247 0.5914951377696265 2.124018917665897 -0.12701429593973612
Ni 8.67251815469528 7.561504479718018 11.195475263744537 2.130697358127337 -2.0388752938180175 0.5224862147000808
Ni 9.01631375140729 2.2020877871112985 2.968717530981132 -1.1211367325675659 -0.7523641774752785 1.9007651450754361
Ni 7.0072033993236715 6.141441655656264 0.6389649333928761 -0.3670848829772194 -0.7724133828166697 -0.02957102878889746
Ni 7.212360388502179 0.13456061505742206 5.965079271888114 -0.9325170051112068 -1.6242872230535124 -1.141761350796453
Ni 0.9589287645946588 3.2361769744703124 1.6493180651433113 3.1638349996760997 1.702611509986713 0.04001819226415043
Ni 5.802544153910921 0.27884047679391005 9.663276091581945 0.30695320779264557 0.958492346129046 0.8259872022780678
Ni 8.899876087726533 0.5368621733147523 1.1602901993401855 0.4744865468923506 0.29533233572426554 0.6697435771595691
Ni 1.3603004354742179 8.214827775022757 7.392986554555487 0.7795494796408188 1.0334232911099814 1.1287453981527593
Ni 6.1962121160402255 7.699204754882426 6.972702794776858 1.1799260347916323 0.5661065224931927 -0.15099986022105608
Ni 3.064321401070917 2.4145356187976597 5.0059769158051735 -0.8916125535873612 -1.1515395132291395 0.49690168136275714
Ni 2.6290196317249523 9.240800387389115 5.548393078412587 -0.2755317560585706 1.3028934143555047 -0.2618719991832909
Ni 4.903105661516762 6.760525202812795 1.8277288284731907 -1.1899307114128281 -0.09013079264982543 -0.6774643428425945
Ni 1.295330302238214 7.108167962238086 5.35432623950439 0.5661597443286314 -0.6475261605222654 -0.4804072832521597
Ni 8.907664246390004 8.302430485001285 4.068765853893173 -0.15135030158193935 0.2628001674245151 0.7314683078628758
Ni 5.46719354852075 2.62294862129692 5.038346567541777 -0.2665866310501409 0.6040506058371339 0.6457402722664363
Ni 6.042175474329908 7.870684995334184 3.901986658610572 0.5011907956564142 -1.5158807720229506 0.48307634544389055
Ni 8.400504984218893 3.561600023395478 0.6915518943539588 -2.279445446199739 -0.20591116754695507 -0.42825039874294635
Ni 7.657805530758039 8.294351443303395 13.701594936762788 0.1484020175868928 -0.5775530737672376 -1.3865105742565282
Ni 1.774255143423315 2.7665040904444687 7.5757793300490315 -0.6955960194462988 -0.575764357297931 -1.0847245124871192
Ni 6.3217046870827325 1.9978597469781925 7.663109923640524 0.9176292893660971 -0.3354682845132029 0.6206337070067957
Ni 1.223482192736758 1.5861664200386099 13.394515347321022 0.18191840417678348 4.34342910504961 0.7918527224882039
P 8.367869784421837 1.847041585293864 13.002947373033747 0.2936912005764168 -0.26093868873574416 0.5410500937451972
P 1.5455741617516439 8.089063087593212 10.62509773487052 -0.11659747148178629 -0.3143968085548844 -0.3715855990610504
P 4.87899051963107 1.3092176213007916 2.3100607544904683 0.4154745871345167 0.3327125761449367 0.10691983918270617
P 8.681939011680976 3.196354148726002 7.6662552137417235 -1.2319499932674074 -0.8926535932573658 -1.8356573568325094
P 7.872186327124733 7.518181674236992 2.3414282672568807 -0.2907372601544154 0.5218994889586754 -0.5904607829678411
P 2.176405630169221 6.036104463901875 7.409275066150574 3.2619729789011176 4.28657661483694 -1.2976547916643846
P 2.3715412296458154 0.8297194590381746 7.688324791062792 0.08159935814004657 -2.0831409485046124 -0.2811835550277093
P 8.304072566647198 5.626372251613697 9.769819978762989 -1.1057065140554247 -0.21477735968833334 -0.17993788341164493
Ni 5.212211110543399 6.510093676825547 12.243638498307577 -0.7426374371058178 1.5245363908154195 -0.10137885475981896
Ni 8.469209680283887 5.990614110648243 5.051284294246832 -0.4672429779560598 0.02370505692642369 0.5100055657345668
Ni 2.0326249612530907 1.4591725172055543 2.769774178750758 -0.03195881229478367 -0.5257211766976108 0.3986932539111198
Ni 7.944634969342408 5.798753291139785 7.462286153342487 -0.6712111628440312 1.347356529764886 1.1089322200815739
Ni 0.8314975988776059 7.706157797737406 2.1165156283794873 0.8445657366112036 1.9464559622443316 0.5984872528167435
Ni 3.8123224324171456 7.254735478290422 6.036837301482137 -0.23650780938688948 -0.9206009703999113 0.005248135772816767
Ni 6.847114513832704 3.951758622464375 6.369941539180699 0.11223559496866477 1.443598320408456 0.19069923569320704
Ni 6.03322378352876 4.465617577750811 8.897774223219763 2.5540531477821435 -0.9056492341860855 1.5313037914462402
Ni 0.6420267119132268 5.13528662292515 11.136105098087281 -1.1921431456831146 0.44116710680461446 0.033944475266244764
Ni 5.05513427195722 9.073805375661623 12.657139053390033 0.012645713788468543 0.29542746654123314 0.053219007225140606
Ni 3.6430472730327566 8.973028479221027 2.0408991760837534 -1.0104111464855243 -0.7351233881169598 -0.0876429932309652
Ni 6.376052897900602 6.776063986844976 9.948780604861156 -0.7312495069838504 -0.5894164008637268 0.20435565013437706
Ni 5.698267277733608 4.146612722230241 1.527639815181168 -1.413941159663655 -0.48192731944111195 -2.134658142547298
Ni 3.010095173461029 4.371502841130776 6.262079295021082 -0.24331043413101966 1.7855892365315247 -1.6676643044875665
Ni 5.305903597597342 5.758254866089728 7.492582090543395 -2.623942673684429 0.33992220651949845 -1.889294425431675
Ni 6.060867055122242 8.848446090576541 1.408282061167792 -1.9823020254086634 -2.0478849535157955 -0.44290491543132754
Ni 5.087910221609641 0.531818636830877 4.328039285794385 -0.9465261749061055 -0.2770469071515164 0.5118451900464668
Ni 3.5431617923427994 1.3132806004589643 9.45612045445727 -0.4599245899177757 0.03831432219916627 0.5455428394092282
Ni 2.94870946987496 5.793432946607027 11.243418417810979 -0.00844478833324352 0.58176479785574 -0.13402518003993047
Ni 4.3331531972059425 8.654126840261057 8.049225248530998 -2.472298752121471 -1.3677962856764767 2.206235340564652
Ni 0.5788628684877271 3.578246039623189 5.098718872169224 0.38557085759654885 0.7876785365058564 -0.6459698717787392
Ni 6.8596694009311685 3.175438720218918 3.2405289599981653 0.5977488319888221 -0.4298745646099306 0.4690316944253664
Ni 8.747462761014745 0.9101392347312958 7.563803394022297 1.181067090374611 0.0734661875099509 1.2243806655605818
Ni 7.225872374617119 0.3328358746410015 3.028581259464531 1.412510854975032 1.4258389395425057 2.1426149355005295
P 2.4682832968993105 3.5404406284724295 10.61540194650068 -1.2120347424007192 0.19328885079725422 0.7963390403943318
P 6.137256693290108 6.040843042365796 5.4627927697097025 0.21658895897577535 -0.1898047489033957 -0.34361353932815664
P 3.4485685062145275 7.0597312453455014 13.63379291643686 2.1799272987977423 0.8457607853605692 -0.9270040457127776
P 2.9945845393999204 7.350360930024697 3.5413742691796775 -0.4219082585750024 0.6501731112268093 0.7721817264218378
P 6.866462927283402 8.484119781628776 11.45231747647743 -2.143110644190025 0.8418917893234661 0.3568858309570305
P 5.124326900854143 0.43172109302550515 6.703045776879261 1.3043175483965408 1.3407948173869682 -2.8464855362507944
P 6.692064473163765 2.577364434806379 9.914927449649015 3.336453209497879 -2.6640292572926705 -1.6379161266908566
P 8.712350363763282 5.825345630479882 12.891706194013025 0.646109482680397 -0.05665502948988307 0.4843045614240369
