# total energy = -340890.74083429255 ev
CRYSTAL
PRIMVEC
9.09041962319881 0.00000000000000 0.00000000000000
0.00000000000000 9.09041962319881 0.00000000000000
0.00000000000000 0.00000000000000 13.30474799224788
PRIMCOORD
 96 1
Ni 6.80336074087789 1.8842166694264704 11.472803719550114 -1.3127060295705522 0.0008204390187663289 0.044718168842981056
Ni 4.505975421869452 0.2676364901439458 6.342466480700549 -0.16250091888212015 0.006861503006523667 -1.004969920865295
Ni 2.626685759727165 1.4021062795433061 4.864162488136056 -0.2371217888218045 0.14578129213459406 0.5139493808736633
Ni 3.245534237375438 4.6398772987993855 4.770084829308115 -0.2800216735091242 -0.5195469295660987 0.5296040566917847
Ni 5.200992523197012 4.595770584144663 2.422235865398037 -1.3238836434539265 -0.3801214044462034 0.2178014912266378
Ni 7.176340646542192 6.06398239315399 2.490582183232233 0.41449988192607323 0.4928383099266609 0.1736340526808042
Ni 5.259934802220346 4.523265399460811 11.419863844419304 -0.06653809293154993 -0.12775914452556061 -0.7191624939123292
Ni 5.705638062632744 7.708530156588764 12.21459648265165 -0.2498081260402214 1.0685918685913145 1.5531301432927123
Ni 2.031772356210359 6.585536112568653 0.41084695648163544 0.6756694557257009 0.21661441289707212 -0.0732350453357513
Ni 2.9489047637772945 1.5401715685325679 0.4601606633363199 -0.5089398434742138 1.229078071036251 -0.5426768307153428
Ni 0.2599996288534613 -0.08604990950568554 4.812114383142843 0.14099106983480236 0.38227418912314814 0.4120480779514711
Ni 8.780390591801618 2.556362275685755 1.6521173556221165 0.10551138887095377 -0.21647120245098847 -1.228756426030774
Ni 6.770035263564575 0.38625919024130395 5.112535470649165 -0.5455148143847702 0.519285448374596 -1.1203664300604448
Ni 0.6339940253164987 7.39727419826691 2.2693504657530474 1.017136895245132 -0.7992580138133396 0.7871997970972249
Ni 7.796707224220832 3.8300754724212966 3.789471296339631 -0.09568077593377715 -0.23370813515456526 -0.023196492721121342
Ni 7.669195912089387 3.8826453674848267 12.606021758205872 1.167126311923803 0.17400866241140353 0.4619534474223464
Ni 7.7891167240689985 8.706421849603462 7.199238503826565 -0.100039310012789 0.46467727411141263 -0.1776460020536747
Ni 6.999768341213813 1.0085002123885758 0.6683821726510706 0.9178416624872192 -1.1561613282718668 -1.5474032681112642
Ni 1.940731806485085 6.563282766015735 9.226802904922812 -0.19206629124406274 0.1645719424785359 -0.45207552618700203
Ni 9.189959435323557 4.912689873717527 1.3540243245096677 0.5187522015789453 0.3131187131734091 0.37350569890189866
Ni 6.364002593167263 1.766377563476523 7.0898607602015575 1.2523732941187657 1.1196457498443362 -0.32121614546956295
Ni 3.8567104010977866 4.220308993999583 0.209133278374905 -2.084983658140306 0.48047207505182415 0.21648585773900783
Ni 5.7295822271835535 5.328258394006182 4.647521432425344 0.49851504859646406 0.9725408538023123 0.9562426308629209
Ni 5.671367181707702 2.8902533781729542 9.473339622728531 -0.5396025626653933 -0.7350755655981599 -0.042534788038417065
P 0.38303300041629146 5.700120178091232 12.59509871032271 0.8343047210048276 -1.2949726168465312 0.25161355468007635
P 4.052536214595724 6.192184577155541 12.598292174638084 -0.8437584102185598 0.2089450692772724 -0.28057086114437485
P 2.5082466861005455 8.810434427731927 1.403677104005865 -0.5116320455943963 -2.3005395478658763 0.5570829788383438
P 5.983732171189465 7.423363701782789 5.910567931103208 0.17870555366644061 0.7268711754104966 -0.43847901844949
P 4.862247136780378 0.7955853195667698 12.581713976881321 1.231315445007202 1.2908619371122672 0.003518811786535875
P 4.106606028850934 6.093353538052878 8.11117300961288 -0.44145249925551716 0.2263465525831715 0.621356186995117
P 4.739217401385285 1.0191087317624545 3.9653336399172816 0.9348932186528673 0.024140087581313266 0.030897975130437107
P -0.010687606022167175 5.62495150053973 3.703922268939773 0.45124737385875185 0.8253724515122043 -0.520013327679556
Ni 1.2158799488721175 0.8637652827269793 2.751927194148534 0.8808445164375799 -0.0417490589123281 -0.08296178570521195
Ni 1.770868230632218 6.633097186573909 4.6350011978635255 -0.6299513848632957 0.09276411650761443 -0.47340951177808793
Ni 6.232455134847299 5.706901630921492 9.285888812571772 -0.9903665691298233 0.9136253104130266 0.5062247585358959
Ni 9.011787216190719 2.7888042982993593 10.510843727074517 0.09396764989741237 -0.1994078192107985 -1.0725608805413915
Ni 2.2199622174597464 5.418526258087257 7.076196950886325 0.5828194643724994 -1.0107852419954915 0.09769060727495434
Ni 0.42632248637203046 9.491670453334724 9.234333408306977 0.48724898876434153 -0.7928816779733506 1.6435267880094147
Ni 1.461321271146944 1.139365889257776 11.524639108730689 0.24970528191376998 -0.36923458233037054 -0.11141052796420811
Ni 4.369173701168938 6.800160913268974 1.421292518609723 -0.012195513624927384 1.4826814024528463 0.3543869757945768
Ni 5.587444430328398 7.7864532312013495 8.02675392133742 -0.6253380544610004 0.5210803354914897 0.7810504896663775
Ni 4.876982706536211 2.9977566773293285 4.98800308893659 1.1142024673415778 -1.0057235112018679 1.0212246921612607
Ni 0.5438997882448846 7.321732813522324 6.919333583736615 0.501420138058401 0.6259841726854316 -0.45452218795528165
Ni 5.230163678870343 4.288359873205116 7.304731911266089 -0.42266416290442044 0.062065144761860855 -0.6194186036527719
Ni 8.426509657178036 7.3595307771526475 9.349659013308443 -0.09709025468679407 -0.5800681268796074 -0.5988011845127365
Ni 4.619551121147292 0.3679965377801881 10.305404795120815 0.4709731344224534 -0.4686113190584961 0.10460584633754888
Ni 7.838950402910132 7.197294063128988 4.853544878342833 0.5549972999539087 -0.7019942096631587 -0.36824213651011417
Ni 7.223147215741935 5.98855918386087 7.043027828785718 0.00686458833031721 0.1490159970218079 -0.5168015056104778
Ni 2.535699752517952 4.983031538597623 2.446290933064839 -0.5215768155119339 1.1070820542467128 -0.2975578826206746
Ni 2.577397506046642 5.464751040449016 11.16189865141492 -1.1066477949227713 -2.175761340345511 1.5290149954120635
Ni 1.1920630501921157 3.198673125659633 3.575198294867904 -0.19205317861794022 0.47363088376027457 0.3878642816164159
Ni 3.6873013462120956 2.718698984322194 3.014603042456725 -0.5507596077234773 0.01186255576554086 -1.5853162411069535
Ni 1.088223190031177 3.3811996556580124 7.809008379676472 -0.8613177592585617 -0.029844079944626022 1.8894342934436494
Ni 3.2633514592887214 2.655956910013274 7.106678035987056 1.6259692387416256 -0.21335836785361964 0.15243325023347298
Ni 3.7289263763860374 6.800624524655493 6.025148121718507 1.6894981125332063 1.303465999029523 -0.5454986164348541
Ni 0.803053099057465 7.515195117990949 11.533433180403602 0.9702584855260388 0.5284542593580577 -0.49400224832777495
P 0.17615050987084005 5.505203406527644 7.982595391292442 0.059749866365122896 0.4977100361966655 2.25572213444087
P 8.446772201894726 1.8946251995747918 8.192265004408615 -0.3586004996552921 0.12726137895353565 -0.855318090031701
P 2.1799916436063236 3.259442578971011 10.416978784059214 -1.26780196996901 1.2202496741113436 0.8615514725359227
P 3.918025279569776 6.275707350083731 3.5163114674025673 -0.04819635719956861 0.36583918349557637 0.6364184806448782
P 7.229428695508302 4.117978143449668 10.409075573481964 -0.26647298829041205 0.24339425209407764 1.7618319862109273
P 6.457497556115285 7.755491262917348 10.173621894939854 -0.19750237465796955 0.15788141783223777 0.07632191179119115
P 2.20726290163686 8.524058947153264 5.834397489340051 0.10460353234470371 -0.03452657302195989 -0.006978231090046046
P 7.030748490336502 4.068798974801267 1.5275313404354145 0.6147865041973992 -0.6379328604068755 -0.37735001234865334
Ni 5.624633335862708 2.861645828498922 0.2334701490413556 -0.08321426803565023 -0.6454967887970625 -0.07811731312871707
Ni 1.0993225920496053 0.9326224821282804 7.1092188081935666 0.5745258569051396 0.2308590957415443 -1.3221494343716391
Ni 7.085136469268734 0.6489023130398586 9.366356295558607 -0.9270585530997969 -0.12765167241341885 -0.06914210621330029
Ni 2.706126934370117 1.5727698122984024 9.27226500110165 -0.14440575194330613 -0.0913132429937008 -0.3488693884104572
Ni 6.325886464859917 2.1251309628682282 2.606094141830241 0.051370641162492174 0.3169794816803961 1.203702825496256
Ni 4.194592197676788 6.946543935957549 10.52573201587532 0.48535074330036415 0.7275962265019792 -1.773925427040351
Ni 8.14887006958849 7.091145236454796 0.2950377411710944 0.4099603421845069 1.5251388002861088 1.994653347885165
Ni 7.4820423586451605 3.990703182221155 8.310025932752207 2.357135184872734 -1.3413116091223867 -1.1451876028691825
Ni 3.095460504433397 8.60751808714605 12.490789784523644 0.2785129501740816 -1.246305490658131 -0.5931187894159785
Ni 0.13488182413516384 5.330494637164685 10.499814321285033 0.6922409869311369 -1.5992405644975296 -1.535508316445891
Ni 8.667787567393535 2.614495507387515 5.998165939023094 -0.7187824848650911 -1.4592396264901386 -0.8760139278181559
Ni 3.8569012999040004 2.4826480652292156 11.586878482849913 0.1683478645812004 0.29857706791380834 -0.3439007315512722
Ni 1.2652591067460752 3.46277707884669 12.596602265682126 -0.14112091054444728 0.4002634266117171 -0.0637831558942321
Ni 2.876881371318648 8.512868640941402 8.033699001715863 0.7347444075109862 -0.41779680750979015 -0.5702524263407662
Ni 5.590162465712109 7.732265241494674 3.6000914991981774 0.3314709904283517 0.2989516776444077 -0.07011681142174375
Ni 3.284823029778097 8.531649447305098 3.692812867460067 -0.7222501316987174 -0.9970465522531602 -0.7568085863998772
Ni 3.7336897561220375 4.231381124759981 9.165853461308432 -1.0295003019064914 0.22107090600652896 0.3785538028487674
Ni 7.508295489709224 6.211828973356871 11.71066545017632 -1.6010182252232426 -0.5390531179198266 -2.585058595024722
Ni 0.39161799244430434 9.273045868123257 0.5551364555953999 0.1956432099620437 -0.3275076349052295 -0.6799778532930676
Ni 4.79845057382761 0.5359065825161344 1.5213716722882507 -0.49212611435098474 -1.177979966808855 0.841957352454079
Ni 5.939452738567218 5.5287566830466846 0.14556852111539667 1.3122154630873788 0.20927211359938797 0.9615915538796602
Ni 7.950817103351392 8.78900830933927 11.624916433550906 -0.1681264925990137 0.4231159057298584 0.09498220720485577
Ni 0.14682208994286697 4.912944405459144 5.954592831983837 -0.5244284260281161 0.12506848506727491 -2.215846638402171
Ni 7.852649664860805 8.634289372112693 2.641378604512083 -0.17875800417093085 0.7120737053863478 0.7038950262302974
P 8.358140613295483 1.5016281905160767 3.514262486882539 -0.3484173884747032 0.349666687500772 1.4203745739938247
P 2.0774426229921636 3.2535338063977286 1.3421695086437935 -0.8222128228373001 0.07904265315646387 0.8613051608530714
P 4.7116097978390385 1.3044933566326733 8.293913164465831 -0.7869707118055543 -0.7863505617230522 0.1986002357078386
P 8.666751259588374 1.7458877582762469 12.540948900377275 0.28269304969370024 -0.08604376706464537 0.44578249408943876
P 6.424126626705252 8.027822045610284 1.2029251922656783 -1.0957992822440419 -1.0321829909449771 0.43370653676151116
P 1.792239806508815 3.236743801870262 5.749500245007123 -0.8291144350531398 0.601493386632919 -0.6427122840733899
P 6.801769917492775 3.7879504691834613 5.877731518350574 0.06270329256649201 0.31816604578932944 -0.068799635272217
P 2.3377104192162586 8.546521373351084 10.14421802453133 -0.025616672126839754 0.1249108764434881 1.3885905967140084
