# total energy = -340854.53978894366 ev
CRYSTAL
PRIMVEC
9.39840905324370 0.00000000000000 0.00000000000000
0.00000000000000 9.39840905324370 0.00000000000000
0.00000000000000 0.00000000000000 13.75552165516335
PRIMCOORD
 96 1
Ni 3.3145274844390484 9.46363390369172 6.375876869337698 0.04603560210282394 0.1584429467626626 0.3569377672408885
Ni 4.9032909230585 1.0180450553973333 8.174700386936882 0.7478734886937766 0.8058914599694573 -0.3378794650578568
Ni 5.798028853089441 5.912858613586893 11.419049951779066 -2.1029317579782947 1.3938104503520512 -0.9081956547570229
Ni 6.85696638580912 1.071127269122134 1.9650033650527623 0.4335651260876404 0.7284418623317261 -2.3475912499380405
Ni 1.9464480862714464 4.60831245989161 5.147371362739549 1.1324606422208174 0.5870193613864599 0.41790685072509315
Ni 4.450475580059049 6.675116571120527 13.511567170042277 -1.6414184834171601 0.3285291341912084 -0.1660331004050947
Ni 1.8409227506301462 7.883686172663251 5.070574143722292 -1.6575560124089712 1.7570217093064773 3.105089663316091
Ni 3.0657609980577187 2.5607186965475175 6.659502054498293 -0.05400447924091344 -0.9165237150067441 -0.40679737107549296
Ni 2.3251663731437144 5.373925649418826 12.132039569938028 0.38498747428925306 1.4005241149268008 0.6821635480904769
Ni 9.198288623930337 0.6452900590010543 8.43740283410276 1.3693456324414675 -0.4127924123166633 0.8821840611846098
Ni 4.867727343608315 4.735689096331452 4.147867488510113 0.699565288506692 0.39988136068195 0.32148405441896893
Ni 4.254105223549491 4.530954155860301 6.680121223884064 -0.14294433690643124 -0.17167487207190435 -0.020170304300287843
Ni 1.3229106447750043 3.5065557760157353 11.426615670980283 0.606936154915045 0.21232067061772467 -0.23647052839105082
Ni 2.214227553949743 4.395692254315093 9.355144309868974 0.7294823877810985 0.23306047426823734 -0.42194656801210556
Ni 7.025564443884403 8.58959127015901 9.573609385968766 -0.6673329108355476 3.9992802620432735 0.041960917812818056
Ni 3.9389201811495407 7.923939558177294 4.529115827070539 1.3143242819002654 1.7285559977666165 -1.6593244171633035
Ni 4.910236347269305 9.090385490825797 2.406267123617165 -2.2902024276059265 -0.8779296567836299 -1.796782534144183
Ni 8.168129019402112 8.17389024408577 11.470179176124969 -0.1679182332429495 -1.278301069728121 -0.23875906731491134
Ni 8.96276449575337 3.7068076754198303 8.682058456411282 -1.2846318970421553 2.830288614775958 0.894755212981401
Ni 8.336257157030115 5.418088773054243 1.5933160279127045 -1.7264785464122974 0.959612061555786 0.11277501241190255
Ni 7.254998403064615 2.373258031718396 -0.04796853941749476 -2.635598512755803 0.8616026374888323 1.5094766682688197
Ni 8.706028158586163 7.160046277487124 13.423559528834698 -1.8790897169845315 -1.6249811637967433 2.5057403196093686
Ni 5.806327648188414 0.3415438201288054 13.684598457617204 0.012153090422766168 -1.0837428653001402 -0.8894517984906165
Ni 8.058806726546786 0.07842972265110872 6.45735073664629 -2.806982078839533 2.0425406584847465 -0.0275038618472236
P -0.4809137662241387 0.47872769630339 2.073355742104902 1.1203399476978835 -0.27524739204893245 0.10623772551401704
P 7.355570777191579 1.7290722857684513 8.10365311451255 -0.5547913545906896 -1.4012085425883352 1.912071828337507
P 6.962999235533482 3.7835174892338923 4.7158189801386445 0.2286060380413095 -0.14549924211780102 -0.5232014955995505
P 9.21964180905476 6.379414430464826 3.4150415884305496 -1.2214056420926578 -0.03935536186917093 0.2033511201292627
P 5.088308001561763 1.6939410331297642 5.572981131364145 -0.6877510694805833 -0.387406625253707 1.3250856341818276
P 6.515747750629832 6.938225029552856 13.405855745903853 0.5292322751746626 0.18056317570046967 -0.00799458816970236
P 4.115535082055429 0.6807070232716881 10.81243152606651 0.5840294255202007 0.7254221016687958 -1.194903224926755
P 0.5719777700208298 5.811976091964724 8.816188789519437 -0.8110737755013451 0.22156198671033459 0.15408261291143788
Ni 8.962125403945068 2.717474759351333 12.525544373604422 0.9125004527799639 0.7391916446490624 -0.500498654685396
Ni 2.575164051096919 0.5236793464493442 3.8829225809698116 2.152563562072809 -1.556182556965791 2.971020774522419
Ni 3.5335762017343617 8.404113669617413 9.395832841717201 0.005206741011920066 -0.5183210275787977 1.5155910086966735
Ni 0.9984587711546837 8.269425071017888 10.474568122880806 0.2720731080860088 0.058196662945390096 -0.14915020860682698
Ni 1.8893339551089792 6.375391911436104 3.7234541373442935 -0.022429275537793628 -2.5078041441169323 -1.3307492602255082
Ni 7.987782950144817 7.869955097193715 2.201474852851446 -0.06438556536492136 0.16140177228067043 0.351924116076381
Ni 7.583275429125798 5.691403903601504 7.358020942403699 0.6792103789994237 0.12019521613537366 1.460630079079762
Ni 2.2888697177957718 9.182358320767529 1.7146391491506792 -1.4101351556540038 0.8042649801096277 -0.1064009905647587
Ni 0.3152621093533039 4.744843146644475 6.866081902645465 2.3508496089743383 1.1676081366562279 0.4740929109983577
Ni 0.17914965179851874 4.090290955627522 3.0323223988701358 0.6314742492657254 -0.4176140020750227 0.7250883724784608
Ni 5.716817201390432 2.156737486429452 10.04133812428311 0.2707003961081983 0.5121830330018599 0.35832307762418936
Ni 5.650154286739226 8.490954968274842 11.47590186733195 -0.6563566143297018 -0.10242092287108813 0.462966462067893
Ni 8.471143122217498 2.1581660445891844 10.154876543391437 -1.1928635687889069 -0.12851839128908832 0.6518129608230775
Ni 9.561471340815512 9.356811587615926 4.306551164988673 -1.5971163190656754 -0.2873457179743632 -2.8598984672225907
Ni 8.124520401894486 9.327122013756748 -0.018701893960867733 0.3800195887610165 0.787901965370572 0.6488101694410117
Ni 8.752851031953188 2.6762533377158912 6.760013338967109 1.4412089942406727 -1.7872113455159802 -3.0799807840636055
Ni 7.397450087453214 6.476086464879361 9.578808585797477 1.3001803862997157 -1.5437970388172444 0.48545872963313813
Ni 8.954634872015419 7.565784990078019 6.196752593243333 1.2751226720001396 -1.652657032445457 0.23423881084705464
Ni 5.217000415253989 4.558839235201924 0.9543924511314059 -0.7252007296866092 -1.2609150130411897 -1.4649204789249997
Ni 7.282357171505283 4.828451392624614 12.726099841617462 1.2926941052249994 -0.7535049759479411 2.189282257650081
Ni 8.331520358921528 5.389761968492177 5.341750196393533 0.8744548108611521 -0.47810408904027984 -2.248633860135521
Ni 3.226417400573962 7.243269188700494 2.1947211561831312 2.882079374195004 -0.9015835487571442 -1.1354204961800896
Ni 0.8919945344597174 1.2892831375676146 13.951537707535763 0.15598651480237008 -1.0883130011693256 -0.03309601122302042
Ni 2.675332293639222 0.8373954175310954 8.619732907488475 -2.7598249615377566 1.9495284305220681 -0.4259775435483696
P 7.227658431441838 4.554816716173202 10.61256402158829 0.2583434172047422 -1.6813757405363885 -0.9626356788734582
P 3.801712808952592 9.140065480512288 0.3498012622284177 1.359450999035575 -0.12496281272734606 1.66984639974055
P 4.284847419210578 6.466951211384229 9.759624575502052 -0.3199262230135458 -0.6181921874448385 1.7425140026086055
P 1.0555353086813684 2.5203055380813977 9.42161079777322 2.0940149151046388 -0.941001131322818 -0.7193229307495934
P 6.855970154460885 7.758565154370355 7.732253368686227 0.9130797223222017 -1.473892857626939 -1.505650095433878
P 9.338005371315763 0.5553360073008397 11.697640409267498 2.125422739991959 0.18860610060960423 0.6848986876334527
P 4.234659915441025 3.405005967358428 8.65714703366005 -0.39374439454627674 -0.6617158217590863 0.3309822237173913
P 4.971354200642602 3.247253673206378 13.01403043791604 0.4495357904842838 0.09458240066327582 -0.9286953173722716
Ni 3.140421958721638 1.6731705493599676 12.931937215457932 0.7686040363729085 1.456793478942491 0.4738450566536097
Ni 5.654064024860599 6.404649158483786 1.9571077616975563 -0.17418581141921616 2.0538211164945728 -0.5160705409817241
Ni 3.2889732105159366 4.718574593641496 2.3685353312232276 0.43172961554079836 0.4343536834272068 0.9696241943761494
Ni 6.552749286648696 3.215402465289708 6.942865963890199 -2.647698895563763 1.509211587532891 -1.3535104651814236
Ni 6.88928751417307 5.822022991127581 3.673563623297422 0.6812490066960074 1.2103627540149349 0.26525891337765284
Ni 3.4515750836839216 2.951786492774316 3.9398562626805234 -4.96350128312598 0.9606595289836939 3.6597565765137747
Ni 1.9025669149043969 1.402496371726423 10.996122489067549 0.15757674210762537 -2.6556626304955295 -0.02216676590502634
Ni 4.699063496670412 2.029858965663728 1.0026936942255753 -0.3701907755960528 0.25740007945486637 -0.5406826831034495
Ni 5.62522970621547 8.967980612718183 6.548770000301125 -0.006525974043975857 -0.13744243325159555 -1.9018671198903634
Ni 0.4184566395760928 4.94725668010606 13.766388111466368 0.6024187266606658 0.714923259020001 -2.2566808988097136
Ni 9.241981827118474 5.390701809386738 11.039865503823096 0.33503402518926173 0.7361050353039388 -0.3417816283257404
Ni 4.173448077978272 7.015630325628893 7.6599410704178155 -0.4891981420709124 0.28477204370991605 -1.2362776741084838
Ni 8.206841065849076 2.0846986818613575 3.5691726756158566 0.6887818247379428 0.18297255647291072 1.4573938315306514
Ni 1.3987840001929073 1.7215911522477463 2.7018874981150405 -2.7127645177148443 2.721631481187171 -1.3700997369986727
Ni 3.984803213622005 4.151935119901773 11.261136944834048 0.9622885799466847 -0.9070491998574056 -0.848231615498565
Ni 2.129989614570248 3.412675069058045 0.8824410517665058 2.847413961602335 -0.8702389730075916 -0.8730766995667029
Ni 3.068965855508172 8.894080923178858 12.278797605305506 -1.3598063254924646 -2.6110254514021287 -2.143005743181045
Ni 1.069473149147707 7.001025198127418 1.575433675211894 -1.896038429023728 0.10320613777654483 -0.8475147919371985
Ni 5.808818226559 6.3434373210210335 6.079294097763793 0.27014940870073473 0.7548463204671838 -1.1363100978738947
Ni 5.5222325425805385 5.193993110155137 8.561780438248059 0.7928474823013055 -0.7094974600187394 0.4179220202337448
Ni 0.8731911376822371 0.30124814177450604 6.266657958980773 2.1540758849522774 1.562552722158193 1.8703808763566239
Ni 6.815237450090615 3.6821086567107697 2.320226569401902 -0.006605935352291849 -0.8129488810368709 0.9703140213543224
Ni 6.226962838958099 0.471114045216552 3.893898982777389 1.2677168664543714 1.9448292252741861 4.421406550166353
Ni 7.379828070680196 0.9806957782474823 11.707448588843137 -3.6069337762857883 -0.13501942563239971 0.5211476983943154
P 4.809616981097613 2.129867435253955 3.02500385782419 4.920008502049669 -2.651538838135143 -1.594460626610383
P 3.6403515257654275 6.160873227252575 5.412687507433202 -1.125325830948249 -1.8494994049219242 0.8597848675538031
P 1.3784740384614458 8.304283769797154 7.918723441212481 0.5175388979971345 0.428389752534288 0.25493464863350934
P 6.023618863010898 7.935612382087741 4.481728109325884 1.4159293937382775 -2.144991406152506 -0.5415051790047448
P 2.4960764398196176 5.585267671378739 0.6177423825405793 0.8743712500084102 1.0451449504222838 -0.5330933007919658
P 1.3310308701040108 2.6597591300163472 5.0561579242406225 -1.1108682607620224 -2.062887083351583 -0.2684437388635377
P 0.9964193164134866 6.993713235967733 12.430410858734284 1.834428626631731 0.7625151498663513 -1.9075060633436953
P 9.579422301901626 3.1323299286194684 0.974239071301849 -3.593534472160747 -0.6146252960291866 1.2357673101309685
