# total energy = -340862.902249934 ev
CRYSTAL
PRIMVEC
9.34038035015732 0.00000000000000 0.00000000000000

0.00000000000000 9.34038035015732 0.00000000000000

0.00000000000000 0.00000000000000 13.67059078257033

PRIMCOORD
 96 1
Ni 0.7602602652053021 1.1846311097207847 12.794675415842924 -0.16098911022328402 -0.20028405116816475 0.20496371603202118
Ni 4.275241569490879 5.23396623810035 5.336260216507812 -1.592679109229928 -0.8551417123548369 0.7896240902680014
Ni 5.602416224973664 3.4183550687238244 5.020442339326803 0.5565250494523447 -1.2806168623454914 -0.7366202843774604
Ni 4.872540217311368 3.3146488247951496 8.356066856456513 0.5285897564946574 1.2524789664586946 -1.4513669086102812
Ni 0.8729276701197617 4.087135647985018 9.714991333101361 -0.948440875430315 -0.36250780512949826 1.557790781993175
Ni 7.170105676562312 2.0571720880906907 8.671938907844023 0.31571347048377885 -0.12052791688444403 -0.6699616067076463
Ni 0.08336476342539913 4.920129455608818 7.413411378341044 -0.36613537457975653 -1.3535539168248496 0.7269215690324577
Ni 0.4358922037774856 2.435205305286516 6.649949230723893 2.3538187189049915 -0.5302936265596415 1.2011540909324732
Ni 5.692952532494213 3.5839226522489693 0.3320449201042984 0.4697531459724233 0.04340407801724783 -0.38403385212673213
Ni 2.2177892699872492 4.887064508882032 11.66827317176888 -0.5177111619089406 -0.8552216736631529 -0.28262208724644877
Ni 8.918736977866017 6.746780954655135 10.534680702838823 -0.7427042857880112 -1.3036048386002324 -0.36026837427601827
Ni 1.5393320565992337 6.319925568944927 4.34646850854581 1.5109092869502883 -0.0064318716682727935 -1.6203148686693256
Ni 6.006751953464018 -0.023243536703279 7.679413270529781 -0.8799268897193168 0.35544369919386526 -1.5334673747564622
Ni 7.22863250034481 7.487417080574286 2.7212264348536483 -2.0916610701604816 -0.23029653836985503 0.45913834657105446
Ni 3.1903003401133114 6.526488082183029 13.489961192654004 -0.2604401518327708 1.213485873024949 -0.15861495356415262
Ni 6.904652064704893 4.234396085864823 11.299769010689062 -0.738740930264889 -0.48604468404359524 0.5658717807745673
Ni 7.031046092701184 0.6537705879081015 5.4080036786005925 -0.5280140864968454 0.5668418579973206 -0.5022290071129415
Ni 2.1857891266296305 5.867029202592269 7.13517358778731 0.6819432045495546 2.7750903723372593 -0.7471304398801649
Ni 8.223056102962692 2.628476457170884 13.566940872016572 -0.28095935483204515 0.3896450276659225 0.3409300789587225
Ni 8.66699504448174 8.126906226802936 4.357350051748269 -0.7326273611679834 1.4744844684643508 -0.9984737716179901
Ni 2.4804407677152804 1.9486181867181738 4.44206730226012 -0.7016769355330561 -0.6073423892145283 -0.09602478953675721
Ni 5.46193690328698 6.120657892823669 12.891093360921058 1.3442400956230915 0.11899785339316281 0.6446550096220575
Ni 0.3142589676870254 7.926414960845176 13.362947897435118 0.6793425337019139 3.3775738907975894 -1.7401989813221834
Ni 8.003547822446814 3.5912548508875366 6.230631532021742 -2.832182232254245 0.6060349832570143 -0.6320002969725245
P 1.939464613895504 3.8431835918804405 8.001109983154247 -0.7159169903918381 -1.812586333945659 -4.056295245975736
P 5.771084814802 2.110580383396839 6.715199260340838 0.42537770518084156 -0.9371195368802248 0.12670293534690438
P 5.728894316393838 2.8767624497955824 10.139422890089646 0.3075083089651671 -0.17010881313636508 2.03512816807076
P 4.199930082073343 4.508554932284211 12.16578666736575 0.9991715690159632 -1.83660969344345 1.7048403993172319
P 1.5242380018222599 6.877041900149982 11.758075325387528 -0.6353707561066542 1.3357109751061575 1.8939216397910414
P 8.000745708317426 0.43841410649393536 0.03400272092208836 -0.2691613337558526 -0.1982521083398005 0.06301825270374954
P 7.575188635487169 5.48508236599573 12.822713369821587 0.0408352888488071 1.0442622907070145 -0.11100352233377657
P 3.4828317148410575 0.7345228469268673 8.172142623269743 -1.2146582960664951 -1.4650143241903866 -1.458978916629584
Ni 8.576187865928683 0.5721095098733706 7.09431222551452 -0.18398917066288312 -1.2132305624810331 0.06375590220072246
Ni 1.6367802456389402 4.206104073538429 5.614101974931259 -0.4696302472413138 -0.4265138756678138 -0.761262765516489
Ni 7.466429245745164 8.31027657543013 11.933879031827328 -0.39573674238595713 0.8139464690634499 -1.2374022746312303
Ni 6.146147791020674 1.3682256274783302 12.246114873112937 1.0123453873937598 0.7864495491947617 -0.880526985197161
Ni 4.739075521328585 1.025527069454096 3.366943746753887 0.6751529211005985 -0.8431331179297351 1.4091949032279214
Ni 7.896721891454088 4.411891335200733 9.247498754248715 -0.5625154627078247 0.20142896340588537 -0.5550204398823603
Ni 9.295154309247227 4.404129479062327 12.07329168206876 -0.365694430387596 -0.5086431381694013 0.23950365879041982
Ni 1.6802690569270522 0.26327076495062607 1.2718730650632146 0.2536529537076083 -0.2398867531614514 0.8924224510831662
Ni 0.17043485576789322 8.945898804160224 11.116446298002067 0.7162792588272632 0.4508424251108493 -1.1749956873695506
Ni 8.579074043481954 2.1013147260089937 10.952713165193627 -1.3029988295851171 1.2330769077829988 0.4451111790540269
Ni 4.025685285127524 6.236226419900088 10.903840558624918 0.3019711811970219 1.6835642635472747 -0.28680861452397055
Ni 0.644431141514849 2.2726920261624044 2.246529620574346 2.1496893258488075 -0.07540557062450885 -0.3507974586711055
Ni 4.296584338776389 8.628101700365823 1.5856379266254246 -2.2533055545795775 0.7519828828764598 1.571926964284241
Ni 2.4510559308784248 0.40673153607098084 10.564249545170174 0.8604849789446213 -1.6113255206865216 -0.697011925957219
Ni 6.082707927131314 1.2321829864965104 1.2560187033191335 0.5951165365722977 -0.7572269048842184 -1.3186388501152195
Ni 3.0391823251153807 8.92604115536329 3.852577212480194 -1.6732443696785053 -1.2347671510012284 -1.476411767394051
Ni 3.2152298154844394 2.3457151203742734 2.0354687801205325 0.3964679641250269 0.36264561625894315 -0.30705296659530346
Ni 8.147987465436369 5.283208723734139 1.1245743316236405 -0.6127784726284349 -0.6161386473499195 0.9780401863539865
Ni 5.009274046445102 0.8653628960084554 9.601075119323236 0.433126495888325 -0.656510880519379 2.0972035972452656
Ni 7.634070393726057 8.098623554856973 8.651078102188768 0.14251701956102553 0.39645793682269787 0.9016977057375051
Ni 5.181697469206819 4.976844245587645 2.446638864972465 0.8427016868192713 -1.0844879709962807 0.2434094216027292
Ni 6.360901817897021 6.778556928882402 10.471317430069 0.05711859938986292 -0.3285551023331374 -0.09929780386107415
Ni 0.8605591383526402 5.9361947196860125 0.20361562321202756 1.3068840235721362 -1.942685696568622 0.036693755876607774
Ni 8.173860319231059 0.8690317974418684 2.7375225965921297 -1.6495087166244626 -1.7668461515960667 -1.4044656160730522
P 5.147782547860785 6.091674692345357 8.807784466798743 0.14393986805048115 -1.0631131048649305 -0.1467292578701602
P 7.461721694007791 0.41682568520308194 10.258261484355062 -0.14643306678598006 -0.7297256141401561 -0.5831819899182408
P 6.422156032765457 5.147212784654475 6.8289931151353125 -0.3995052082894539 -0.6152469887735855 -0.4612044850714637
P 2.320524114351069 6.528683071584383 1.9527204818035988 0.07380454468597612 0.6852270175071489 -0.037310049304368
P 8.732153538370456 4.572181603782196 4.280453501771542 0.13311398107957076 0.07696288780929972 0.19853210147406453
P 1.310857010869313 2.155806505445172 10.783225424001467 0.5621393103153287 0.8713316918511381 1.8432868483533094
P 5.438978248186856 6.954277505936365 1.4334158786605145 1.2344251942807773 -1.4953749387601147 -0.7242463361931398
P 0.7930412643669771 3.724766248772475 0.6923005912252387 -1.4211937274610105 0.08976749577313572 -1.13471318570042
Ni 9.380637470954445 7.540675929793532 1.9514361794942956 1.6015422160475126 0.05413226306802935 1.0050941051479851
Ni 2.648137957978761 8.769430996671757 12.88835943156882 0.47503984829265933 -0.0008500067051211167 -0.980656540930911
Ni 6.756859225140503 7.176475816016456 6.296961309616544 3.5122012231978936 1.3246261780469057 -0.5356929431983419
Ni 2.9240060940170753 2.4514108653348137 9.319870823944521 -0.4526964476004526 0.18381227876538667 -0.7662378501335773
Ni 5.526805845382327 8.767058540042207 13.32380890131386 -0.9366973617411417 -0.9278774494566665 -1.0462322699491917
Ni 7.567884457989896 7.4495978802079685 0.28917444200073805 -1.8937470618863903 -0.6419687210391459 1.8915266571963036
Ni 1.133763397891949 8.674308562359442 5.6827687157099716 -0.6281760381304279 1.7941039588707555 0.17045282673934514
Ni 6.616062330519153 5.58068115971004 4.432757745084247 1.423828079760064 -0.07112391253001944 0.11182704667633644
Ni 4.569893210576528 6.801991943384523 3.76944689260362 -0.3033662617723356 2.1339361767796086 -0.9700175731598262
Ni 0.8521135663666628 4.987959298300886 2.4341582486401676 -0.21664578035563978 -0.8313798340485489 1.6457266238742108
Ni 3.8654136973069235 2.1937471307570946 11.426358252636367 0.7528971671606131 1.0380265942099478 1.5331426444271918
Ni 2.39832014296333 2.8434639935580135 13.370411795437768 0.6865192539560112 -0.41803309189031235 -0.8776154679773208
Ni 3.7888692796724563 7.6794459618612905 8.537284247394293 -0.3507326668714411 1.3560576570833096 0.8346266231206206
Ni 8.081894933504522 3.3373459492431974 2.4908496876679163 -2.289919349147869 0.9435676064984136 0.4199871302928896
Ni 3.267274415247618 2.636387759396191 6.594310452570752 0.3667992334160005 -0.16640205370873923 0.5269457931333312
Ni 3.1149888526957756 5.023592849646279 9.096192063566072 2.6501301307130745 0.49493324478247663 1.3175373895209244
Ni 8.888782377822851 2.103322907801722 4.503721285411015 0.5082456456206667 0.6343579985714236 0.9765690011250987
Ni 3.3372805665801786 0.1957874503725588 6.0157159165639325 1.2680511098653386 1.3255296636977818 2.012220924455283
Ni 0.5736254536173699 1.5050528604163789 8.86369691809852 -0.40633405828582925 0.17699422740228873 0.04151483141433495
Ni 1.3714573991075585 8.693334917297992 8.20007129479736 -0.05280223140269616 -0.22811470022718777 -0.33501191370207467
Ni 4.686545221782978 7.332572253784266 6.488349440805963 -1.055080207258125 0.15343598046637447 0.19620988109879114
Ni 9.302794740440028 6.633201928610581 5.813910459079491 -1.7575428719172699 -1.2461347694082214 1.9803886104360344
Ni 3.582521595184275 4.573199705249207 0.8476862260422287 -0.649808785908855 -0.24350815196412254 0.1929337814506806
Ni 1.8803213250045405 6.830115828863153 9.74940036057221 -0.900945400952513 0.5474817083031539 -1.1015654953038578
P 0.7857333507175314 0.48751181623104045 3.5916602233982546 0.9337562768349467 -1.123500347703736 0.19390411578374994
P 3.760698692291669 1.0119554966874236 0.2462768767939269 0.15011102985819952 0.5256669264209075 -0.03814771471431495
P 2.795099503684765 3.9631234169987066 3.8304171599069456 0.903326756700496 0.4997072691323523 -0.7335524440854141
P 2.841530534808735 7.517100809584941 5.604149799581713 0.08924581894171082 -1.521754200084592 -0.7177946670305251
P 9.22444762938232 6.827154928266434 8.20564936999093 1.3308407914980498 0.5473284705547413 0.5377184582688029
P 5.842081046460279 8.49296507628584 4.44831414869257 0.255563797577076 -0.46903709374200514 -0.2780262403456502
P 5.782041081047909 2.6821836446508334 2.6986152419055682 0.5960907275601088 2.8929687674139988 0.2383070673791573
P 4.548531760530156 8.462450053416797 11.185537092052359 -0.06782415873282513 0.12625427784525997 0.4951615587431989
