# total energy = -340887.12565718143 ev
CRYSTAL
PRIMVEC
9.10724319431161 0.00000000000000 0.00000000000000
0.00000000000000 9.10724319431161 0.00000000000000
0.00000000000000 0.00000000000000 13.32937098912851
PRIMCOORD
 96 1
Ni 6.432901054426835 2.5324783675339892 11.264704173575966 0.08783171220300356 -0.7268218102297999 -0.5487400061902872
Ni 4.885079579654961 0.5046705820205556 6.2544072892172125 0.3997144960867826 0.14353003420657218 -0.30405480319892797
Ni 3.200057489911841 1.6667165314230268 5.049591905494928 -0.8722958555366203 0.7349074154514117 -0.9744375566043928
Ni 4.010593004802383 4.975997185978092 4.987183612487828 -0.7323509675781451 -0.7516427259282217 0.09083424647475324
Ni 3.547480593789911 3.1474631619026177 2.782865619278263 -3.4633584906635773 -4.241958461906933 1.0779108319993953
Ni 4.918912987196825 4.482111401053384 2.3757736810710446 5.430231583111681 3.2596952386105342 -1.2160178954181833
Ni 5.529152907990942 3.1641749527072798 0.1635797441623665 1.9887259266571364 -0.5784197926429071 0.6510634842515626
Ni 5.466285609939398 8.191008768806148 12.232869670812697 0.4135899685172942 -0.7225617494018652 0.9799780268066478
Ni 2.219735644791698 6.5899372445329885 0.353621493426655 -0.3043209123761211 0.7391445934612109 -0.35232058018385126
Ni 0.7207972965288298 0.25459297653642265 -0.2730998049256076 -0.6622092164557369 0.05397748265771995 0.8445971040697713
Ni 8.253812316157076 9.375360177630297 6.730638683692416 0.12628718796572444 -0.7287275118929449 0.35284277123590846
Ni 8.92648238734136 2.4771791883700054 1.5947255973888605 0.6211641255889689 0.6831619074480041 -1.4643383811692847
Ni 6.945775440892534 0.9832270556197005 4.793441590414856 0.37519182835507 1.3567186877060764 0.834877562789162
Ni 1.3716691817234923 7.64461972830167 2.7558608224967998 -0.09873164694495899 -0.37381628816378204 -1.468680203077748
Ni 7.77237613233862 3.8951404859845598 3.561207941081392 0.48040394081805 0.028871431618711568 0.18072309831710165
Ni 7.914776983031644 4.035519528743723 12.314125403095137 0.13157003363121858 0.38604651168138676 1.479246922850001
Ni 8.284594797312257 7.7140078123020634 9.108812123279552 -0.3206119362266607 -1.1244436854536117 -0.8418905037718857
Ni 6.952860875903993 0.9415978481166424 -0.11861910718991037 0.3685000181571912 -0.22168874209618591 1.1070162340057836
Ni 1.7028540714300568 7.067193203839542 9.082340100210391 0.9050761352914348 -0.6503417755941896 -1.8801734369670133
Ni 0.567934955864516 5.095138138188768 1.3881205053799186 -0.6400010557898139 -1.0540566510896172 -0.03405246159901877
Ni 6.589955459018879 2.2273766216228212 6.882340761605496 0.19219973149813352 0.6830436367025849 -0.2390264620436851
Ni 3.5949566512638644 4.120726893740138 0.2349859931994431 -1.4440675467353903 2.2598197015490116 -0.002576502477924595
Ni 6.386508758863374 5.920573102537853 4.441945727491639 -0.7308759256945154 0.07362945256069256 0.19143637096954771
Ni 5.824273115634039 3.361146403128662 8.968560581921624 0.28810470762757484 -1.2621404008078587 1.3098932427121053
P 0.32763944002795137 5.695669738003174 12.543377476136207 -0.0941918500930765 1.3268447829647794 -0.35864240863682106
P 4.0370313310726464 6.088711021794352 12.546030416006179 -0.18112367618963 1.8958440536247352 0.978221192016541
P 2.3703694431072915 8.811731126230328 1.0734406720631575 0.9174400561734263 -1.4470631390286046 -0.4973691079174789
P 6.6929583767304495 7.986532950197822 5.808846356808961 -0.725516461154815 1.2029746890809798 -2.4272093159820005
P 4.891955548078678 1.3668059139906914 12.364604118568163 0.5394094728179807 -0.5721000210724664 1.397981036789973
P 4.207691956624999 6.23715908180307 8.264796561873425 -0.00884022399944929 1.2511756742662388 -0.8625014951540179
P 4.798597200646202 1.4777958837653071 3.4343923152406934 0.5253241983695082 -1.268205633165332 0.33609177702981474
P 0.5768363751192719 5.703611253851494 3.56572695503086 -0.272067451659054 -0.7640033043761035 -0.46183466245629495
Ni 1.0445005861558139 0.2217012579151047 4.6331022032924345 -0.47028459299586106 -0.09764612719026408 0.8314996474558647
Ni 2.146795736042629 6.690271740061579 4.762397731387143 0.5999309272418055 -1.3789839268621797 0.09541620941848084
Ni 6.320499461995694 5.979624465795309 8.97594473450169 -0.19402135808790458 0.7836997543637665 1.0183406857452462
Ni 8.641680685955311 2.8317605852030976 10.071112556059497 1.1943607221597237 -0.09004491780423847 0.508240503414344
Ni 2.558379366470479 5.326380143813391 7.155646390221668 -0.17724542418114636 0.8052646250187356 -0.07356671764355717
Ni 0.4089826018426667 9.580090999041092 9.37166719061597 0.733042594328531 0.8601921302945507 -0.013577995794750808
Ni 1.7403941268506662 1.5894051460602048 11.45896712994541 -0.6707560775844835 1.08884136286897 -0.6854000527499035
Ni 4.436611615298564 7.181306957944402 1.34731914626059 -0.14732421114168176 0.6335334457875992 -0.2475393846107027
Ni 5.9943873066096725 8.105018180916435 7.791617004509198 -0.1575309764713545 -0.07080689551023289 1.28043431402104
Ni 5.311480694354847 3.0440322037726175 4.840813825319233 0.3552081861442915 -0.15005215159580612 0.07634248061648143
Ni 0.8800620289837038 7.7208200300251635 6.3023396195627255 -0.9296473968728957 -0.29613246302805774 2.0010145142165023
Ni 5.400321849286445 4.6811775173521895 7.239341042164865 -0.5316478265946908 0.4826981361688654 -2.72686419034102
Ni 0.9631091559534884 7.508011084121869 11.202909708743382 -2.0435837550372806 0.9406812860895543 1.0229236771302381
Ni 4.808970350360921 0.6185165831828238 10.445907478609726 -0.015135055869225545 -0.8534090459344463 -1.573622092598477
Ni 8.485445933228347 7.371038150224255 4.248896766606806 -0.015361055837102578 0.49438020049248405 0.7874985592845664
Ni 7.70150356773814 6.335626592527871 6.54229543523743 -0.3974784076674122 -0.6684788515145326 0.9480151007468062
Ni 2.721881699067811 5.412225015815978 2.5169987866998285 -1.4332591432659767 -0.20769345625835842 -0.09854961284113996
Ni 2.208506414240118 5.64432310227746 11.277753941992318 1.7951007755663857 -0.2087931170804404 0.2557381183714112
Ni 1.2325014022760563 3.254054333334644 3.6061412563250124 0.1569627626727103 1.0565665619956643 0.14807882991951918
Ni 1.6920893102686885 0.9555865732806541 2.60217336562164 0.6112005866183537 2.07272360982603 -0.889914339949332
Ni 1.3738913490021503 3.2536718291309406 8.135554766512094 -0.742118074267238 1.0005363105739735 0.27485529881683635
Ni 3.6657108217060563 2.81605059112242 7.249444617488403 0.8987067414299813 0.029446073175258967 0.09188351367487402
Ni 4.3913941540750505 7.218482723647199 5.749237630283252 0.7307306583659028 -0.11535974241994326 0.9491996079732102
Ni 8.45496399109036 7.45579926031635 0.15816275605849012 1.3614677723552875 -0.7171135818031005 -0.82767924526851
P 0.4122521020600366 6.0195050826528655 7.645446665961105 0.1594472196574609 -0.45149445687255146 0.8436733067039213
P 8.616134869493688 2.059511919654682 7.890574484904456 0.9820981584734442 0.12151110673331975 -0.041030435578748685
P 2.103481688594687 3.74364149958916 10.35937318831618 -1.3830102744127537 -1.7796836696803673 -0.7840357975469465
P 4.379782419319768 6.360808119271681 3.3578149736592646 1.043647282830835 1.5186729900561071 1.6820817654644773
P 7.22422028670275 4.493996353097026 10.302136898577725 0.20274459689351537 -0.24857013986806223 -1.0109752465191104
P 6.353194464169394 7.990822461625068 10.111341069597565 0.427591939223341 0.031994807739041675 0.39699966825878075
P 2.772745650917423 8.79401753870168 6.050894106188206 0.6889985687344392 -0.8250484925138823 -0.7684819089727475
P 7.215604834876478 3.9377988119404392 1.4086482309786699 -0.690575683413572 0.9367562400035351 -0.2528682530227839
Ni 3.176160084423321 1.6916157336355317 0.2583752145316141 -0.8962155995770112 -0.6059856180763177 -0.03615048177862806
Ni 1.680441146541624 1.0866762282355913 7.182811474478968 -0.28186309759323713 -0.24822304094128864 0.28121492248627694
Ni 7.111317795909618 1.2312537099925476 9.130951830879626 -1.0206173975945647 -1.7332739720675763 0.7065244934333446
Ni 2.8724790684116233 1.8321495995247659 9.405057075426397 0.7929297576024666 0.11117604335589885 -0.7899179673593364
Ni 6.886714970392133 1.7006956548520158 2.416948437151131 -1.028107535324023 0.4503294900301728 0.18521173021607457
Ni 4.095900549471195 7.307169055448726 10.212990651007459 0.3084485613912495 -1.0088741410157076 0.3436011980329824
Ni 7.64318078391631 6.386026074987272 11.275060930253385 -0.09100342506276585 0.10708696088818977 0.2052928172366658
Ni 7.892282092956704 4.264493830874961 8.011165310192029 0.7971425101322336 -0.12383178444669643 -0.719901943181515
Ni 2.875448029611798 8.684530264013043 12.067265386543587 1.2872055713066024 -0.48761819917830207 1.1990681549377218
Ni 0.3994090680585462 5.136667166019428 9.74159702398481 -0.562741976896334 0.2631819762439661 0.16740221283847945
Ni 0.24847382000146212 2.4334188860177424 5.727843805880401 -0.5650503133145366 -0.4855415191549316 0.04231778693160454
Ni 3.9729527697093743 3.114649765570629 11.340495560091215 -0.3887826796656272 -1.0739747301697826 1.0839873772107782
Ni 1.238065927715647 3.7571202191482342 12.586577683047333 0.08089590431511876 -0.8681116422519437 -0.2840379937573689
Ni 3.5500579435434365 8.741477854150128 8.203734319373643 0.3753517509717019 -0.43140051433615384 -0.710672454163447
Ni 6.407209522078086 8.405447911196655 3.503545432373098 -1.4530592087110394 -1.54283236091113 -1.7698795391057518
Ni 3.3761642467454953 8.483715557068734 3.8699698879322844 1.315722704909689 0.9398040256909234 -1.143256704395057
Ni 3.951259317013622 4.4777581389255205 9.539404391182874 -0.9033702083439216 1.2169656040434333 -1.475000488868821
Ni 5.359867476123333 5.0344474712011555 11.41040822128526 1.0800502469399014 -0.4782586123402731 -0.5085019846058468
Ni 8.587301338328805 8.980005654131007 2.1332723909931235 -0.6459233348115199 -0.17780618178062282 -0.06945115281328683
Ni 5.0159870897509915 0.6221977307813222 1.4126198996271242 -0.30638242289084006 -0.9480089300992188 -0.1385192112555421
Ni 6.1807670334856475 5.82302542335053 0.3122108597542847 0.06290718104718199 -0.3666614222865556 -0.5737673814725602
Ni 8.001277576526295 -0.27234117158826243 11.405475738506075 -0.13326439061450598 0.9121243003874677 -0.5455477245052346
Ni 9.390660345778436 4.815272562479083 5.656637916188121 0.28323915200515737 0.5675136872533645 -0.18020399258883804
Ni 7.625139335641631 6.215001159717106 2.2041850274625636 -0.0033645455968587218 -0.35229435493160616 0.7553080905949507
P 8.740558022612651 1.5855072460796076 3.6234158747436958 0.19614328952691382 0.17550607289253645 0.29666416716181165
P 1.9473835445119008 3.17939315566891 1.2158469871019493 -0.7877968072512755 0.20320868101412748 2.1849468634995213
P 5.043299711344007 1.3476715965625738 8.371937810779349 -0.3709502794698966 0.2748056765258235 -0.859632658246655
P 8.601335599707545 1.9285953023157056 12.161264883879412 0.7102507932449962 -0.3977810265094956 -0.35845754631952464
P 6.7230031712070595 8.000330423259982 1.0888601450938789 -2.058033097693391 0.5348023130632724 0.9976623314602883
P 2.295571656797378 3.661466846493537 5.814764243274831 -0.7717428391122064 -0.7555767708753052 -1.073285931632874
P 7.109960816710764 4.103514204573483 5.6978664050015855 0.0879047315327841 0.699367313563273 0.5718724784426925
P 2.3887114303991663 8.84763187792078 9.98373857796639 -0.29238482306016744 1.3406004419879751 1.118129827420442
