# total energy = -340875.1133023883 ev
CRYSTAL
PRIMVEC
9.22197277541366 0.00000000000000 0.00000000000000

0.00000000000000 9.22197277541366 0.00000000000000

0.00000000000000 0.00000000000000 13.49728932810879

PRIMCOORD
 96 1
Ni 3.2478497116634304 1.1392271875674507 12.253771052669462 -1.038585037816579 -0.6861549286380569 0.9681918328049972
Ni 3.1083858170467047 2.577283181665376 10.22589704458575 -0.522790633314377 0.2737196425504963 -1.6301205419058378
Ni 0.7674175327120509 3.2537886621450256 10.481455432553034 -0.38219011404977404 0.21604517065716342 1.1334579731370802
Ni 1.0132181512622906 2.561744157501574 1.2671138175341836 2.369966018088815 -0.26723043528172685 -1.8602849255732028
Ni 2.322314077759853 9.204321941574356 8.041752096461853 -0.34366007629537587 -0.7418753621288126 1.008348864639857
Ni 7.422129588591796 6.053754820951847 1.4458974375676472 0.5420170856441568 0.17198109045841348 -0.5328832416636887
Ni 1.5573053243425117 7.308109116923398 9.817941867350516 -0.38300695352411457 -0.25343646682142806 -0.6326615847056072
Ni 4.249687948493595 5.718886544728708 12.146143252544299 -0.5207545767209547 -0.7342026760749032 -0.1299296698143182
Ni 2.1081890913744967 0.39184715734982695 1.3465906234976739 0.012849345158842387 0.2761267093300922 -0.5894559958524106
Ni 7.039878816135056 8.860416132009659 1.4029221221339765 0.18682149790535565 -0.3210279407181568 0.8262507403520996
Ni 4.793553794226676 0.16762042196207924 0.46166579120248624 0.004585562488153393 1.17180726233924 -0.7756054073914062
Ni 7.625501754695257 5.613230402387649 9.411727798579449 -0.6616625999236476 0.042697538868526466 -1.2066631936761605
Ni 8.31806268981537 3.387571821518486 4.878527818174761 -0.19587769457035298 -1.1935163718815576 -0.029261210857962513
Ni 0.4483787727958356 8.607189980962866 12.442773540759847 0.7499126306109923 0.26444901588184777 0.5214348906174311
Ni 8.962189823802966 8.841630973421134 8.292572234805776 -0.40214701678767517 0.11747293210820414 1.979100230641914
Ni 2.1756386004154757 3.5138667389803686 12.55318084348618 -1.1298532865049573 0.018902750441773895 0.11870886139783428
Ni 5.705505462199522 7.128409754991141 4.862047230588334 1.1590219376491135 -0.42253432219477555 0.23033253381411298
Ni 3.131413083122084 1.9917985726971383 3.2685714845394327 0.014647317599529612 -0.39657029403084604 0.13872284262591594
Ni 2.6027542705320954 4.380999619157323 2.1845765364508214 -1.33245261606986 -0.030252371126638217 1.060235526206819
Ni 5.479142917911872 1.9204297252172178 9.881946047354345 -0.1537977346811674 -0.11453750362896403 0.11487791768751829
Ni -0.010519504370118275 6.689139524727405 7.800609496371634 0.11420891664495168 -0.29142451602942715 0.5465165161764072
Ni 6.589403888922347 5.744136306248286 6.728479538484298 0.29177521450062655 0.948015357857122 0.7804712201241397
Ni 3.7005379123475417 9.501398573273304 10.136882874355075 1.8115393807383833 -2.1050763151251233 -0.514974479704068
Ni 5.29120833427144 2.520088506375227 4.2022870083144 1.674247099911407 -1.7283479955208685 -0.21683707043083944
P 3.364682885035069 7.265199277496589 10.965346178197517 -0.4455444099367037 0.40940009880566264 -0.1446510351848928
P 6.509910483407822 3.9737849663377274 8.310415829971676 0.0805053537449194 -0.3115637099814634 0.997236042556147
P 3.721351904951519 8.157858578377047 1.7348061679598419 -0.6771866637011758 -1.8209627309348124 1.4473685860841652
P 0.5513448656718605 5.096403380896865 9.379819772700067 0.44999601795015404 0.6443770733703225 0.32529134398020104
P 6.57877095428682 3.8970673746352515 12.17544607110838 0.21871834661395234 0.2524795022247974 -0.8496588348633948
P 3.9807014459358587 0.3487113795894796 4.657631137164194 -1.353523063586914 0.9971573667994116 -1.5155185035875256
P 6.864827328492745 7.60957540767396 8.287511216134503 1.2373307979633463 -1.394934022433533 0.7746322448448594
P 7.006356945016113 5.056924115350729 4.646509437970398 0.13380997870533082 1.2977918314628811 0.6952268090323382
Ni 9.295748579888858 5.455838992652567 3.027901049456447 -1.2080240785794292 -0.7273136622645539 0.7289306290426866
Ni 0.5842009103548247 5.127721200517205 0.6957489711162114 -0.17246445785273523 -0.8597100484518096 -0.25582476454794656
Ni 5.626860478182367 7.166939157339133 0.23580676662957947 -1.4902332466581754 -1.4521009585628282 1.428620873163017
Ni 6.313648458331239 8.334708350714873 10.21187411274986 -0.11536874128100776 0.30954770799269915 -0.49036670845771674
Ni 3.9704927220490167 5.43565209419882 5.800055582700541 1.0579493012758037 1.8920087390390445 -1.7475502794809323
Ni 4.99710117781329 1.1130091189041333 6.314234053603881 0.7048864436092893 0.9138153149366456 1.2857505840276309
Ni 5.2241369261151585 9.396636962293606 2.9627358230774106 0.07874029142469666 -0.5282277451695483 0.06543611811662278
Ni 7.542854434483984 1.8226768135636244 3.08759949036112 -0.09433248943599883 -0.3450029634765155 -0.47417621474078336
Ni 1.6804278831620514 6.54952807854592 5.817952665308666 -0.3455313251761597 1.4318576349327599 -0.8329322661373333
Ni 6.95738826946134 1.100227464606786 8.203072066608673 0.7237336582227794 0.635198492194848 -0.16806607167472346
Ni 2.3289170102828693 1.3084411664289395 6.118388861697747 -0.243261068950323 -0.7255712256521504 -1.2290487604602125
Ni 3.718723642704229 2.4806092408290916 0.9239503767796854 -0.031149686129926996 0.13439233357136207 -0.6078391263452887
Ni 5.470584927155783 4.316934574133029 10.205746111825913 0.388524283797918 0.00998899289191183 -0.1348952413497096
Ni 1.48209091420603 0.5199080826024327 10.33499574937212 -1.941415057386315 0.6962393094572524 0.5235084853170081
Ni 3.551224950783077 3.2508376308498232 5.761925491774681 0.6333200442252125 -1.8003483971185703 1.6006271604324112
Ni 4.857849388570908 6.526168821449829 9.481144354418136 -0.1325496239356685 0.30132249186942944 -0.1110531446247894
Ni 2.9889428253733707 5.061959312498169 10.142254673509626 -1.0713540047174839 -0.3145287061470583 -0.5837825996167172
Ni 6.46090491996186 4.085951821473826 2.6484242464171985 1.9732453145230338 -1.6941122142664502 0.5191895462266801
Ni 6.979705443631311 8.392336458726506 12.531112662581743 1.5473099370665093 0.6502463876669059 0.31568801656248213
Ni 8.614373897772126 3.3395714531074527 7.8171712373186795 -1.1890894464584554 -0.15481589153303657 0.9043755096799845
Ni 8.447188752926088 4.940745702047713 11.648511767431527 0.5001734101354934 1.009136650648475 -0.907876066634075
Ni 8.449927678846949 1.1227567441511 0.38630290730396466 0.20623152700085126 -1.0845584192228999 0.7914937964868884
Ni 1.8893977867536007 4.890817941322002 7.572681061102966 -0.06190033704922243 -1.375091276675993 0.6712019068726505
Ni 6.057941596601916 3.502302385092293 6.266440257383512 0.7170922416468618 -0.8689930164156325 -0.7236560109073085
P 1.6837754592875471 6.62563702004376 3.45407792274228 0.07656359548835202 0.4128772587209857 -0.1779367938212161
P 3.4985951520276943 4.710131828300411 0.393516334426176 -0.321784102157891 0.04440500847793643 -1.1798964671052776
P 4.0193230680118255 4.104663204279972 3.809205028806987 -0.2485472570499268 0.3344203028646628 0.028024767347700125
P 8.72156088759757 3.517730745582525 2.1632645573157787 -1.7527577918238009 1.2179228257503798 0.638063729557785
P -0.08981279307493809 9.359841290831545 2.3503101427785307 0.535956995493006 0.5219555390075914 -0.4757764693483677
P 1.0818849607125411 3.1069471892902936 6.13248003613234 -0.1746118432130412 0.33427863508047595 0.12424727471756021
P 3.7990654697161257 1.7026805035224402 8.16818165472658 -0.24919440371562243 -0.2762760904237629 0.5796451804095759
P 8.904211280825029 1.5996895113198621 9.421513233914885 -0.46299448709235097 -0.019062930168722004 -0.743841741826564
Ni 0.8235977909944745 2.3749899863792234 3.525829482093297 -0.07480804624982601 -0.665300453786551 1.3668346930941557
Ni 7.576413193494118 0.9957240688654164 11.037664888875579 0.9804151143440664 0.48051989757062413 0.1583647852265595
Ni 8.761141594844478 3.1199040610707933 12.859272875791975 -0.3348635610496684 -0.33938870261353166 -0.26530750722740115
Ni 9.12616572211547 1.189708266661014 6.6910650726475245 -0.08557711184087197 2.0613390221381724 -0.514808643550165
Ni 4.452921785005094 4.582923935531575 7.810355277224041 -0.2739883228308507 -0.46188042809256585 1.6783868331113934
Ni 2.0044972292393077 4.43379541342306 4.620391888810573 -1.9733700130263558 0.8743113433047524 -0.8460731743946655
Ni 6.423860255234268 6.2586670565124916 11.556284661878202 0.041698408180050765 -0.8020723433336832 0.28790313313973
Ni 6.243672128743743 1.8575912025749928 13.02642297714138 0.5852167609600825 1.008472791812231 0.34398917750002045
Ni 4.884344116418149 8.531247034975381 8.066789752607088 -0.2967582695375147 0.7299382443715945 0.5320525182322773
Ni 1.5886508098812442 -0.274159107099859 3.7344028408545533 0.14582654355023272 -0.39741541563996075 0.7058729758922747
Ni 4.886511280025565 5.623014915525806 2.61454640714827 -0.5015268388395944 1.7097571198925587 -0.9405203350316578
Ni 1.4802004097825407 6.015271528467842 12.023614588772917 0.4067426065781576 0.2624669524548125 -0.18660115436443347
Ni 3.0961759250628034 7.60183817249685 13.231487375253183 -0.14646623401676065 0.47652286059608906 -0.632615047738388
Ni 3.658199835234179 7.080741377600819 3.962102571197843 -1.296610152449954 1.58307372492968 -1.129676651717777
Ni 6.730859729663335 8.535682803890982 6.473705018204803 0.9019149639546337 1.00187276999721 -1.4796215325806004
Ni 8.437846894482211 7.086219229442539 5.244709303031841 0.5971945021472489 -1.3749683779448836 0.8042397832986472
Ni 8.447751293266736 7.313909737813031 10.929254143259906 0.8318266917779803 0.09197813027120934 -1.236180229298671
Ni 1.1605299447296962 7.429479500911411 1.2624355107340073 -0.9115830831720171 -0.1845213890172693 0.7511411037014547
Ni 7.790538179879475 8.703485820914452 3.940074966973713 -0.45657547093988465 1.780269109870192 -0.24397994939421858
Ni 4.357898577299563 3.1433186500036685 11.889518804521622 2.070266920755422 1.2080081377398293 2.2584863274495683
Ni 3.581851122443604 8.203599563452691 6.139836403832914 -0.412297989178748 -0.7804462804234752 0.23789466243208707
Ni 1.5122836531450736 2.5057114507839104 8.44862830287978 1.231057306249809 -0.8438183169222176 -1.4042123624116656
Ni 5.62855732117711 4.678472795686564 0.456965351667596 0.22058882416378783 -0.5686457439752788 -0.4385386680428318
Ni 9.077160158669509 5.020764760011698 6.342241184989916 -0.2682915295563896 -0.17130823276110496 -1.5461089747798726
P 7.318594499994164 1.5400233473199803 5.659629836321035 -2.145056712172803 -0.5308189029354922 -0.9040294391944754
P 3.200227444137095 6.5178782679048695 7.466120243230472 1.414624558883925 0.8914683147000131 1.8751903819301254
P 0.8885619783665251 8.619916303423427 6.321320217501487 0.5590221048425857 -1.7677815189261425 -0.34436610122346495
P 8.791140672354773 6.698564380926459 13.043240166734916 -0.4034551940761374 0.006720863663601328 0.5043321694988735
P 5.6726383511492005 1.9089391471115216 1.716234036942939 0.5010141608692339 0.7468656162545525 0.5324836922324249
P 6.5172235078362455 7.352125593085907 2.934148629602413 -0.18304069070668477 -0.29088792679966674 -0.9948402886304609
P 5.386692640616847 0.3457363711650033 11.747028258432753 -1.2700123473567675 0.7477516184039316 -0.6831904466930944
P 1.0291721642019809 1.4452860207711724 12.736649225700779 1.2007874516216739 0.6052417979317577 -0.6446866341909413
