# total energy = -381167.6491147574 ev
CRYSTAL
PRIMVEC
9.27309514696481 0.00000000000000 0.00000000000000

0.00000000000000 9.27309514696481 0.00000000000000

0.00000000000000 0.00000000000000 13.57211208640140

PRIMCOORD
 96 1
Ni 2.039162868009777 6.124137413158725 4.745204073626342 0.1086018548708194 -0.07481498822836147 -0.2516500643449666
Ni 4.585990595988645 7.352980145934163 1.2404174099794971 -0.7684088896429669 0.25348968865686666 0.480299811140018
Ni 5.112442746468412 0.15535030625233262 5.840201734810506 0.9987697055918541 1.1879545615230638 -0.7692082456158107
Ni 4.839387190507248 4.805484755113849 8.815765447185585 1.450199113554425 -1.9733345318027304 1.3113343460340061
Ni 3.5381679511001147 8.864633730631885 8.30066263770089 -0.6530725442617914 0.7114327293682393 0.5549589905168056
Ni 3.878249437866389 2.3371074110048253 12.079967224393565 0.8266600599753764 0.9620846914659945 -0.3962381075024079
Ni 1.1755595287900802 8.373947907644553 9.572247847352365 1.1532598383543557 1.3244114909329385 -0.7251451938583253
Ni 8.261326168625727 2.953332394373949 11.452419792004928 -0.9628197698598063 -0.6949499012218676 -0.6100919269352073
Ni 1.1832561976567433 7.476896514687442 2.694254174536546 0.18444374170179847 -1.3299126232568257 -1.9505504440286796
Ni 2.6198997167370686 7.756424690972618 11.5844621739243 0.9647349846046482 2.166245944655908 1.5008102508430734
Ni 7.369068965793995 1.6229770904137368 8.557026622625918 -0.10870624165916762 -0.24264014753687246 0.46967009934031373
Ni 0.39998289866746084 1.1508003650864767 4.977042576842272 0.21370006746375456 -0.3363532582213175 -0.6908862726754553
Ni 3.33309345473113 7.714538120766934 6.159255551309256 -0.3360447258419632 0.30436205002670164 -0.2717028692307837
Ni 4.665544478165879 0.19133826071574633 10.895433194243054 -2.401443776982122 -0.8751389814123702 0.9715653772629205
Ni 0.38557343631576446 0.6193398159863674 2.4565522933394224 -0.78950530530195 0.33464064640558494 0.22106165003514833
Ni 1.2141077847885369 7.008160107612629 6.921845211856259 -0.31069801954705845 1.4680353704048974 0.20019149145435847
Ni 6.342954636347463 5.2974595383089715 6.946600666321854 0.19848222207273558 -0.308721612546978 0.4616770538325081
Ni 3.3917921462082123 1.9083194972765016 6.592830236686942 -0.46809966952940024 -1.5747608341886106 -0.4889268906873966
Ni 2.928257945439663 1.6631203187556467 9.880945471332694 -0.5849048861466185 -0.7379832261632581 0.5587295133028313
Ni 3.656937752117251 5.1268995016047105 2.90508355367499 -2.291900898354272 -0.7058943160485134 -0.6159280740010102
Ni 3.471985871941831 6.205193536729211 8.087621625400159 -2.6140722086482526 1.5230446367612416 -1.4024907517348686
Ni 5.119851949389453 2.4651410339470177 0.8260816148399623 0.7694309031495781 1.0869207488074892 -0.2525196114341135
Ni 9.246564695223764 5.653138370899014 10.265687111025159 -1.6404268089278522 -0.43252845729300987 0.6279986320122991
Ni 4.066048158212973 0.5806821374666737 0.15111064720915376 -2.23763468081154 -0.996944222347341 -0.018485460398697195
P 2.490039294075922 7.055137606984336 0.7507952109909677 -0.1961106365167655 -0.5437947463698698 0.605772216513931
Ni 7.208236405765794 3.9289639945311863 0.2822470477450634 -1.1808323486559855 0.33572050973332507 -1.769993953196429
P 1.692219290928646 0.08973017665226536 6.355127428180317 0.8343116629833631 -0.5765824823238522 -0.10619941607691387
Ni 7.929646105947642 7.936452557692378 7.070364956316802 0.12658517882211748 -0.06675432270741406 0.507690287337829
P 2.5690831560270513 0.5523407771568148 12.05518395064291 0.7187655155842266 0.628440347535408 0.1339454758419306
P 5.101370671014441 1.23031715488363 8.241990838199365 -0.8389239649443938 -0.9492636284419264 -0.6536718684086872
P -0.02658596342255847 1.1999014032177804 9.754358451213635 -0.42168997191660923 -1.9704440976288127 -0.30929522566226086
Ni 0.5922123038146365 1.3146652271862433 11.83326673178896 -0.06901226550365534 -0.4903736504362522 -0.7274193346044827
Ni 4.7629305220667195 4.907609350569948 0.3949448261430535 0.15748932460014167 0.37577701143457864 0.6407942411150707
Ni 7.643951321474114 5.029698919604272 2.71881953055423 -1.8404817748043467 -1.6206743088912734 -0.06173398667468723
Ni 6.760948667472418 5.967561203744738 10.183779717331829 -0.07069196719892341 1.4432339950905015 0.14006932935148136
Ni 2.998835471637463 4.7099255109319635 6.332774632634423 0.7858651374462013 -0.028645688761150666 -0.8900398097836028
Ni 7.581756673174463 6.48372949184724 5.239309814057078 -0.7569597672657609 -0.15314081782345884 -0.6936795191498764
Ni 1.571641236382595 3.830697006603439 11.144088455277892 -0.24469600162463667 0.19441370843031677 0.7485566308037301
Ni 1.3893600075729569 5.128633570373464 1.2753890332287106 2.7120145269226974 -0.22555850946423733 0.1673261081849054
Ni 3.18101469640188 0.8089319529098334 4.574412209546578 -1.4485304676027504 -1.0258627051539042 -0.6182081282844385
Ni 1.1794078632234117 3.0491883775964763 6.501082234558309 0.010097493445318094 -0.27797430406179224 0.45768258796113437
Ni 4.727748399560551 0.8851030100237434 2.53364138686032 -0.23205543004249068 -0.016345531237558945 0.058324446772506006
Ni 7.309544968860126 3.8486775378473665 9.392593686361916 0.48564847704644104 1.4072760889386537 -0.8252626654072174
Ni 2.7712829929398133 3.2285485814747905 8.177237742983676 -0.007904342448741225 2.0401292208297765 1.8325059556877212
Ni 1.0193820624619567 5.0090755562796225 8.106812295544206 0.4554051047808673 0.3176878206013303 -0.36613820279323395
Ni 6.779671046317952 0.8000269997620543 11.25574579241463 3.092762766319622 -1.6155801821978175 -1.6641830308071857
Ni 0.3678840802554671 3.163590550859157 9.27492367441416 0.11637892771307698 -0.2694259002711489 -0.6670688585408834
Ni 7.570610412960331 1.4356976633882776 6.14393176178858 -2.650234517501423 0.5973359128211196 -1.589383726308108
Ni 5.59656321818153 6.111127260845558 3.4883037372486587 1.3426799502248232 1.273638117034813 0.21013780403379292
Ni 0.002629849747693611 1.139505735352024 7.375383943502667 2.5632587255408112 -1.148643422628267 1.8039924216290608
Ni 6.150741922771324 9.12819363729249 0.49728733933212443 -0.8200857491919683 -0.4108558574155828 0.4828621725505555
Ni 1.4617828796797523 3.3723371928560923 4.331797442607819 1.6914058710788809 -0.18707963666274877 0.14022565242368754
Ni 0.5113713160486162 5.115131944024234 3.3110661448204404 -0.34200402874919167 0.6264590554393211 0.44747068042513904
Ni 2.7991950089502424 3.5419884662483865 0.21043527260009126 0.29503974418451123 0.5654868866313228 -0.404068145069788
Ni 5.44446591366224 2.8829588762665903 6.892461555666143 1.0917137993207584 0.6195710700702363 -0.025199896304395307
Ni 7.358377087235847 2.744279740241351 2.1657693616283793 0.024985723411060194 -0.14778366727660358 -0.27439507135096614
P 4.829047689559863 6.13083258776322 5.629698768616769 -0.4645566893731483 -0.2765092894804915 0.14495108292381487
Ni 3.702904484131768 7.437105663956294 3.820033874639853 -0.5827503016974609 1.0174773093036864 -0.580731214384903
P 0.2927534644028097 3.004473513409669 2.132477095887302 0.03916741422808093 0.08904861532924019 -0.24060923314977276
Ni 4.426855012349118 7.008512485223392 9.953990568115335 0.8607670289614144 0.8402252002543208 0.015715353852727775
P 8.223130290238034 7.985757603914124 1.1081450553036283 0.7438049750513577 0.8638004164710994 -0.8776553200763207
P 5.421014256356467 4.0429396054229425 2.4729471253349176 0.7757252207987221 -0.780087868642792 -0.021826351846472088
P 3.479042697252109 3.8336736701048832 10.302142429477584 1.3971719106251164 -0.10333212183144785 -0.25818298036747794
Ni 0.39074133217045287 3.61910352443534 13.218260038916963 -0.36823108076652067 0.6444413509493546 0.9515166861421612
Ni 1.3851222031487822 1.6541161434911529 0.41079532746086966 0.4911223556768187 -0.8071908955071712 0.7339463370897231
Ni 7.901947371122675 7.161972934710634 2.989488191857226 0.11363067554397849 1.8510693205122057 0.39340320915677407
Ni 1.1353977542581302 6.207075975018286 12.67339337634633 0.08117564033906664 -1.0612454555285722 -0.07995076679303005
Ni 7.4905836029370745 8.84581862083615 4.805722146346363 -1.243264646949278 0.20777701711110022 -0.4495360475946
Ni 6.630133116024203 6.667160584439368 0.23983562036124284 -1.160142938627434 -1.5644039164343186 1.2524553123096107
Ni 2.5807487095623074 -0.03229911726442742 2.4065258003251158 0.6810590021723884 0.1821446612549766 -1.0689896182503655
Ni 0.3319870021232501 7.946393315553899 4.639423096803826 0.279291480211319 0.04782277591023377 1.9285875666043428
Ni 6.192721223927208 8.925066490877722 9.356587185708463 0.012640828692462101 -1.0707690787482915 -1.4218012791380221
Ni 6.250705887087745 1.9292488727368138 4.039332371460134 0.334184789815089 -0.5790011190676738 1.9128128202685897
Ni 7.206947445558003 0.5652619077577891 2.547200506398676 0.605794328001118 -2.3876729484502746 -0.7114877509758908
Ni 3.3957424846867643 5.499000985475308 11.841083950890884 1.1779907654421324 -1.0156806224145798 1.040536248005679
Ni 1.0895237531938131 8.525488826462638 -0.004299934160809335 0.17392767266182305 0.15554068551420308 0.9523286405204954
Ni 9.384372160317117 5.246652250693974 5.784610457474651 0.09509739262648138 -0.946921096351679 -0.08467953972726706
Ni 0.031219729004090545 8.005833854632588 11.596718423612334 0.09198712913227383 0.1357511615921017 -0.3681220659924821
Ni 7.084672414623278 7.8978764824088605 12.113815875835847 0.11773467041002304 1.1464176186215418 -2.082249804148911
Ni 5.348554291869592 7.775907463609799 7.388522064527111 1.3345964018857401 -1.7162008186353732 0.1532223217936716
Ni 2.416670566277079 2.634857219004452 2.352413581644963 1.2251915914976512 -0.7316775956602044 0.40081852778423877
Ni 6.370217535706487 4.203660888310903 4.64880097779763 -0.3188419888104316 0.06448326728505023 1.0621412278699642
Ni 8.275458365436323 3.470734004114121 7.121979003198548 -0.7821478364956143 0.9150756697063079 0.02793529295768737
Ni 8.416325951886302 3.113339648945364 4.1939593763009 0.38467945613053106 -0.11217594537532294 1.1509746418646047
Ni 8.29440329856234 7.8414960646867975 9.488575783676717 -1.180663170067973 -0.3765578554646612 -0.44520759542257515
Ni 4.266300645171518 2.8275057680465348 4.447105597253961 -1.054074905922062 1.3785851487618646 -0.3004442030295342
Ni 8.147554565824413 0.5093136162636613 13.492647211323009 1.767930128688865 1.063192037731982 -0.5852087905402825
Ni 2.08580653596076 6.280277787106768 10.15910586610241 0.07728299015287982 -1.541534725145629 -2.7001769108578206
P 5.586613187224988 8.415435734764374 3.415286459751077 1.2391781355847302 0.11628045446199974 0.4252553206703644
Ni 8.65092598279921 5.724578294933682 0.7826603474084555 -0.3064906663339302 1.2789423028565459 -1.0836107105976498
P 8.200513211484067 5.772854027608199 8.098316285886812 0.20424303581591274 0.74832420307795 0.3500235566195585
Ni 5.552840575161871 2.5612844831151675 9.871621374290008 -1.545185948744971 -0.6214893701388716 0.8629604370683074
P 5.1235890066825425 7.079117830706252 11.948181707206249 -0.333311128960884 -0.6870190764105651 0.6509503557124661
P 7.911711940178814 4.949551559345752 12.001926711323607 0.44959261186414834 1.6867511459156885 0.2586930872346771
P 6.264856630088381 2.2131354036814264 12.430303826942541 -1.4602359289651368 2.844057643535592 2.6769935307628216
Ni 5.689433264807593 4.346271816624656 11.603259664839495 -0.03980993290808627 -0.6367686648954453 0.3683601501452172
