# total energy = -340852.64788972476 ev
CRYSTAL
PRIMVEC
9.39006874401072 0.00000000000000 0.00000000000000

0.00000000000000 9.39006874401072 0.00000000000000

0.00000000000000 0.00000000000000 13.74331476954995

PRIMCOORD
 96 1
Ni 2.6935693434195387 2.0763225751433136 6.328837677864837 1.5442832344250437 -0.5783341749076362 -0.3411815328478963
Ni 1.0804025110951088 8.811771819837 5.47528138261988 1.415889798749594 0.049274163644779656 -0.8313592652232585
Ni 5.041330631109797 3.390753765548191 10.242122467899911 0.14353260530973344 1.8903313513366218 0.8957684847372637
Ni 5.242850892983044 3.2569358981629044 5.678545380229107 -0.1036393686592215 0.18887889465501664 0.36663931079936857
Ni 3.312215231914724 4.511505401347152 4.400444365174287 -0.9887269766438714 0.46356090111878234 0.8863459058717833
Ni 7.68594954700288 1.1855900593689137 11.149442539827291 0.2905472556307964 0.7007271700252771 -0.9106726555426057
Ni 8.913175170471602 4.572766208786742 10.202940528721005 -1.0423848711786434 -1.7692501330518693 2.167521983154854
Ni 8.923354004816256 2.8406365975763253 1.4368635996325159 1.2833039222593512 1.2690170733230337 0.2396126735644583
Ni 7.228174313482416 5.283838542350582 5.092378799957833 1.2220782426796504 -1.3593180730021364 -0.41500253259410463
Ni 4.526679752178295 4.146381974541347 12.88148482339988 1.5946516595752667 -0.24858865181082346 0.0634136883699553
Ni 4.564174296032722 7.774695085186752 6.892505653809737 0.44636664872768284 -1.09713959832202 0.15221110692033787
Ni 6.89246997154912 5.7753804624977745 10.918005519446602 1.417121871384482 -1.255592829497328 1.9205788373672537
Ni 3.1575889725481163 4.859041229695819 11.216166489168836 0.6911153579671259 0.7027197749752736 0.8062971800483081
Ni 6.596401109107317 3.8353829030515767 1.1138198871705254 1.85002699529062 0.857389113628117 -0.7335940959566268
Ni 7.809400778671843 6.149621645898282 8.887389103134101 -1.4419391875384782 1.5068186618206825 -2.0138440618810027
Ni 4.941260670214069 0.6994173804378399 7.024607016657937 -0.970435120313219 1.6138511153218529 0.18352071566689682
Ni 0.22196338018666492 4.934631281794028 8.326730644170253 2.515448290925752 0.3359657929749117 -3.795877205630153
Ni 6.963205358189592 1.9544958253393196 7.132450076327191 1.4830452135501684 -0.0893491772887945 -0.02372356886918495
Ni 5.486325981287943 4.505458197179295 3.35743686320662 -0.433214427616441 -1.451276405779004 0.1514001809832683
Ni 2.2784438014059134 3.6725591138114613 13.59352621204155 1.1103812938232749 1.0105517858284465 -0.2698791857584836
Ni 1.6897991820354206 6.5406616619949 10.338353768758651 0.06350213431870354 0.007761903333605988 -0.06341625947311658
Ni 5.477433586339247 5.260213129794174 7.592741848228069 -1.180464938014238 0.08819758018285455 0.5278929875379489
Ni 8.430657106233276 9.309708376689644 8.884420902454815 1.5148983535050233 0.27065334492034676 0.9000285455651984
Ni 0.8772014269453917 8.985929421857554 0.9803532083502657 0.17189727249535555 1.1763259761452 -1.42078132251394
P 5.901667494878992 8.498115358938062 10.12160751067705 3.6522409848630195 2.3166703919894682 0.00522036785867488
P 8.299477848119988 2.823471552205453 9.114250343093985 -1.0130550118662744 -0.8590834706114044 -1.3090460642204618
P 1.788019299420173 7.838209509086414 12.126220949067768 -0.9703168495677998 0.0016673604000939028 0.007278278828968111
P 8.768981277301405 0.8698123819769346 0.283961308010071 -1.4660923877459136 0.1062238415569461 -0.23359654927736542
P 7.905968243985876 4.004197556048047 12.845312401202028 -0.20687173168801143 -0.05623773944680637 0.45201176282860217
P 7.412257217995865 7.266523353577954 12.88915369241213 1.3970644385129745 -2.414410107334803 -0.23466767085435716
P 0.6221014337339609 7.612819692873583 3.2075112721729764 1.471703306174788 1.3033058193025748 -0.7494205214659223
P 3.229930060916389 9.34279897837835 8.956490617841022 0.3964185989443302 -1.0495507927994634 -0.39414240131564376
Ni 4.546549137301252 1.6115986908709639 13.496470463161167 0.4579384127256823 -1.1945926356648715 -1.423434186755755
Ni 3.09615914387402 6.341958420696741 13.139378362014941 -0.5277464346577556 0.12656538132777556 -0.11211809555419401
Ni 2.3991531330484555 4.125686263383031 9.329181500918372 -0.8548478352635019 -1.0631614416043627 -2.054299598792888
Ni 3.664586945583961 6.242827466659376 2.981130803724573 1.4233637385291358 -0.42911068986071255 1.013591601096035
Ni 8.661239630372853 7.253668349686967 10.627911557644564 0.5567888446366926 1.290177509450733 0.6990826924433187
Ni 8.998493333622449 7.256579270947891 6.658828163064995 -0.7535967643307989 -0.08354722589503676 0.9679905154274684
Ni 6.495204339981556 8.748341906554591 8.015787913091986 -0.1880466285617084 -1.2222343086415401 -0.7449187769408268
Ni 0.20244236660815998 2.460986734671648 12.775826832690036 -1.4001980990459497 -0.5496874577052211 0.4333005595723441
Ni 3.5566199370094025 6.184768672606802 8.573038716166833 -1.1117689181994206 -0.1560947582454602 -0.4358912031176558
Ni 1.3409299639478771 0.8224695341919972 8.106191737387725 0.30340405698880646 -0.5917779591173679 -0.9801613464620472
Ni 0.014301074452865953 4.009268193083206 3.7618887142612345 -1.1038460638079182 -0.45505029254460994 -1.421043060815759
Ni 3.6213550698249364 2.526858065785801 3.7730891880677864 0.6307700241098492 -1.884847445403915 -0.7877934648171658
Ni 3.2748709291576343 1.8184712918368795 9.941762344115391 -0.8346677607712011 0.014801840899522894 -0.9327424908584516
Ni 7.694128296739221 8.39336914388769 1.1814340150137996 0.4568222968433681 -0.7359721092705002 -0.9216867472649222
Ni 6.591302301866408 9.077238448764756 12.707522534805864 -0.782157349577311 2.2311673279196413 0.07294271090631309
Ni 7.481865796406302 1.1454662963110696 4.6366506013886 1.726909206191813 1.47458217038448 0.878085979855836
Ni 5.019254579869687 0.974792409735041 11.29171334695156 -0.6919604795762405 -1.9583686545215178 0.2596901610406237
Ni 8.95268857907151 0.007052880513163242 2.832428738627376 1.8520288562119975 -0.2632724790752433 2.9733072565637504
Ni 7.4500616341135535 4.3983175146400955 7.3514771820677565 1.4795837373641292 -1.4689936205531087 0.284741961802929
Ni 6.695062559715501 6.179153411593792 2.4754042459749512 -1.890883110075034 0.8024616083523018 -1.0077562253611805
Ni 2.476320716668713 7.542516249387957 1.489239524178278 0.6116024500424628 -0.231012333489957 -0.20082192594950574
Ni 4.135583395670174 7.734242669728482 10.373810667730432 -4.281792048964103 -0.505904913302632 -0.5663566908307859
Ni 9.513547985503047 7.14787983702381 0.06972407625401547 -0.056570440195876766 -1.326423893377277 -0.611903012002017
Ni 9.151025607694908 8.842777826300141 12.269536870825398 -0.015878876013785556 1.5705264843922888 0.2976959508604357
P 5.802837023036303 8.052293682724557 1.943331972800244 -2.775371393912788 0.6357631064490664 -0.7040912014015035
P 8.39295598087001 3.4697711926794237 5.672388312258821 -1.1566477809899822 -0.5706540326545592 -0.4221255167921311
P 6.097826027590989 2.4053224081078994 3.3922758956655974 -1.2844537195930783 0.38078166373802164 -0.3765838236065901
P 6.861445184948811 7.2773219324491265 5.8251036926686615 -1.1254145340073134 0.6146646339075543 0.7985213927576312
P 5.091501767552122 5.719227852367676 10.017199338095686 -1.517061422594613 -1.2132215636199688 -0.8929186739932944
P 2.5997437781319244 0.9585569811539477 0.336618934613342 -0.20249802810034803 -0.21276547146462713 1.175178492804318
P 3.354113717934874 9.200464318787711 5.87704016200471 -1.008166830536038 -0.0052013416952813646 -1.7682502310324448
P 3.680521891970378 5.237836596359387 1.1696738931196635 -1.4295935214889315 -2.2086583481838478 -0.4914200894228956
Ni 4.448610721974009 0.5749088270463615 2.023854627925432 0.5567608196122348 0.2187905946127845 -0.5887571700131732
Ni 1.4114305988737585 5.720091738677371 2.660211124776199 0.773581434982842 -1.0031742624174529 -0.48312648195553565
Ni 0.7227244696692637 5.0431710845521875 0.6805949879619567 -1.453519950397542 -0.7162296365362504 0.27484887105893313
Ni 2.089525011571895 0.26981704770255166 2.703997014581658 0.07177414451950864 1.2405547042172829 1.443596777746559
Ni 4.608176157415605 3.0140054338358553 1.280184671273527 -1.8018424651655935 1.5235771122259438 3.3685333778618762
Ni 5.158236984975969 0.8919860899303145 4.613411120650978 -1.707114797173705 0.7079188026777099 0.9833597987946872
Ni 5.331737282195671 6.99053045776795 12.141682635997572 -0.14532877797820778 -0.009594328556654444 -0.2000688498335651
Ni 0.6659586880606553 6.190111621630887 4.708376640264644 -0.1256312995492804 0.736115833937216 2.279103489479288
Ni 1.1735238212389512 4.160204155496448 5.51943911914125 3.174008854885308 1.0750692487855422 1.4670071862506993
Ni 2.4468265112475365 1.9698673676107192 12.113687085522342 0.6685251313714357 -1.2670648346926696 -0.669341456625144
Ni 2.924414789479458 6.254762243829168 5.858596189292747 -1.5731356398803618 0.6180024400315357 0.923129650359036
Ni 0.18591772391469086 5.521210086076122 12.08056549660731 -0.13012790186805331 0.6297472392722897 1.8913201976124525
Ni 0.5268992843919865 2.619716454009302 6.831952857541351 -1.8643202719848406 -1.6425538825731842 2.9615120637010355
Ni 6.420562684810293 8.682235823725847 3.843125953605637 -0.17911050241434312 -0.9763712832919961 0.060869067571230645
Ni 1.3361410289702267 9.33615080982114 10.262682962070624 0.5581016499108452 -2.7639729222678593 1.095845819211261
Ni 0.6917006220758141 2.014113370776776 10.070702070871484 -0.8398871001886116 2.286259898018411 0.4575622603331862
Ni 3.6301066137448776 8.822908441177184 12.594799456493698 0.07682687645206769 0.25706352205105404 0.6960927565770592
Ni 7.980084055316455 7.105014173939546 3.9025106253422193 2.5172573191100325 1.2269204012633 0.9735998911944458
Ni 5.037123880384331 5.842716644310973 5.318552686897398 0.4275430882632766 0.9343743700349199 -0.263585639440288
Ni 5.418125913165051 6.101469374201436 0.4786972453316472 0.8642411035529438 0.770988220334369 0.2776989389132185
Ni 5.744562257406306 1.4270838432026671 9.257194418135702 1.8774750641992441 -0.9510492595874395 -1.5597543334774493
Ni 3.8916669741418453 8.391387839416543 3.6142721410923055 0.13033847521696265 0.03134740396302989 1.7028025429515967
Ni 2.173998068550216 2.7549146614763824 1.9217000718041395 -0.9893093315099026 -0.6525344123701343 0.7016879912766496
Ni 7.451254172823674 1.2503158021158636 2.0724097335645157 -3.6576634414301714 1.1787847220983378 -0.7386154604306182
P 8.145283531908229 4.827086826305733 2.359287596876662 1.4917193442853987 -0.8359841655897795 -1.6055896466440092
P 8.960454165790171 0.17218662662485112 6.760006152053591 -0.7988998591429726 1.0952814620673588 0.2285687570454709
P 1.2276106162806502 3.765717984229638 11.516773571757106 1.7426574701650053 0.39099125728117173 -1.7027269525186546
P 0.5134545841939475 7.399805987053974 8.800806097745038 -1.0945111595602375 -0.12078579853152102 -1.0632953960790656
P 4.395040380704409 2.715974047060076 8.193694969497983 0.2227143551472229 0.20110191908376976 -0.8977307506699572
P 0.6178120504049593 1.9923190215941746 3.6013946010367173 0.8460672608573944 -1.40766021175095 -1.3673021196488775
P 6.152682808256544 2.4390797046660437 12.176604301060085 0.298934194142911 1.5043015518257836 0.3453665174635213
P 3.0133669091721687 4.219014155035712 6.953677255597784 -0.3025442800916725 1.2770844237122008 0.024038529006442474
