# total energy = -340869.65682385786 ev
CRYSTAL
PRIMVEC
9.23377185564661 0.00000000000000 0.00000000000000

0.00000000000000 9.23377185564661 0.00000000000000

0.00000000000000 0.00000000000000 13.51455847470122

PRIMCOORD
 96 1
Ni 8.754317491575321 7.6509463905024 8.438422769168273 0.8418151704492599 -0.6613530391030288 0.3299761510503801
Ni 5.303601544218098 3.8618865745879067 13.027250960850964 0.3348455633275395 0.6742905731003033 -0.6550805758307556
Ni 3.292061279229091 1.2784157142556114 2.1367732958636307 1.550705850121936 -0.008893960055520166 0.33093414408827526
Ni 3.740776422849542 7.237781268549585 5.086514644371793 -0.4297123280004535 -0.7505240389427461 -0.6555922253598515
Ni 1.3746870196859402 8.366646813732723 12.333548152326825 1.7394618460458429 -0.42744641478441225 2.042956662976243
Ni 1.9675875109272027 2.7799101229186 13.404522564822887 -0.511533572343319 0.13168753304568934 -0.5255795089134239
Ni 4.856539245760895 5.475866792070411 2.349127887630802 1.4215516250210616 1.30525600105041 0.5554423579111273
Ni 2.462416111225101 3.3429855310464958 8.383851177465486 -0.2503907380165688 1.4763230643349865 -1.9512868079740715
Ni 2.7263080772612955 6.30840213066712 2.597051891986518 -0.5313876309547687 -2.2651884220600924 1.2351746708522922
Ni 8.230614886665814 1.5313379593200784 6.813310316329275 -0.2108613124633788 -0.04929678935259897 0.7450517029742653
Ni 7.453648387132956 1.1148486794970422 1.115002883487133 0.8204606160328839 -0.6354147219707121 0.28268327950168737
Ni 1.1000100081152528 5.647725753960807 4.615464853372205 0.7433007817214295 -0.2727161409866464 -0.1082573270472071
Ni 5.8160481812281635 2.163546617376698 10.838027070681186 3.387901240865527 -1.0196609472185665 1.1359581138511146
Ni 2.9411594809398767 4.892107734972254 12.663505909279278 -0.06935113690031282 -1.1289778258785395 -1.0244817656459775
Ni 4.297849879267318 8.27448453678086 2.9661211364136735 -0.24090259602047545 -0.2894722773990628 -0.3270785177876109
Ni 9.039013145615979 8.899056865507836 3.812592083504096 0.47576284250161294 0.9452462797524173 -2.5555292181070377
Ni 0.5896114217041167 5.981406567727907 12.436137204464943 0.07140544832618025 -0.22606090302195264 -0.4115950495744524
Ni 5.067863348588298 0.19617887021980404 8.500252105554372 0.2244449646850844 -1.660205019996044 1.6993814330851895
Ni 7.351864519901178 0.296100285667072 9.197535770806487 0.946999257887782 0.8137862893365017 0.3794948266057981
Ni 4.615242319470338 3.0819837356030204 9.295461768154437 -0.6065913699811165 0.5827235622245835 -4.282751584663895
Ni 6.897064320623851 6.696820744030517 2.1860206947109466 1.3941624343748311 0.5352630547497749 1.1217260294121325
Ni 8.689634919683948 8.153614463110902 11.306225472929873 -1.0231244802871349 0.8610331381386075 -2.023983978528482
Ni 4.84777639626412 1.364372896516395 5.055660919073031 0.925583254105851 -0.38541890539971685 -1.4225528125920663
Ni 0.9679116678614371 1.301001520229387 1.492561657763957 -1.92516285719351 0.3460406607124105 0.671312978529218
P 5.807405370765591 2.5601186512939966 1.7742997346773044 -0.6599667002784634 0.46661100079901574 1.0388413768017595
P 3.666813910237137 8.18784405540231 7.542799531080709 -1.6466784462645188 -1.6682795694740624 -0.831496305021755
P 8.230836497190495 1.6356426462701066 10.831593901825123 -0.505986931493477 0.5811575032890443 0.7190707055294713
P 2.6284947319300587 0.7237790502321447 0.21663721515663853 0.11258166545417385 -1.4562491764032468 -1.726936974105955
P 5.799713638804775 6.432771803872672 0.4079175694037983 -0.5496684315418275 -0.7012740436676825 0.3502554701247065
P 1.8748804414354994 7.7902747741239455 4.001958276844321 -0.7935064560415431 0.37306526893037045 0.7923954823655515
P 5.842659911733651 7.162230547176963 4.140535954813507 -0.11023090583381015 -0.23886011166914994 0.13311912328589331
P 0.7023834774513453 9.277724615785253 9.651719154123452 -0.7775370771964804 -0.9855884310148896 2.0124703214619277
Ni 1.7856822052512509 7.182618715447649 6.358194322054277 -1.1346062278089104 -0.009448804117725662 0.9973957080624628
Ni 0.17531054581230907 6.193386268357492 1.3254146896545977 -0.14857608127091187 0.015493981870541058 0.14781323496295834
Ni 1.672725474066788 8.161038415687727 1.9252977591776956 -1.0239395199892625 1.9373869100635275 -0.9829813324093458
Ni 6.378024770504514 4.745290762370851 10.421684607830752 0.056298674591728846 0.10088751694569721 -0.32911688837387837
Ni 5.223369300511583 5.248143510416586 5.4968034463896815 2.2650971478978668 2.3429959172578743 0.9827237078725849
Ni 2.950947279113303 1.3580846978785612 9.592606393419072 0.6022929997160789 0.6688246648897256 -1.5160720620981505
Ni 6.380444018732286 7.415014285663505 10.364341961192261 -0.2907532009940154 0.5053999486417553 -0.046490687362371545
Ni 7.350230142281652 5.24323114378615 12.863440154515244 0.4588408699352936 0.714609327324008 -1.556574650197887
Ni 8.102680977521635 6.883389104496638 4.811264215568492 -1.1565377377746793 0.0630035974157302 -0.10320176690117064
Ni 4.863002886064101 3.2445442892286622 6.572129735564175 -0.7547198221916486 0.16500388780963193 1.990754784161707
Ni 3.813086090298698 3.9221831048449607 1.2973412530633999 0.810559811979404 -1.5589794029846376 -0.953661757509622
Ni 7.704557669931567 2.378638099123684 3.103523355224863 -0.3732331619668024 0.6035237867993863 0.14503721487971796
Ni 3.7111083138578245 1.224481252811285 6.972930836994144 -1.2353016833484596 0.6628401651715164 1.8228424644560284
Ni 4.779344912996887 6.467887838262807 12.10263829600352 0.6637752753912762 -2.207981890942113 -1.513880196653154
Ni 5.7876450989815025 8.556991786890292 0.9445012860604096 -0.6602685477895983 -0.15313464717587177 0.421143612494836
Ni 7.753847544129447 3.420927799331303 8.413691034613832 -2.315124644768903 -1.1001719573904407 0.8207814897074123
Ni 2.1918111930454334 3.4312696238164335 2.7150207145375247 -1.3566258708819539 0.15196273835495763 1.864085016045583
Ni 2.3521187063368143 3.4918524010012013 5.800056211740844 0.5527349862822932 0.4192443385895941 -0.4075460763160594
Ni 6.754734961147246 4.758725900429658 3.7693586402703203 1.1102175145519007 1.9967678231250063 -1.5230706049031706
Ni 0.3146657073722532 2.6410064928026937 4.577731968036459 0.5395871360464256 -0.7206179954119332 0.6972631227360765
Ni 2.099205695044209 3.4218419427456137 10.626510905399059 0.40115328541583817 0.8500540134192844 1.188744661524527
Ni 7.107271137055986 4.255596139228071 1.3376300464504718 -0.20378229412941032 -0.16485296405406447 1.317932310966498
Ni 1.2875202133112709 6.430250984154422 9.972744160176875 -0.4468541298870627 0.30923634739986744 -0.815324323247583
Ni 6.702850397056222 0.471340654813232 12.470031610837772 -0.20870312846979538 -1.7686909181142896 -2.333743802531987
P 4.8366866362581895 0.17749802636635134 10.74687127486225 0.5366380807204306 -1.0927072735822791 -0.3414057330435604
P 1.503202656457407 1.9002640802833772 6.991067811684941 -0.9390913158946149 0.05059159690462255 -0.41601477590870295
P 3.422949995369021 4.967870833097694 4.541189315893688 -1.4892860522535576 0.5241404624740521 -0.8413282035105124
P 2.61189241012268 6.7924087503430775 11.53874385231149 1.2203905705645821 -0.018928461473386757 0.20434716549394483
P 7.229369302383555 7.89830990490611 6.979472040980988 0.6688796864973771 -0.22332576347897667 -0.1943733421106846
P 8.238971450200673 8.476861114674254 1.814626386529009 0.962989205558135 0.050401592381003515 0.8153199523722087
P 8.282333242863327 4.7899175817785595 5.138221920043072 2.007934124154471 0.5460354627749305 0.2211696363679223
P 6.133560660465386 1.926275615617852 8.176970365657944 1.1351176202276902 1.0360507014304994 -1.1606949544761622
Ni 4.129776763840227 8.497932582062708 12.64150460106435 -0.501994265394316 2.7268415646332005 -0.1941493990253366
Ni 5.093311623839208 1.5298697895940645 0.07850183485962807 -0.7553718539533506 -0.2508440235039035 1.5139568155273604
Ni 9.031773868476387 0.9052023530169147 12.753837129270961 -0.6954641218541249 -0.1757968646600779 1.108678195089239
Ni 7.376287846475437 5.5373360113539025 7.42299318792922 1.3112754677716127 1.4119848072682328 -1.3242680233765387
Ni 3.7601488762154376 1.746318635804724 11.797939521978812 -0.9341221448147976 0.9232798027836552 0.4851607387767451
Ni 5.042765956668133 3.5065248644894798 4.060867894567744 -2.429815643256596 -2.2987564878235247 -1.971977246443888
Ni 2.2611106508676677 0.25437010049238523 5.484950976827974 -0.2859966601456365 -0.129659446872067 -1.5091467957332267
Ni 9.072642542736375 4.351193379312494 3.0268147188607815 0.17572667354377478 0.5242744169487552 -1.0597182202507685
Ni 1.5868052268934512 9.118257375733288 7.819375006146167 0.6034877913551284 0.19385063683799517 -0.93988527255082
Ni 9.249653949325612 3.82091632883744 6.781294982530307 1.5602158464949 0.3632822214016776 0.09475029369970779
Ni -0.0675293437563421 8.770670501542433 5.935202620086216 -0.5869304012170795 -0.5101585463726633 2.375866699843966
Ni 7.441986133271599 2.6516253304436757 12.939514430752427 -1.539231530933749 1.2088298623101763 0.07599820990318525
Ni -0.02051282419081864 3.4787127436419687 11.9131917688481 1.2411062058453786 0.29828447637405403 -0.5693268292027034
Ni 2.778608161086097 8.407469319133403 9.8579517551463 0.8886141330806697 -1.85972391086341 0.5454777904992477
Ni 4.010781145858197 5.566736340961631 9.71276454327849 -0.28514356811672187 0.47945417531027107 -0.23953759735214877
Ni 5.34953032545831 8.515799930615142 6.060671112143314 0.817605663082592 -0.03214933103903495 0.2797823038048085
Ni 0.5035572848387851 2.1588558612709425 8.998330993547597 -0.6400586485006268 -0.5923741979404702 0.6774702563798655
Ni 6.052506611063178 0.6293286446129478 3.053655446908439 -0.3214156630748787 -0.10928191165697952 0.1842982172628697
Ni 3.510366113583957 5.633755057134019 6.967132951642167 -0.5156553078211764 -0.5191003289469833 1.494999043477935
Ni 6.941635737400391 3.27426780085155 5.645396073320095 0.44671091944097907 -1.3594479137117814 0.22747552398129212
Ni 2.946413497129197 6.907784729755312 0.2882248016462081 -0.3173312085928599 -0.016401067065842722 1.0248576609281577
Ni -0.037548209898512236 4.592841188933797 9.722548647943174 0.0829090780904056 -0.1053892614707927 0.3263866339269088
Ni 1.550553438564325 1.1847298649465654 11.438208391035417 -0.19199250058333386 0.7109527044080273 -1.144230638272552
Ni 7.788982046063304 7.6458862835221755 -0.07550732264487116 0.6314410820349446 -0.28741745175256306 -0.5175306704670184
P 1.7672054277559424 4.715835030131952 1.0060286781066317 0.07875263271987082 1.9191151083375335 -0.1951053351807027
P 2.9555456975004413 2.0171451645090728 4.175944699771659 -0.3601213071751927 -0.8191364979048216 0.6447264862899412
P 4.3425321013061975 3.9126446185118007 11.089952068384585 -0.9055800715110469 0.7869791964459866 2.828635909663883
P -0.1536296494809824 3.4011675275472153 0.8944274646314696 -0.25823388821007137 -1.2393005200952074 -0.26771046024193895
P 8.090252320595756 6.158104026073848 10.961320086087662 0.2769695169463617 -1.0018432023108552 -0.22098631671252264
P 5.603357480165226 4.790979465542659 8.152238631103504 -1.7101286442993644 0.44255241718791527 0.09518172481017156
P 7.299056578623982 1.1201396307738098 4.861241082392884 0.2726354083473821 -0.19153150178651532 0.18420617176969564
P 0.7391708245484515 5.652721224537999 7.8122936265054115 0.4436451360314618 0.55141292503676 0.30975005381149234
