# total energy = -340891.4682256042 ev
CRYSTAL
PRIMVEC
9.05459778778575 0.00000000000000 0.00000000000000

0.00000000000000 9.05459778778575 0.00000000000000

0.00000000000000 0.00000000000000 13.25231911519399

PRIMCOORD
 96 1
Ni 6.466250437718479 1.7512406963742309 11.280638916676052 -0.995060632171383 0.9204127656485053 1.4262906823679435
Ni 4.63781929551913 0.6264876183741865 6.081078714919002 -0.05250321210503861 -1.6994940474036537 0.12582104696258334
Ni 2.5828602267915914 1.6320731353766493 4.839137410989689 0.6583800725176339 -0.250011243189963 -0.49760950606305904
Ni 3.412668837658802 4.499863444188748 5.114692362499073 1.3539876619281586 -1.2563255938982942 -0.7466892385776882
Ni 5.293100534740692 4.498532418319388 3.008554896364762 0.7829371651661291 -0.16416056597273018 -0.11976764167965179
Ni 7.354787169597035 6.399816854021248 2.5372893417718565 0.9587733677045747 -2.516037073549686 0.8384531959555624
Ni 5.25211942532081 4.484968630888769 11.717846507289297 0.4433911110391267 -0.14240723345603862 -0.8236780945289169
Ni 5.720513766966954 8.045879342922802 12.556267851537017 -0.6331855755298773 0.40540846114776635 -0.9331811210577672
Ni 2.2568675439714463 6.489077078648112 0.4014048056470167 -0.11017691266742316 -0.04241677440331404 0.2813797301989154
Ni 2.7656453915859216 1.6586031067863383 0.236285161064394 -0.6933797285212704 0.29749720458606826 0.616517627955893
Ni 0.39712741366956383 0.2679047218697777 4.758072502787026 0.7034435405151757 -0.5639745637518545 -0.8782780412619843
Ni 8.804029867190602 2.4066396453665524 1.4979093495842806 -0.7382719610482704 1.537533831516352 -0.8428816640405613
Ni 6.940484994913854 0.7429668692995713 4.800718752733269 -1.1935485106710735 -0.6706953995498771 0.7658562984244423
Ni 0.9463865569080788 7.437555247636614 2.313006955485853 -0.6507652362848535 -0.429509467961028 0.9558762486624377
Ni 7.780670174803421 3.8153086904390205 3.6306845368415144 -0.25266770697620355 0.29135355358217563 -0.19798214250786547
Ni 7.594761173785083 3.9785630878849894 12.611542548966229 0.3889670277622914 -0.502293798912606 0.5833773937584986
Ni 8.10924341798253 8.918633910921805 6.809292928103281 -0.8504584479465548 0.024106149019584293 0.6604912053233658
Ni 6.9296285322107085 0.8891832301579594 0.695534358982283 -0.6684567400273456 -1.1438634847411204 -0.8469560912202511
Ni 1.8881824327565289 6.530710119106047 9.10615915763865 0.5313117834115108 0.47425977559352517 0.38344069862742347
Ni 9.54934097184784 4.936403710947764 1.6863708417085541 -0.6856016272377482 0.4004727144090458 -0.7860122045470269
Ni 6.496049118916188 1.9746447866784123 7.098472332848214 0.12855875760872054 -0.6572814401368163 -0.3396285865384796
Ni 3.467938102329362 4.2317296409958765 0.02127377741538013 -0.3513667009110142 -0.17255984578001896 0.43736315967749195
Ni 6.413154276508099 5.745785149289289 4.900137330576696 -1.2967217383271539 -0.45413755092235336 -0.6939641402698307
Ni 5.420489670495951 3.0893110427841246 8.930883876218791 -1.1259925179979704 -1.4268781794402976 1.011132340922265
P 0.27281231385068255 5.658462608581085 12.727487578624318 0.04709592504653825 -0.42206123921309896 -0.9955910507535564
P 4.19819141092711 6.260167792911477 12.43266353764157 -0.3408542314154646 -0.37862759350949626 2.1919243232586183
P 2.422458027637108 8.571109394650383 1.2226685926168477 0.529256700654695 0.0158639636154501 0.669367681877389
P 6.2008420684485825 7.652565725825852 6.206127237155693 0.8847037422826699 0.4348447641310124 -0.5570577820273632
P 4.56195082096562 1.0800505289046063 12.545003026475312 1.7985087728066704 1.1003835591806146 -0.48466528719756524
P 3.956180122245143 6.046225757256826 8.247474529084533 -0.38004529979262935 -0.8665137016372044 -0.29285096406330857
P 4.658001993905544 1.005114677919424 3.9642187941282563 -0.2820888404507981 -1.1112984063209055 -1.69515222549519
P 0.11039546669665785 5.673284985099058 3.7040095748868387 -0.17216698121697446 0.8782847261302035 -0.6479691615969551
Ni 1.5697775028515097 1.174734457584168 2.5961958383588915 0.08790961662879054 -0.20712164291528845 0.20048562565600955
Ni 1.9549963095592913 6.218254059923269 4.715506838760764 0.22756936924667903 1.9021270584199692 -0.9701301874782905
Ni 5.982943173576855 5.520325665295688 9.19305432133302 -0.3286929134625823 0.2604949163301062 0.48044739246147583
Ni 8.686057513096118 2.0523875629663264 10.374498235850494 0.8344687573865177 1.0690058162002816 -0.37761277909173674
Ni 2.1885958769308136 5.207751896342151 7.065421240138437 0.6063874815004267 -0.35059716973484134 0.8273480871813363
Ni 0.5593658852478989 -0.04888215141718288 9.095609645799257 -0.9438077475336779 -0.9929538702410254 -0.4084418486574514
Ni 1.3200245330926548 0.7181355404279226 11.740547289310195 -0.8500409007931619 1.1931314777383129 -0.8517090325242042
Ni 4.22486625590081 6.979908713520607 1.9164572251527867 0.37124467078186385 0.40527219268021825 -1.484311481857102
Ni 5.184409143340724 7.828396959547609 8.314822627154589 0.9317104500495116 -0.006439584977756651 -0.40840071100687086
Ni 5.076586993324829 2.83374502126929 4.852694860201883 0.5941924820961315 0.7052021750774952 0.525173788834573
Ni 0.8074491871815161 7.183854473258433 6.875819774157344 -0.5831693915127504 1.5178417524040633 0.2437596058532963
Ni 5.167640028306341 4.445472475500011 6.921010366071548 -0.6933887273823349 0.4143237613595252 0.5454816471539896
Ni 7.7884480742713125 7.342119787343741 8.846307595008389 0.838270390520795 -0.4046692689888966 0.1717923714863751
Ni 4.497798995901578 0.37820783166937794 10.434690485318134 -0.1712285285631051 -0.855395737347172 -0.18994924490105997
Ni 8.221882614001823 7.279959973784862 5.057111459022747 -0.37860625335325765 0.1934012080054024 -1.1117061832822854
Ni 7.233727197669547 5.8617292734876045 7.0982332914675945 0.5536649542957303 -0.3050012262725973 0.42685351839541963
Ni 3.115650867641048 4.979729961185088 2.290040873750858 -1.5283413663838066 0.15007529152425766 0.7796610655180185
Ni 2.256903762362449 5.48713150994145 11.452866420493011 -1.3415769469686314 -1.6372610096053608 -0.18472630593922382
Ni 1.371192064982126 3.4730811138517863 3.627318942857561 -0.9232147538736747 0.6492783673266818 0.7632635979966017
Ni 3.730041543420236 2.6827867675688353 2.561978513458819 0.3783812818266451 -0.7321442508839778 0.16526459767018636
Ni 1.0437687557173632 3.242877020636794 8.275542876652073 -0.402750454699629 0.24445148971399833 -0.3127219919556227
Ni 3.5013133496386155 2.628866637963137 7.0583840067665555 -0.13664899081602272 0.07375209418148589 0.10867281731807091
Ni 3.9543692026949935 6.693665714826241 6.0879167471403655 1.0021481351457837 1.3078553863464701 0.31900653941275386
Ni 0.4889754423335915 7.1731609933148 10.958422001117967 0.39017904579252155 -0.20237127271449662 0.577647690363573
P 0.16794467908085578 5.589258317972126 8.228126664610738 -0.9616056949470472 -1.116975659211341 0.27395952647544425
P 8.5767504090491 1.5252560457110866 8.132868674433778 -0.8654706050846708 1.3769041615150157 -0.523002492214867
P 1.657643319424759 3.3946954611235696 10.472671806503193 0.03755456121500629 -0.3265974643861343 -0.3789127288500829
P 4.173291267112555 6.189569094248903 3.9416239509010422 0.06388985667542545 0.021146809280944225 -0.5870041918778084
P 6.89036779636347 3.788977920179849 10.390692383927703 -0.5336592005977647 0.15391626253690266 1.4369152519613253
P 6.325288459934849 7.804483766887886 10.369383293581095 -0.9188431071685401 -1.1453814640475435 0.33823042063937236
P 2.2752936503942167 8.298620329939403 5.707508648217556 -0.11416237967773242 0.971219049667095 -1.0207428674288357
P 6.9432194834345795 4.231104873751074 1.5778478658267507 0.3108815963127743 -0.8867459695236792 -0.06654477779976926
Ni 5.43343774527952 2.8346142626533615 0.43600695095149644 -0.07925605471885061 0.13989475144683006 0.08650039498608975
Ni 1.3030199985167519 1.1070694485928354 6.795299047279501 0.17162370711899474 0.31507609401009606 1.2171265551013297
Ni 6.7341940943585845 0.45722458986082193 9.28177851377304 0.4958626985752815 1.990649368932094 -1.408441827111981
Ni 2.549729453621608 1.4267148583897071 9.200594990339845 0.04918006126907659 0.7167076046139335 0.1605597359953493
Ni 6.196224223595701 1.7882468373815341 2.6915461854329084 0.2446096125584174 1.2387263927592924 0.2236715768541696
Ni 3.9637044929760137 6.618612154070299 10.415712953892344 1.0595104751153366 1.8322979534419732 -1.4927297878277839
Ni 8.298602220743902 7.458869770741872 0.133269191534595 -0.7165389402465531 -1.0360805262271704 0.41174880154349736
Ni 7.631885024563147 3.674292385068887 8.458001170467602 1.5881773647048327 0.35044958841338353 -1.636665027892575
Ni 3.149035169548052 8.479015080927537 12.36614936802436 0.7020044940758039 -1.4257813468316929 -0.0845970073157898
Ni -0.166856316431216 4.779378876754309 10.433630191921521 1.190230244931118 -0.5130142706539036 -0.3224325343751673
Ni 8.561276101493073 2.4356686857554477 5.623078146030941 0.9323311143526459 0.5807319857158515 0.4744688062805376
Ni 3.5949831633700935 2.765545791010663 11.11900076492859 0.48117192933232616 -0.763438175901253 0.8561935506581189
Ni 1.0342976464700817 3.276351868521306 12.643109593104658 -0.4762441530134056 0.43416239335200707 -0.33429406169944365
Ni 2.9377189672411177 8.52500338290358 7.750075594463422 -0.27223791579864726 -0.4129430789619146 0.3964533088370076
Ni 5.697605634657564 7.809626778410311 3.682567381953294 -0.33009802134022503 1.0156137737323863 0.840465598399901
Ni 3.187182189871949 8.464437178548835 3.4735782112683027 -0.6733300089592469 0.06628663904237617 1.1533228303818073
Ni 3.2962538743774474 4.086892295374927 9.116720440455122 -0.3001765511904443 0.833193747328836 0.29266584463569595
Ni 7.2435967092178615 6.144558688829939 11.399935958421468 -0.4489837746355558 0.32141334908203356 0.4323531080574102
Ni 0.4445916150789797 0.21909047993572542 0.6669689139982263 0.16304033632535792 0.44364745002430683 0.34944942928364336
Ni 4.502326294776951 0.38161779318230926 1.4682111744216053 0.4153126076353557 -0.24603940302640853 -0.02272289551881248
Ni 6.061174898143309 5.879313302319555 0.5064390450154572 -0.8129853907017611 -0.7265449024193295 -1.1442213823011715
Ni 8.044602644639946 8.81590949943958 11.397007701508878 -0.717568409952332 0.462194616898875 -0.2288261244719156
Ni 0.17574793142244957 5.139045608609482 5.7753076652556 -1.3348427135685914 -2.0868826749352314 0.41370592526986816
Ni 7.778361252376981 8.737741157057382 2.674503621546452 1.233257142114605 0.44247348432086375 0.4626237340164936
P 8.36125098258132 1.6463884544205805 3.412432512657508 0.619538674170404 -0.06943238376020945 0.9185307181344439
P 1.8645680418225807 3.2750842248362013 1.5114803806931003 1.013883164194525 -0.7110563198654271 -0.6475917236528783
P 4.571277056648889 0.9887620743815749 8.241087415831156 0.6606650118970687 1.066179659605396 0.5978388205994671
P 8.355229675077075 1.5788049368090047 12.598343661824964 0.987706505799157 1.100196125760157 -0.8906165082226791
P 6.372671169964509 7.819405743981117 1.343188910518391 -0.6964455119307876 1.3302661499415025 0.5804784749441486
P 1.7236332278322033 3.4375870906688584 5.899177278865144 -0.9115342322119526 -1.6886113390528787 0.2925496307728058
P 6.852419977190089 3.775006675850446 5.843304977984384 0.8868737533507952 0.6533031722153587 -0.26018612684043574
P 2.2236371702262048 8.511032138574178 10.24405588973368 1.5860153240565074 -1.0032567948289302 0.4371942381997954
