# total energy = -340860.7845028959 ev
CRYSTAL
PRIMVEC
9.33003571975907 0.00000000000000 0.00000000000000

0.00000000000000 9.33003571975907 0.00000000000000

0.00000000000000 0.00000000000000 13.65545037033323

PRIMCOORD
 96 1
Ni 3.317732650068549 4.726465387131011 4.455350415223242 -1.3507532141512608 -1.4448404203456728 0.3055097904778996
Ni 6.931637948510892 2.0570582470863465 8.035399813679636 0.7228540838313035 2.6463051005400295 -0.5602292377768093
Ni 1.1060570539130712 2.805233797524053 11.070049855245498 0.5886401848193346 -1.54777145008396 1.1013261255995421
Ni 8.220358438344519 6.328143259285776 5.99317259109729 0.3155319506005921 -0.3399384044694146 -0.14168835301214308
Ni 0.2989399369167523 8.422353707916491 12.582227495417674 0.7481311132305374 -0.9607898839139709 0.12810572923170196
Ni 3.7817712979868654 3.1377562643852555 10.253767844332296 -0.3102779012905043 -0.6007932752421008 1.4335303946494926
Ni 8.772612572350733 1.2959046172040856 12.49218332236275 -0.9329774896873932 -0.17576369742929732 -2.513231742890407
Ni 5.419519087562658 5.60117487964424 4.110195080232688 1.798976199361392 -0.3365088099625753 1.866287680123857
Ni 4.221309272561255 5.080894777454338 0.5016797433252979 -1.1981091334585623 -0.048492548283748736 1.115640485339685
Ni 5.190830586293439 1.8927563211204155 6.548703433587276 -0.7973145169337236 1.5399229005738189 -2.29306457964507
Ni 2.3534081661355155 7.1943624194521 11.873987296127725 0.23189447898459414 -1.0155068158408769 0.5585775611059993
Ni 0.8308275363294944 5.603843269810411 4.245916308310406 0.11054715152264831 -0.37966914740013324 3.8082228716796993
Ni 1.3128759518623496 0.6989213597865565 6.15931813208712 -0.2577867733703238 -0.3088008025243456 -0.42494318874658427
Ni 5.879387209591888 4.520980684264818 10.386922379631294 0.3377735356076118 1.0520984989219815 -0.6810590021723884
Ni 7.1126872882819825 0.18276699931511747 9.14738983719644 0.921082280911704 -2.178804240936893 0.993598702913876
Ni 5.528325962100686 3.9079600287471843 2.2246499435858147 0.10474417168762606 -0.7311962851484117 1.161815955454483
Ni 8.475385629960236 3.1661102424096996 9.584828553772969 0.4069590934643378 -0.1385760326354065 -0.2419176675485511
Ni 1.9002763297705314 3.900775901376726 0.503247189297034 -0.575010509851042 -0.9200939488565058 -1.5455929543754026
Ni 7.783143642621097 3.776406527547887 11.674358123570233 0.3874277082996295 0.500384497705035 0.9073081099457471
Ni 8.136444098643352 2.0942384387373534 3.2141515284398627 -0.26425284071064165 -0.3621187972211957 -0.19575093918450157
Ni 6.333843911004411 2.092988213974183 10.290951767997521 0.13469340975154867 -0.4115947924641363 0.12990678699618274
Ni 2.570070251585876 6.337762525933752 6.3580870753672665 -0.3096664929587506 0.23256733668190271 -0.1458054605043102
Ni 2.923305397359308 4.810659627898562 12.12523395734018 1.2423058825804347 0.6473937487094592 -0.7395770530129392
Ni 7.370196269352947 6.500842217243151 12.326201056994977 -0.3178729400289429 0.46460811143637404 -0.04638527213275883
P 0.25013172196470373 0.2460675584808446 10.565043954248035 1.0756297492747025 2.2373775704954113 0.030904659998656454
P 6.192419232197394 9.012982278123607 0.6308204973323868 -0.050825053071667306 1.2015032467417759 -0.1226796731201242
P 4.077216203588067 9.311347484850721 3.6406797014488417 0.1619555879016114 0.36296031928588457 -0.12183378018006115
P 2.4445719434559647 8.4600004013448 0.029105978889455892 0.23386214423392623 0.7835951104651021 0.6448249595410185
P 4.258452144070078 3.9357915247810498 8.43108009016271 0.010143259081588984 -0.3044127007589789 -0.21690340489240062
P 1.1404848850779936 7.671696368023536 5.226145703838791 -0.25035988477863336 0.32761253591420997 0.548391878822249
P 9.134403360719894 0.06137390682546794 3.0527577745536356 -2.891590141898917 -0.7954946901161655 -1.4693350630529274
P 2.905886220994834 2.762063723052482 12.624258372549072 1.5111458284411265 -1.5615595050069881 -0.435235828921844
Ni 5.21444490626049 5.831533457276201 8.537673880269217 0.7570083611155092 1.344979287781961 0.8862654303428349
Ni 7.662646233543868 2.582927040568332 5.734333146957458 -0.6343382010770816 -0.7586600377863193 0.20089314550707335
Ni 8.347153621415332 8.724814800248321 5.144458443622463 0.6085652058780358 0.9473525274621427 -1.294762557718254
Ni 1.486647863907521 1.125995339874979 13.296625518168018 0.7937111158531814 1.135934973922663 2.1694089157649223
Ni 1.712518694441832 4.9381825537419655 2.354540832450806 1.6112260189941798 -1.4649094231814062 1.8863600253936998
Ni 5.54161193271826 3.0186210404977496 12.116125976640127 -1.762427196592765 0.6153398055977081 2.0242871115911973
Ni 6.499517352195612 4.808103198158944 0.19282291162664955 1.7967892190124024 -0.5867738210345572 0.1899111925742729
Ni 5.724126088070079 9.000955862304748 7.0199663280288975 2.3958691111078223 0.6529923258431594 0.45453375791950756
Ni 2.558780908575156 7.459951211305944 3.495713341148543 -0.4579291567543017 0.5703064195071532 0.6244484527671955
Ni 2.755140836677313 0.8346295258145096 9.735694295549033 0.04047841973002061 0.9378029361004946 -0.49565161100574
Ni 5.761931392102672 7.128455048354805 10.577894212205607 2.0808197565706035 -1.2352482044027049 2.3755905633644443
Ni 6.283872240619772 0.5389177811966904 4.328723172792259 -0.4529820971616715 0.7552368710373831 2.736859096770203
Ni 3.122492326231918 2.0707174191257627 5.2466288638765874 0.6795770183102232 -0.29305870919874044 -1.1935518531051832
Ni 4.879496630157314 1.0329002451964975 8.608545763280564 -0.9591333221471545 1.525694415679263 2.0172284049722036
Ni 2.8124179248945107 0.20242165219642522 11.794935770953156 1.8204395114414904 -0.15195631059705442 0.16588423353205625
Ni 1.0661431618470716 2.1663409534372238 2.101546655580574 -2.946724106758583 0.6335897529468314 -1.9086453191544615
Ni 0.3812056593369342 6.667094120638207 9.041560177001156 -0.25815624089460054 -0.8652757154650453 -1.3923780887808987
Ni 0.14452971463674297 3.079555502648999 7.341456960860452 -1.5043817702444156 -0.6479203106368907 -1.3781040953603878
Ni 3.0965175072717166 2.7852395313488687 2.4607800812065617 2.2805862446724015 3.0800921128304894 2.2936441062976245
Ni 2.152560490935709 6.540970700126709 0.883770823035552 0.525799852454346 0.48157764941117703 -1.2174276312815162
Ni 2.6609727879110356 8.530694080677216 8.023014191492255 -1.5000090950980167 -0.5150894080153774 -1.8555039592447915
Ni 0.007377259106261307 5.544196352564516 13.245526779489415 1.520390486967846 -1.2472544848349618 0.25976343748072034
Ni 1.4143960686389139 0.8576924406807892 3.789974265238952 3.101614560283297 -0.7010873815781733 2.374831830821549
Ni 1.641573104149672 3.3802625482981727 8.982227681953162 1.115862371542504 0.8956522708743735 -0.04471585485013589
P 0.09485753839313024 3.2422526625010093 12.956973971146079 0.7428840058989852 0.8615586716247743 1.1279205882586187
P 2.194694931461668 7.426073852238237 9.802961052825387 -0.60403492210785 2.886817403100622 0.5465576538269877
P 7.708652638821438 6.786275994703441 3.623036604231262 -0.4647644345085802 -0.9877335023823506 1.326691802326683
P 1.5022010331627853 3.082839675161208 4.311462607032067 -0.7578362563334433 1.3965659016100012 -1.1173628673474303
P 8.12189857322706 6.669967771586389 0.8017430165217945 -1.4506526561520758 0.9847983310134264 0.37685481787978964
P 5.052279558434604 0.38194086613796285 11.010075453751938 -1.260171707117262 0.0808090010282673 -1.3407194840643426
P 5.0361572570110305 2.4773296982581443 4.153509770255223 0.18820269452359845 0.4320782571294688 -0.0945435770055404
P 8.174986475484081 5.64824490897406 10.306792302347604 -0.9964400290174129 -0.582394461019939 -0.37201625884056577
Ni 6.720667184743623 9.192464171922959 12.136376818792828 0.8075169113880221 -0.8240398487437097 0.23543308826547196
Ni 3.006417354003517 0.7804285503168444 1.7328497749002285 -1.8839007652199298 0.08822509098668031 -0.37323984683502176
Ni 4.7963846735131055 7.561648598757883 13.422023994917586 0.17714720804038522 -0.7201428555477274 -1.9418683428736492
Ni 3.1140299839916517 5.728884406198564 9.523201802984204 0.26189925287680055 -2.7880734148604884 0.7202009624791725
Ni 8.689612576133078 9.21688087494697 0.9454666160873587 -1.1070851395705064 -0.2098004752990322 0.47836274201830514
Ni 2.7271787201458024 3.7027365668762804 6.8738943585163925 -0.3718655921953144 -0.2180334047317858 -0.2348985559182406
Ni 6.960924930089942 1.8401162605696046 13.61072862885421 -1.1042664391747885 0.33607197953547285 1.8708935543269845
Ni 4.532363327630998 8.1980876434961 9.281268383253812 -1.1920495575280439 0.10264075219137807 -0.5844757690289999
Ni 9.30839919361817 8.295092023068376 7.199507934055745 0.959887940924992 -2.1214275027896368 1.1572784725954455
Ni 4.065385718515676 8.31130762484741 1.7394451770277308 1.9768883105922597 -3.0065089401267 0.36217793259390524
Ni 0.25566350003995647 6.6112538578951 2.4384402440951014 -1.4103806960059064 2.386488955444503 -1.7617908485603466
Ni 3.790205650120494 9.080363794837176 5.761520870538646 -1.0102977608361117 -0.6559256974398704 -0.6297888911435023
Ni 5.9353207726904555 6.374420235594181 2.089584617006984 0.2890729850781151 -0.7130635801034428 -2.102226504381154
Ni 5.809701174098445 1.4078837038277712 2.323966305966402 -0.44678856675644985 0.23818879663373818 -1.6795649125798944
Ni 6.957323536369167 7.30718120927493 8.20646135039868 1.1947962670352454 -0.44227679492902544 -0.13395344626173059
Ni 4.739947288495053 4.942866231586082 6.546982975032583 -0.09279831217965953 -0.12435089017496004 -1.7689490568716824
Ni 6.593592100606428 8.412379899917765 2.6365803429794443 1.0084144277704699 1.0488612229316063 0.2490645630059775
Ni 4.444688983604771 2.294461001555575 0.5723221074622112 -0.3408508889813549 0.7155333818001741 -1.3422251220755916
Ni 8.054703657224412 4.308106593246153 4.181326338232215 -0.13683436735395144 1.1083110415578075 -0.8110475502491
Ni 6.264148545475423 7.6329020802230625 5.307996239677173 -0.7760100990289925 -1.220376172386879 -0.6865603916065918
Ni 8.40691249908778 7.94181955715276 10.659936013772684 -1.657388119372539 -1.5836288261022018 -0.8828458631383247
Ni 7.306593417035528 4.561995520525251 8.047566180031684 0.016763335501267903 0.5432041639737225 -0.4753190700959749
Ni 0.8881997909092618 1.0747547846560752 8.453761406575158 -1.3785267847201035 -0.13183871391157295 0.7259877443642788
Ni 0.8899053214070796 5.252698051999293 11.118622953301788 -0.5451597450381966 -0.02171450885895615 -1.381723180170214
P 5.217617118346146 5.561764809497728 12.29271835843087 -0.3434225063632731 0.18227038819956354 -1.3505858353354612
P 6.723783416616002 4.695582969473587 5.834072159948281 0.9928713378295482 -0.4362876672251261 0.2855156067441599
P 4.439632104338813 7.36213511864116 7.147412747580824 -0.07606685835759157 -1.0380265942099478 -0.4761590494987671
P 7.6466825427245775 3.41940204741385 1.483678113593213 -0.6487880579538245 -1.0608921859542118 0.8729676847926643
P 1.038106405031193 4.9692142519681255 7.42669429960205 -0.48073458468459146 1.497968153408588 0.620640391875015
P 3.799862236910655 5.846713425109623 2.694534791777285 -0.1607829077497489 0.0064364996539631085 -1.5226420020061842
P 3.0110543816699034 1.3707408323189483 7.403725618094786 -0.13759901343411787 0.19276511708330027 0.12390660354868982
P 8.296025026622981 0.7177232474189552 7.2190767506100295 0.02899484457045329 1.254023428127679 -0.7338334656609427
