# total energy = -340872.23865097965 ev
CRYSTAL
PRIMVEC
9.27091035625818 0.00000000000000 0.00000000000000

0.00000000000000 9.27091035625818 0.00000000000000

0.00000000000000 0.00000000000000 13.56891442436087

PRIMCOORD
 96 1
Ni 6.61314409681927 3.534636435575255 3.635980461667216 -0.22100020066959358 -0.78401497161134 -0.7049316950249279
Ni 5.2917983714059735 1.0202543798044414 10.875470949651694 0.2265229302600357 -0.4147698477580083 -0.19476569245309683
Ni 2.3627285092157235 3.303976193596368 7.898858006556455 0.9715502077542687 1.83095532337115 -1.4139244474931068
Ni 8.623865422445911 4.337089325636529 6.852341919860792 1.7857964674463245 0.9827247363138495 0.5116132765413189
Ni 0.48214202083319074 7.786442659685909 3.166984591281214 -0.12272029655007252 -0.7427901606335982 0.0886467519051312
Ni 8.961002066318992 0.05347739042631882 9.104049427077095 0.20761863715636503 0.1347342902918131 -0.2102876993480959
Ni 7.404036162051458 2.2159051067953204 10.284029534814882 -1.100000721919899 0.7422965088266313 -1.6170220568506666
Ni 3.9250900831308333 0.14741488648142612 6.558073036955806 -0.48653807874024596 -0.8544829957249156 0.7544951077753522
Ni 8.728135347748827 5.661874558677405 12.836531718518524 1.500753429463209 1.0080822412420316 0.24659604686082695
Ni 2.6892221483544074 8.141305283569585 1.9420368614496009 -1.7562668334183238 0.6024719484961044 -0.4877871206559986
Ni 6.40711666283628 7.582936913235806 2.900409770869771 -1.2072242083859532 0.06101202090699816 1.0801410068814947
Ni 4.621891682292133 5.994292309336366 12.762268947765973 -0.58549983941814 -0.6260564206842637 0.6064317044748007
Ni 8.855953384572096 1.5627880357772892 1.3428801952713572 0.03324230699289758 -0.8871930843634268 0.19877789893628348
Ni 7.005155257262809 8.311621172050055 10.31641838615642 -0.2920791188942905 -0.8789619547028862 -0.43986612860500374
Ni 8.741754314608432 6.436978264098901 9.980899516086609 -1.7698363445726422 -0.08578537119693612 0.036515578427530664
Ni 7.73829882380985 0.24866527638190908 3.2926731000665987 -0.14812022468041589 1.0684612565507212 -0.08239408612720003
Ni 5.8520580073894175 8.388662434543807 5.510281273037624 0.19556633397752127 -0.5469613170233096 -1.650923594694118
Ni 6.7849896854575595 5.729960122065385 4.510740887552049 0.17005327730808134 1.5804393726306265 0.6606848093914105
Ni 3.924366952147137 4.547594609172406 4.530212579924568 -0.4280575660058499 -0.46021358191310413 0.29506879765023375
Ni 7.107200164154352 8.61317606316128 7.498005179200726 -0.12204821018371238 1.0075405098059487 1.3910891947661463
Ni 2.75035452920685 2.675899850616318 10.187228254646138 -1.1691628827378575 -1.3428774109476098 -0.3963414658494916
Ni 4.211839330896386 6.477603391926532 2.0351603716025477 0.9271007191916419 -1.445992017451613 0.42535636502460294
Ni 1.230203408737475 0.2195731606532215 -0.010329647974794036 0.3308721805020882 0.9590795860910836 0.4236193277288381
Ni 3.1419670405183515 0.21781354192622823 11.710108731033463 -1.6810826347760015 0.946739319358176 -0.10861471038662586
P 8.090584134700352 2.2025457254170417 7.147262547742108 -2.256604537045823 0.037687744358760905 1.324040994967397
P 8.873299257270748 7.353361367732464 7.963880461264779 0.5753632652047703 0.06545617272128082 -0.41063731364687345
P 0.49973820810312347 6.1700594929246995 1.4081279330938334 0.5503155782075232 -0.4971904162477696 0.8488679635309831
P 6.942975263575011 0.08190107354059008 1.2030554028457237 0.5224823580453388 -0.5085318094025177 0.3328897251527493
P 4.500405677031226 7.446988288300983 7.617914202662573 -0.3002801666478441 -0.0407985220736007 0.28310699730266725
P 1.5866142745990635 4.037212469243882 5.745892180981812 0.1804796148477279 1.9579066272834345 -0.35400156743070005
P 4.491793001597208 3.553892115743669 6.841975188245808 -0.44055441292127995 0.009280653970977566 -0.2359614499651162
P 1.8934721262573901 0.18860832109496262 5.6051152660943115 0.7197415063442507 0.7442788293639827 0.38542379049572334
Ni 1.0565963471901825 5.686312677562306 8.297689775521853 -0.9446598111213278 -0.5660694986076703 0.2765979925395559
Ni 1.7947740178929517 2.576793822209795 12.71996114976474 0.03690330078425257 -0.4049384634898832 0.5819928547061461
Ni 0.3708215684392405 8.374950758583728 11.382364446129388 0.6174763923247365 -0.46909571489408247 0.3727351392844613
Ni 2.5105995244714805 7.377938550268075 9.992405642546416 -0.7729355738687269 -0.6778106704384198 1.326998277823508
Ni 6.000772675459487 1.2137290015832756 6.52714991649276 0.7951501622925531 2.0448417958140976 1.0367009334199888
Ni 9.247120892201323 0.05001655970563078 6.357158509863948 -1.608554642809604 -0.8685736694900268 0.3417500037568566
Ni 6.238358287243769 6.915357222543858 0.7900715896929951 0.5551698209760311 -0.19070746322332316 -2.2575211353228215
Ni 3.4449589226869195 0.2549713493961389 3.8073013167968237 -1.7268081618375746 1.1700725390363205 1.7473008824742875
Ni 0.6885903541323323 2.234706512371413 6.452086139112115 2.3666474952385435 0.9315469278884537 -0.5415558297370221
Ni 6.92980130039768 5.036718552362281 11.435527552705102 -1.2613757547276923 0.31889623908713466 0.42283077038927175
Ni 0.7586385691773433 0.9431204082102158 3.8401249738195826 0.9136224821995491 0.3662844985631111 -0.40291680507416416
Ni 1.8033959642370179 8.021812523968865 7.8092351920373995 -0.27075567482616597 -0.34018985835858834 -0.7298076323310012
Ni 2.400424029468382 5.165287532899387 0.6360372734377375 0.1138726163514555 -0.8050342541754846 0.17752181777098458
Ni 6.33329240612897 3.4485374939652096 8.144279391512784 0.7859939497145819 -0.20028713649195828 1.084628610339203
Ni 4.795461660199235 -0.004840342135738616 2.0168021155267204 1.8564886917555643 -0.19038530399721407 -0.6471304677457436
Ni 6.626948481879823 4.0323915960192425 6.005438724486335 -2.29380839978963 -0.4799092605698187 -1.445864233624497
Ni 0.000449639137298071 1.5511437727577762 11.223038294419085 3.9737648913809887 1.0452097422219482 -0.3328745556440977
Ni 4.756774152571507 7.922771391932675 11.587703051495858 0.7561871507657945 -0.7047216358966508 -1.8309139286102534
Ni 7.692852822757578 0.5007135078401082 12.124027979009972 -1.269487328091233 -1.2844138674940784 1.7281273948696303
Ni 1.5237853172079494 7.1724395581577856 13.335623744191345 0.9681864334883585 0.25302611875688685 -1.2285728492650583
Ni 4.342114158882211 2.520408147301612 3.2791181024863203 0.8746214183460035 -1.8094758133411353 -0.09307444865918163
Ni 4.477293298283101 1.9591379821230035 8.592216389726156 0.20123664488942114 -0.0027171418208469336 -1.1458889998115815
Ni 0.12834555160496422 6.913484498714286 5.779407447894107 -0.015891474419275856 -0.49486819587249614 0.3425868978358551
Ni 6.470881982142179 2.2597565113194413 1.0590967116299617 -0.7743779627422083 -0.694178827383798 1.3603004915200638
P 7.693863351952743 4.437159528687981 9.546762267478766 0.7849071444083063 -0.5675715370744935 -0.5680286792165701
P 1.6274340915376904 0.7317677634960087 10.06669622602911 0.47518897227601387 -1.0061611129599188 -0.3882946842856151
P 3.836135701226194 8.017501550796833 13.607992883382403 -0.06679211792388497 -0.20057021495001587 -0.032042116037209335
P 7.64580295426711 7.499053719127087 12.15556205244514 -0.15024421300195415 -0.6712497293914503 0.7555137788478536
P 4.032818057881423 2.5297995791796106 11.988569785216656 -0.906126173822504 -0.24595327107050544 1.6313112197798292
P 6.046821285664838 1.4165116170496819 4.416884975505359 -0.651152187310627 -0.04672208664688727 -1.2153265257781134
P 4.8397209847654405 5.844669092081653 10.588352719666254 -0.8117183510638795 -0.0008852308184307335 0.2049346625662987
P 7.881868136803622 7.7371863146041635 4.4371437681409 0.9551296003044003 -0.7967211063240989 1.4271427459555937
Ni 2.6665825860186985 4.44729263336977 11.607554851180318 0.8958222207933346 1.9804857981355308 0.7731939697364361
Ni 4.890609010015527 6.1418203009203705 5.8978099484732525 0.31552886527679846 0.38728578340512654 -0.033202712004213784
Ni 3.11675016518947 5.129993178349 9.278314723237752 1.1716853920493948 -0.16826096129434892 0.5414833246278739
Ni 9.021643088938923 5.086568235687059 4.192265658513347 0.992969039749677 -0.9428376703109247 -0.0373118490765809
Ni 2.758049384546178 5.957709298289393 6.85075474006068 0.22638974711628107 -1.6844875466924925 0.09980611095606037
Ni 7.1015078253852595 6.5341744850356624 6.821147161733357 0.5834861514222209 -1.8068463461380881 -1.0572075380137729
Ni 8.573756153639808 7.873218377729413 0.5693729405600212 -0.35584016330133555 0.871725584855447 0.3119663447365208
Ni 6.31728154447714 6.2093032551552705 8.990477070632636 -0.3692502660596544 -0.10912970234983141 0.2473578647275159
Ni 0.2192727831676863 4.090177178344581 11.040835245075858 -1.0817183786709437 -1.3052819691923392 -0.027407702588991507
Ni 6.334210226223661 2.6171871772862425 12.367508962493385 -2.273125674629298 0.5347105246804146 0.04642666689365553
Ni 3.9106460052770107 9.057938701774427 9.278192347225128 0.1612585618345868 -0.4132930061021656 -0.8849729367836566
Ni 4.516397996862962 3.987529662299957 0.2444266163082456 0.5223062374787907 -1.588593626306645 0.11985351652523875
Ni 1.9007776033747281 3.1850582304185875 3.17661799391145 -0.7355411923806687 -0.3204507280584481 0.25554451430336633
Ni 0.22278274971162548 3.7662979358392588 1.0204388709143843 0.5131258565311034 1.153571970278136 -0.16582329838713378
Ni 5.537366236741053 0.24070434592422138 13.106038000686949 0.6320450341675308 -0.48038799997845 0.8542405406968062
Ni 7.208067665469878 4.463294224111554 0.5072096345103094 -1.510995161795875 0.24171789283291917 0.570959736820436
Ni 3.7532630363126382 1.270448429253164 0.3961969763299322 -1.802713554916637 1.4389567078713863 -0.20695786364391455
Ni 2.000653117315184 1.0456937569744602 7.904529949323444 0.6106907368614708 -0.5849388247083475 1.1471550110081985
Ni 2.9718365702388274 2.1620874739702627 5.524297961938261 0.4906929814488839 0.8813777632332305 -0.4769324373296818
Ni 8.174699101560257 2.0380705102664214 4.99336036025268 -1.57275254550933 0.18533925693287437 -1.0303719058781675
Ni 2.0491770605031863 5.700283939003712 3.124568323632428 -0.3972796613930448 0.5613008735744333 0.013434785348667185
Ni 5.127480761726159 3.469248707011063 10.35857692250589 0.21318096173549092 1.5544288074994779 -0.18804097213475357
Ni 2.416759372971871 7.457927962156896 5.155237866408023 -0.07550815764064416 -0.010512469495549638 -0.9302606049768624
Ni 0.196138154235447 2.896250840622515 8.893188140595399 -0.5544049177855483 -0.2802942104442205 -0.28406601878182686
P 8.291382775416619 2.8713491762352445 12.693515878854582 2.6964696372095625 0.9024289274765749 1.5368733151142178
P 4.225495381396182 7.579293445587185 4.048163268191851 1.3187499217717868 -1.443916365869507 -0.9008117035881259
P 1.0988902388263433 5.955011463465605 11.193661561751941 2.685969509009187 1.83266279298056 0.9339887045607269
P 3.650476456617304 4.209846085236199 2.2916271187893296 -0.5209695209452383 1.707488121352724 -0.7661918273869901
P 6.7492595981349455 5.376200736477347 2.4966532944872024 -0.5389636435298137 0.27552044320466096 -2.414913786444099
P 2.2211709837022338 1.2421072572383145 1.9845755051110125 -0.4543854052671013 -0.4465893062614502 -0.07627794592713313
P 6.39645511628179 0.6047692751209292 9.071212790780269 -1.0382266260358959 1.8765065296383876 -0.9453385823559073
P 8.742412549221797 3.1311386175830083 3.1074709113230448 0.9350618830202476 -0.8328821296256882 -0.5712628698831516
