# total energy = -381164.95340459276 ev
CRYSTAL
PRIMVEC
9.30804781850369 0.00000000000000 0.00000000000000
0.00000000000000 9.30804781850369 0.00000000000000
0.00000000000000 0.00000000000000 13.62326885426970
PRIMCOORD
 96 1
Ni 3.673458258521201 2.708223019678088 3.14948219073706 -1.5726856968271365 0.9475659290245293 0.5168405863785291
Ni 5.1443438808290844 7.041137841922728 3.3712008178478987 0.9362399624887489 -0.2789276691139971 0.8465999934324129
Ni 3.7339047203101012 7.203498118021248 0.843755908259969 1.5027486055163668 3.8739220136497217 0.29704469042968196
Ni 3.6782519030886913 2.521894520742115 8.512730875856105 -0.5594437657610366 -1.4680312566398395 0.10874763642006433
Ni 1.490376674199778 0.28496774206337266 0.45163857505355265 -1.6414189976377924 1.9435231048682529 0.8067576646244944
Ni 6.282969432299799 7.682639181625411 12.06465767872702 0.026447395558251225 -0.37525173505872794 0.6958011934785694
Ni 2.053178470566281 7.696899110707732 10.098206942641504 0.15561936127093845 -3.6999763432657695 0.9633818130108633
Ni 0.40945264125009495 3.184059726347378 3.7037168599969257 1.068998874221746 -1.9478646696664002 0.6908186526623135
Ni 2.7498579170574766 0.3829889308232359 10.613779704958594 1.6003723641091276 3.5626588656278124 -0.023594242380172267
Ni 2.7951881093753 5.427829781698002 0.9952546234928488 -1.0346000850269021 -3.7931713766632154 1.022207110679188
Ni 0.22012415853916642 5.604533759308179 8.3721523621894 0.39552514059578336 -0.7181168262566342 0.40536140995991476
Ni 6.264976976088227 1.9014852171363903 0.30610538759408007 1.1002616888907695 -1.8685481940232593 -0.4208841881858622
Ni 5.252708172197483 6.749740100505525 9.10009847172265 0.7260530503845753 0.7079134033610711 -0.27402688937826997
Ni 8.620992778699762 4.659711069079642 1.6623382015048347 -1.123846161078929 -0.23991066442085132 -2.540220612774425
Ni 2.411110136970712 2.452288940012611 5.943042322568954 0.7444109840664728 -1.4942235987644912 0.5743659342885076
Ni 4.577697860760886 3.3197152135835095 0.6093457581049104 -0.8935629924455126 1.8134934191409606 0.1544723921506888
Ni 0.998520817432135 4.443959831351751 13.277986828654646 0.3118452457776242 1.2140204053721801 -1.7396708767328555
Ni 5.444323642229252 9.1694322574592 2.388268187905427 2.76747682165606 1.6093696825117316 -1.958701612380904
Ni 4.939799532536648 3.649722736876345 7.0180948390270395 -0.5430480980118325 -0.41983080722068344 0.004870697828739999
Ni 5.836862629996653 2.6719402497284213 2.44836001307681 0.40975388260065554 -0.39203024006864745 1.0458877421255794
Ni 1.78719169938063 4.555395778462425 5.254740119011237 -0.7874592214061987 1.1179035703422489 -0.4946445098974643
Ni 0.3140898309144556 8.02913125740179 8.164738342789862 0.23121982151507275 -0.5983934075513566 -0.8541466954314192
Ni 3.078701934387329 6.9251595675325675 8.221233538328471 -1.5688205574447758 -2.585712940779269 -1.1557944318507516
Ni 5.773335204417774 2.7867922503464135 11.764169697922224 0.47673420527594673 1.145702337722072 -0.488929461790558
P 8.482740346154252 4.0712656012889905 9.833329690742152 0.6261906322692828 -1.403179807382093 -2.4689203225675413
Ni 7.413552830554373 0.9307098282999366 11.4045970227076 -3.2168691445839444 1.5333138798977335 -0.7412868366151943
P 3.8465693297176853 3.9836582563002114 5.189321298138932 0.6418980157022106 -0.18953786839525422 -0.3539113217097388
Ni 2.793847750505943 6.868938959401222 3.322633286538671 1.7189277306482333 -0.38339236188799136 -1.9981611039281069
P 1.2663226579200395 6.708542681368217 6.302763926546838 0.625493091981626 -0.1092690561411731 3.0357992044503845
P 1.741498493202356 0.9907672136948154 2.7560282218803684 0.274484802851295 1.2422997119328476 -0.7212018929398611
P -0.11200094560629832 0.575728813017631 12.145865740919392 2.707404024733879 -0.1488930982906984 1.9353333699686086
Ni 8.657396553269578 1.6879120625712043 9.042267571338536 0.27769328248626374 0.6463658216655771 -0.2654358052751493
Ni 6.16969049174376 7.321412466333812 1.1943081544447758 2.0648382935406824 -1.4097173513902947 -0.09477086252499807
Ni 1.1837137345482363 4.9788002524158435 2.833013222829497 2.4540740015833284 1.6082147429716818 -0.8255884241777524
Ni 6.00547791415217 9.126745550689275 4.811193960631425 0.205441169889072 0.0571669361292951 -0.9019656146869112
Ni 1.3411593614591153 7.356913360276353 0.13258941632247764 0.7110614620717496 -1.0202502440631331 1.092066811784803
Ni 8.2711777298931 2.0634917874221634 1.7518574194919876 0.017826229548143495 -0.009551134023544842 0.6664847039026394
Ni 8.231311361577447 4.595299378968894 11.803690737668063 -0.17071790747527374 0.22106139292483218 0.17553615479952348
Ni 5.441540535965795 0.43000481058022916 9.985815059031642 0.9402233726165292 1.0155039876273997 -0.8879021946153095
Ni 1.1274186620352598 3.04272633001189 1.3746692639978002 1.0929314737779434 -1.7987286021269602 1.1625484627451335
Ni 1.7248184717170296 4.808099965574661 10.46833773636662 -0.42820617576857223 2.074124861048931 1.1331936637321
Ni 6.564975353583801 4.867215376541908 2.824975723637209 -1.6163499704843067 0.14256458496950933 -0.866158632290631
Ni 4.538967074265103 0.978852912633868 12.46831512947669 -0.07707215969365436 0.5140511965588502 -1.1029965713234295
Ni 3.6654626455435806 0.03152821918253207 3.448880199155735 -2.2403104278714903 0.7355383641671913 0.9678390774512686
Ni 8.953504166824937 0.7143051656232348 3.8802337458482543 1.0543291880247134 0.21252275932620174 -0.1267283892682011
Ni 4.377165281028815 8.006736094626293 10.845157293171734 -0.6956093891827375 -1.0363191246005379 0.039081796492810114
Ni 8.428418579754496 8.14688736890339 11.192305586311237 0.43054022321838753 -2.5121711628363768 0.40631374657085506
Ni 7.11025940417163 2.7951788013275958 6.591700620151139 0.688384332189208 -0.10260552807806844 0.5780729508264496
Ni 7.629378532663894 3.0207314132876566 4.3069146525934325 -1.2479124301339346 0.2798586655686987 0.36675526755194254
Ni 3.651910128086753 7.8723651179732945 5.300009809018985 -0.12111875639090754 -0.7549874740307384 0.3585112823755955
Ni 5.324603532662137 5.5017636046098035 13.357478486850423 0.3345696839583335 -0.09826267772834045 1.1521141547856868
Ni 6.092526776278717 4.783666340352014 5.250162421150476 0.3775598143666143 0.8246885380713022 -0.16457245669916817
Ni 1.477782885656448 0.9795603242593617 7.887109996340987 0.5423947806985498 0.3053154150789064 -0.4070711935621699
Ni 0.4109205203729944 3.3006430238382896 7.312862093713041 -0.05679026951616671 1.7633242544857375 0.39381124322847016
Ni 1.598666501186545 9.245143917482439 4.727818984933593 1.6882932935918278 0.14036654887692598 0.4149534245237241
Ni 0.9400476617564542 6.787856555852852 4.319543811718038 -1.4395346918620433 0.6692373269471119 0.16809281114760083
P 7.092899895203922 1.183946435740833 3.3076482605402187 -2.555222485499896 -1.0836011975159534 0.16599144853388187
Ni 0.7137550600039363 0.0010508785857663767 9.959562641287661 -2.165225988031826 2.748724737859537 0.22481571776094186
P 5.1046450573721005 8.6873126185898 0.030073371326417946 0.11043196610102272 0.41056943652341554 0.039623270818576924
Ni 3.4524852060314424 8.955551937319786 8.529773911201882 1.3270113904496308 2.4945495930998716 -0.6005842445550883
P 0.9366502243445433 6.607904069594028 11.764605314554764 -0.00565077052787414 -0.2516451792489601 -1.2380046841019194
P 7.020008573634954 3.9455511090005873 -0.11412876531140188 -1.6593650405932518 0.8709303426476614 0.6401658635024523
P 8.812840949924126 7.017839798519953 1.5545510090940762 -1.9530071330992882 -1.1126484925908966 -0.031295467679171914
Ni 2.8757678783476606 8.705128221894999 12.567315524855 0.6807319578502729 -1.2832632988294028 0.7820509059064338
Ni 5.066035275496467 1.8638713963650713 5.019316322461227 -0.6201325990006611 1.2328578497936575 0.7404203748498409
Ni 7.686595101899553 7.7999950470757415 3.504572110177501 0.03095556784124991 -0.026331438805677235 -0.4490287689408783
Ni 2.4839735343965685 2.3823482695657683 13.032754211434302 0.3598024903831933 -0.33050399852939205 0.6499478825898807
Ni 1.393796371224473 3.052658016911914 9.347142435026164 -0.2708160957504562 -1.6039904204776891 -1.6835958881161586
Ni 1.03296990198414 2.175616530062923 11.440739241136939 -1.0658122489636481 0.1409566170524411 -1.0391691924548234
Ni 5.434550192140193 5.28595651859569 11.165100024482381 0.481887467342112 0.1767072922894892 -0.8999604113314242
Ni 4.593353996998787 6.226879136836307 6.675033709634303 0.7779037165072796 -1.6900917802531472 -0.22851579232034835
Ni 7.968349705895552 9.053519139402967 0.15553096149819412 0.23876318107996947 -0.2271780473455313 0.1752556474446272
Ni 8.643294860998223 6.447610180085765 13.140990982549159 -2.4892500352638294 -0.0014513877345458874 0.010402683390562729
Ni 7.440117998701203 5.979257143770383 9.88396733186072 0.702498402993087 1.913111582455931 1.1051156745489612
Ni 8.456891897680618 5.500460477931262 3.753959839892849 -0.4769203531448238 -0.17535592046791734 0.9846021558422204
Ni 3.315712753070847 2.808368304923973 10.811208050781426 0.845808093658737 0.3282175164880606 0.7290951796450089
Ni 5.742488334327164 8.294745706679286 7.00629688856239 -1.4241816064447408 -1.117081588661586 0.9582979707300529
Ni 8.829651284077306 5.349176778600342 6.03957608530574 -0.2753309529016742 -0.6408114675062513 0.35326546059562386
Ni 6.406068363183415 4.816253815363246 8.299268487058596 0.015939039827759644 -0.8380302494855311 -0.8696129093878184
Ni 5.6232522432406515 1.0949242675010664 7.52350507486105 -1.3665631846003239 2.3060442797341896 0.3138064832690531
Ni 8.588591464642606 2.639650632243713 13.153606179602207 1.2111243147713078 -1.409194131896973 -0.23678831674178577
Ni 7.771735814246808 0.2437684613165247 7.290192343530277 0.21708723876843258 0.1540720713884766 0.9018103200559696
Ni 9.0598579198893 8.390972303841846 5.744809761424508 -0.9285734470824265 -0.8371239356211776 0.20733735847052032
Ni 3.0792511092018566 6.170788841372816 11.867270288314085 0.6634253482510252 0.43168102169105016 0.7962541939900094
Ni 9.356728793356375 1.6360662368606753 6.078429738031214 -0.8829463932719309 -1.5096221927077484 -1.7072875753061438
Ni 3.6105544721384804 1.328481800486451 1.1323361036372117 0.23060558496984157 -1.9032835406219155 1.0554890126607692
Ni 2.5985276774880366 4.6343094068957935 7.5640341761732195 -0.34088971263909035 -0.2623527954744514 -0.35169168835060083
Ni 6.608602173171817 2.7023775657200604 9.47447932002935 -0.6595290985204125 0.31664472404879657 -0.1541738870736635
P 6.715495793003005 7.2130574830131176 5.4465687433354235 0.22644476872393263 -1.8141133121131465 -0.732416273598442
Ni 7.514889545906352 6.774052721108021 7.429463076494589 0.10421375310545279 0.2993208880583684 0.5600438612388807
P 4.400202699095881 5.128427119255475 2.5823447057500966 -0.7950313773265018 -0.055375905667143344 -0.5290882933976307
Ni 0.7371862084888761 8.301829130981929 2.4770101839093064 1.2799470899719765 0.9282746848950852 0.6739416744013168
P 3.325839908972653 4.276312584157436 12.787781288744897 0.16864534121696118 0.31714943159935705 -1.0384490264593471
P 7.533701110315864 8.302834400133946 9.232870325780123 -0.5734753041534382 0.2713354585890359 -0.7212211762135707
P 3.701596486729985 0.34081323587225243 6.361875614295005 0.13056190408167836 1.7106927443329507 0.4700827613977001
Ni 4.118029232953209 4.67427816373619 9.380329348309527 -0.188753681931062 0.05647119561385113 -0.32931280643476835
