# total energy = -381164.3049050694 ev
CRYSTAL
PRIMVEC
9.30975826258514 0.00000000000000 0.00000000000000
0.00000000000000 9.30975826258514 0.00000000000000
0.00000000000000 0.00000000000000 13.62577226207548
PRIMCOORD
 96 1
Ni 2.1751597894693555 6.150072686630473 2.7644507135962897 -0.7805079868993462 0.6484124197819607 0.6013146949632096
Ni 1.2947545944901009 2.3718935956226166 4.910046435546229 0.3747197738146579 -0.613376254113434 -0.7021245645934359
Ni 2.6808379150053527 7.907140553871132 10.025475442431993 0.491830951708069 -0.059448275964304076 0.5609835994443306
Ni 1.9299873124181472 4.298101146290896 7.81639648064867 0.3440292867093365 -0.21392323921815415 1.6475701048408529
Ni 5.750833024361097 0.8243222817837285 9.200802182771493 0.4562448270733433 -0.15683317907338148 -0.8946549399581109
Ni 1.8791187946809988 2.1991789651212303 11.863210500830936 1.9265548524450304 -0.2523445193088299 0.42166040423025447
Ni 2.037161246567132 7.475130543425555 0.9404810633829551 -1.2736409452482904 0.4924387604953971 -0.9582702028159109
Ni 9.792841347461385 0.896445908021185 3.272147194667684 -2.2846557867560846 -1.3569991950609726 -0.5688781717010589
Ni 9.013232902397963 1.9693024204715839 11.61226411186527 -1.476346461373754 -0.23476717254669893 0.5273047191346466
Ni 1.6197675561887808 7.750755238909819 5.459219750479729 -0.7455780077913804 2.328541432395441 -0.8626120525899531
Ni 8.140852718818675 3.036628936667249 5.246794347209711 1.6125563077698295 -1.4025989951779585 -0.1900788285003888
Ni 2.925777648106446 7.753529546795191 7.748445487948877 -0.3311933112869328 -1.0780411869296724 -0.8421514707427562
Ni 0.8981235264136143 2.166781007265213 0.6421908310606863 0.6827749564222306 -1.501747417945362 -0.7817678274483763
Ni 8.52394926070807 5.223109391870201 2.1049232511794322 0.9484943543760698 1.4568783253468136 0.38541170631086524
Ni 3.9979079994324858 7.641235245743674 5.695682017941832 -0.6923242906735625 2.600868308363469 -1.9657299799825954
Ni 3.850804513201761 4.030426984142562 11.447978536261251 -2.267460248813405 0.3463944445074034 1.483432421686258
Ni 4.720410388895677 4.889941082159489 2.7336428624074585 0.2568022979698674 0.8414562444479443 -2.188695789018992
Ni 5.032054538099748 2.697995799007835 10.381570893180642 1.5920620444712195 -1.1077258584782987 -1.4955464313409725
Ni 0.4836800983469218 7.750308370525598 9.44479883738672 -0.8279533248655032 -0.5468142499224841 1.6426734388701838
Ni 1.4362442966440505 4.591088540453742 12.225927982448255 1.423454241360413 -0.6761507662374936 2.709976670557062
Ni 2.0646902009867416 2.3902058896176706 2.576646827321043 1.990674822853391 -0.030495083265063613 0.7268647476525933
Ni 0.6598104790601972 2.1956878058695044 7.128949053976011 -0.22938893895392107 -0.5525241558230678 1.2056954304462524
Ni 6.832989985058093 4.004564476405777 3.405271148278698 -0.445729015143684 -0.20643541548154123 0.7205925414906365
Ni 4.281371511156625 2.225683846160334 1.2933432351766032 1.6038747208354314 0.582542556562029 -0.08559279557015582
P 2.9556805908172294 0.6711870033418216 10.521452800127197 1.2658263342998781 1.3221106107139038 1.9059135220455952
Ni 4.876088162248641 8.46120149175705 3.8467463896875547 -1.552091931836185 0.6794338078641395 -1.3934875197949936
P 7.821211487488651 0.3695108120332788 2.0556383232788664 0.20239312709136756 -0.7766433617376173 0.7120742196069801
Ni 6.923676337780927 8.619672192511395 4.112830445168702 3.404785932436007 0.23071974195020267 0.4650223161556572
P 0.32394699440715297 6.244799474327305 0.2468119254358189 -0.12132830129855234 -0.6640958919554885 0.042848719734410075
P 3.961367199264421 6.386717425349466 3.8603991498013044 -0.04223551163044339 1.2740785470063412 1.7802302862124566
P 6.786813585355265 3.180725371062487 1.4451360465142464 0.12240302241996986 0.1591029489441647 -0.7448303309920785
Ni 8.519750559847996 7.256276752253358 5.428902523537741 -0.16284904625015825 0.33814326024220476 0.36643233699488503
Ni 3.7706102577501146 7.784316916516411 13.080877506115524 -0.7320354932202554 0.22114829621168364 -0.6978668177583465
Ni 5.595881412132492 -0.019724584284351438 1.2708434120310796 -1.3091671631793582 2.5680821150713835 -0.11649462735533485
Ni 3.9383627872350484 6.211554328492869 11.057082279115601 2.3870098609449792 1.985284247965439 0.714431406985247
Ni 4.852124845144793 8.80270203488188 10.78813640402384 -1.516661101832401 0.706037526494597 1.1858891943536027
Ni 6.212745977517457 1.466165858870843 3.329688946942532 0.17071970724748664 0.3307130292164046 -1.0927512394463372
Ni 0.6691584070726185 3.6765817019036287 10.293548062222925 -3.0291984113044155 0.09963513259583485 -0.8826412033266863
Ni 8.60805361452165 3.4825384158136976 13.577768151070979 -1.9279213937752537 1.145631889495453 -0.10332672251480914
Ni 3.9397313216617245 5.422794391310922 8.274563187183979 -0.3544887914797637 -0.6955631093258343 1.1624271066759206
Ni 4.362115042330543 3.134009005395392 3.824985761327597 0.6848359527163174 -3.6431307950316354 -0.47482130452394994
Ni 5.242613334889844 6.642726460718031 6.983794100095648 3.10236815061987 -0.5680050250674863 0.9688484925523895
Ni 7.6382933622142195 6.275121356148295 7.9473400889350065 -0.35190997500899396 1.403805356781234 0.5735555225720702
Ni 3.3571359754917007 3.1445942002466247 5.956955721462 -0.19776694117326585 -0.6134361608170918 1.7702407790999126
Ni 5.256820025604867 7.471164586515595 9.222072186884608 -0.15257826045176948 -1.1953637095029412 -2.6072469581963036
Ni 2.640247370105286 4.388629233127651 4.247875001856065 -1.860421708261383 1.348560063154684 -0.5091509310437553
Ni 5.939243906858244 8.285814960708342 12.700377455733614 0.8629167283145655 -0.23567348641105218 1.1753147612718662
Ni 6.04004996653208 4.921370825183028 9.445807084178618 -0.041450039614670545 -0.2168599532489749 1.4892132900340935
Ni 1.3667097141076738 4.4122108501533095 1.4814487576111988 -0.009484542451667535 0.30358146310693523 -1.0128745204243526
Ni 6.9667246587942095 0.6495809169647399 11.448646045910182 0.4863465315547302 0.3399283771670855 -1.4020387517991142
Ni 5.443732037063272 3.8601608199963864 13.059416651963316 1.1816450743652682 -0.7072176628456271 0.7204634721119398
Ni 8.326982710604694 4.08272920461242 7.626998763803035 0.4751768880911558 -1.4388610628337863 1.3384258029341596
Ni 7.506374091289001 5.099969222743323 5.7131089539506466 -0.5857626061612234 0.8197342793898206 0.19500686192962544
Ni 6.886921413178756 7.619943829187148 1.434508026776192 2.114792513971622 -0.7452728178461357 0.6857731198186061
Ni 4.904510853436692 4.859423695420402 5.368403992120632 0.14982718006919357 -0.2517552224642632 0.9695938553588462
Ni 6.772374150690127 6.85650643377772 10.751333999655847 0.562093801789374 0.2725220226979694 0.8844237491484059
P 6.083042428997335 4.395686029695139 7.457576063732077 -0.37261738275967443 -0.19109312869751607 -1.6232916919094622
Ni 8.75630220098694 0.7313103515113453 5.441425079029732 -0.13483019243972907 -0.6697824008173046 -0.20208793714612294
P 6.981340978861436 3.2238667896558155 11.262667803179637 0.4441560142296092 -0.4810680567646102 0.00745157118203878
Ni 8.296949431281845 0.4767908774235159 13.466445788755141 -1.8258645391118038 1.2045289209419772 1.7937954264914011
P 2.9359159745734584 3.5192002428358227 0.27227318260260647 -1.1093500243452832 -1.531382981423608 -1.4413329214130466
P 5.290716854499625 6.171652705685142 12.857701194301791 1.466780414951874 -0.05052269133990009 -0.6079571399803917
P 0.395952386717951 5.043431062381372 4.173546824923118 -0.8354568323313998 0.9205199806503307 -3.3657802405967714
Ni 4.343448977531315 7.347614788036514 1.8310580999580388 -0.1439748350534746 -0.3129089111554482 0.08101674616369918
Ni 2.9491172114239843 0.8141299587202896 -0.15275823324272061 0.14711235224119182 -0.1561541507284859 1.4832892112401745
Ni 2.716298783244884 5.981156437394964 6.1787830493408675 0.04319247622707399 -3.498844599385329 0.21424951220932137
Ni 3.8183227675237026 5.397713903246522 0.5480943139807669 -1.0312725633155657 0.5005019971195057 0.13454659976103925
Ni 7.682384376124017 8.79193995462856 8.753645196052428 -0.7469751452492233 0.04927596341699256 0.33043637851625024
Ni 8.041834132681723 2.13546298133773 9.367881616752694 -0.008068635940747394 0.28830422523289057 1.4386713154204835
Ni 4.54733267783211 2.310290926906162 7.863800837432307 0.9540258257172601 1.9746902744996766 -0.15809379095335999
Ni 3.24636847475294 0.5323654778319908 8.41354670248309 0.3693662228122284 0.7657647671519004 -0.3485960801444125
Ni 6.500659553567796 5.412926047826042 1.114670359552271 -1.4718166918242006 -0.7119145541006643 -1.0297520129059814
Ni 5.2274011903103235 0.3652795270201869 6.527494000040263 0.5934327211119715 -0.6224067397468184 0.9103165577547677
Ni 2.266553683800539 5.27547678064609 10.128717865775636 -1.2406120398177793 0.8669739291030747 -1.6405008566988972
Ni 9.017925020432282 3.063832049556697 2.8510016718134783 0.09200461263377058 -0.007090074077561983 0.22234540184357837
Ni 2.101761657361069 8.6740970378063 2.96547166331067 0.618283204496748 -0.7152022237130005 0.7703081635482089
Ni 8.114133713345467 7.5251425634262805 12.830339815526266 1.153278607407433 -0.4450214475536981 -0.18432829916985674
Ni 5.963579614282274 2.5420294231567286 5.433616984991271 -1.2259922330220756 0.3062232716051565 1.080245907890475
Ni 7.276404449059309 1.7353668213319309 7.339576742975341 -0.26730859681783 -0.513649076024425 -1.3208805949615448
Ni 9.136801320393053 7.510014206668801 2.897165968830901 -0.06586009302791883 0.4527314146034461 0.33069580282522404
Ni 0.7684637337561132 6.557784228684038 7.380222215447635 -0.28704721289733787 -1.2707137442991665 0.07524436245629623
Ni 2.556375760241821 2.913823918828536 9.596330975500235 2.494404839991891 -1.512436779338408 -0.9587011197057425
Ni 4.8256106543476855 1.2803337793409715 12.277910878218554 -0.1295728006955317 0.5198109818607629 0.6718608806128881
Ni 1.0852478003545247 0.9117725626241622 9.624400826859912 -1.7374167905913562 -0.12167874265943562 -0.3137548040955112
Ni 0.76180260190382 4.416791251091574 6.010886218606862 -0.5375055709270484 0.0516146388524982 0.19640245672557144
Ni 6.306727984573921 6.251381473236558 4.1586540050431555 0.18962837122653148 1.5727188640579173 -1.5484934158516492
Ni 1.611398083742643 7.052290644614511 12.1236668075983 -0.22556750832530184 -0.7268976577730578 -0.21954675605251864
Ni 0.2923878457473507 8.753295149151453 7.414191660454828 0.5956659813178645 1.8947667614001564 -1.422500876308208
P 7.233449225626073 8.849651144499092 6.562539653072789 0.7478608902882863 -0.37332546457029253 -0.149070247298511
Ni 3.7942104942917823 1.0259911906552295 4.873584768321203 -0.9808110642309043 0.012407886746049599 -0.7126015528653599
P 3.7525307077051764 0.5536513085337141 2.5097990409447943 0.5808543702263287 0.4251905288707 0.027892355534893894
Ni 8.830668547927706 5.579282113610286 11.691825303772607 -1.0433248664944097 -0.03475874363742401 -1.0527176205632192
P 9.42985388286193 5.571154694872267 9.209127899355009 -0.42552554361261546 -0.7558868459165562 0.32955114769781957
P 2.2070457106351196 0.6887033130274812 6.396236652909172 -0.7170421051352167 -0.24672074536414929 0.12543306749554525
P 8.981263193410157 8.981644893488346 11.190247195661835 -0.44879865520794326 0.005584693176629091 -0.7474687970561901
Ni 0.9855123628512176 -0.16296265899156548 12.900935710475165 0.9474803112892586 0.03416816124127664 -0.34227039503670087
