# total energy = -340873.2793934856 ev
CRYSTAL
PRIMVEC
9.20564691744556 0.00000000000000 0.00000000000000
0.00000000000000 9.20564691744556 0.00000000000000
0.00000000000000 0.00000000000000 13.47339478473196
PRIMCOORD
 96 1
Ni 5.134946508492413 3.798249796351352 13.201905274649876 -0.4066901560736673 1.506582120329844 -1.527310868236763
Ni 8.678650970091192 6.5026386328106796 12.332265328971983 0.7054909099625075 0.7684500272935475 -0.5069724353351979
Ni 1.027258106579853 5.207707939394888 10.70063718978176 -0.006512604307537171 0.01796764022201422 -0.04287005989064875
Ni 8.683686458793579 6.046959125007985 5.275507526767956 0.29443039273528643 -0.17222765925158082 -0.2931744088409983
Ni 6.754919378494171 0.9011241776907426 0.6316215083062955 0.41043136828365445 -0.029978291529645144 2.1991393529498193
Ni 5.712628450980141 6.450727991507661 0.3189572441686419 -0.2778722312662891 0.17273725189814768 0.7981681231832706
Ni 6.456960214270943 6.781974773917043 4.310691321227005 -1.2041157446639585 0.3741795850404717 -0.689046134142923
Ni 6.918991618243009 2.133482249885595 8.640407031763607 0.04535168866192189 -0.4122211131942256 -2.4154305781795173
Ni 4.214740866483015 6.949499131149233 5.629278685332723 0.051713883434523836 0.022705926237947992 -0.09447955653682438
Ni 1.680048919858736 0.25977045977537633 9.389204454230875 -2.2937304953638433 -0.6637436508223924 -0.8825802681817639
Ni 2.3965980416435073 2.6999609204340125 7.322250491919812 -0.05801848549631298 -0.5981000446806538 0.16138865965454788
Ni 0.4905808758417325 1.4924930755764712 7.7860318893147715 -1.3211461899181052 0.25172385500569555 0.6977886562222434
Ni 8.133520194059836 3.8101342861407113 6.519950771848533 -0.6583314786678856 -0.06602001564455082 0.045683618080043904
Ni 6.867347940692037 5.165730190797306 12.094500046882498 -0.5797742497882725 -0.9378880396151332 0.23971937434565166
Ni 4.1701303029514625 5.0027718342897645 1.7424061289487136 -0.13666904542068076 0.7370697132100532 -0.1887570243651717
Ni 6.372314293579109 9.012806736833214 8.738237279547866 0.23052922320595137 -0.7064972397398349 0.8745458279130615
Ni 4.180164457769744 5.977115884084771 11.977295595216995 1.6636312720687738 -1.2476121252846966 -0.8466172198235935
Ni 2.3999120744275264 8.06698178027402 4.346530744656852 -0.39435811687087563 -0.3359457383702537 0.4526100585342335
Ni 3.9235018242940485 8.416833174507023 11.943355296685324 1.3270805531246692 0.22162215052430867 -0.11591895735752294
Ni 6.141224946420098 5.537030741660213 6.245901433597343 0.30673003603824595 0.1655826431312374 -0.962269296672975
Ni 8.940376709209142 3.8927273476357773 8.840810276471922 0.7945744922947413 -0.6728988349590992 -0.25495753145164474
Ni 8.47193817518797 0.2087684157939769 12.50442841153714 1.556312654785752 1.0198329540200566 -0.2724397473968082
Ni 1.7061929562660019 8.717121367325687 11.668795045046597 -1.8639088954790353 -1.4233974199805486 0.45979243521528557
Ni 0.5399019687499041 0.22397706457864017 3.5363749257581234 0.22900095948688304 -0.09307701976234292 -1.192535753135843
P 1.1315120545771362 7.326507182917952 9.265680326159181 -0.002446918878595786 -1.0813121443714604 1.5209697565100837
P -0.14920972327717133 3.590717698898747 12.068941489600407 3.193286472167997 2.6521044808306264 -0.7818722142367245
P 4.964338259641759 1.7275776733695505 13.198792845526885 -0.6906867550701395 -1.6222069434857158 0.5089922939787039
P 7.637980236382684 1.224332589469552 10.500692386275237 -0.3700979587719303 -0.7545313603299263 0.18758845797836726
P 8.118781953817571 7.751421419708999 3.433303903351803 2.0247684221029902 -0.4307957908726194 0.8738670566784822
P 5.3371945647838315 7.454336791914885 10.3138426150889 -0.06502988381713962 -0.30402677817447 0.7011994816760053
P 7.286895285502296 7.893013470406236 13.38356766396456 -0.5078273271363254 0.6876888487840802 -0.6295762609120642
P 1.873330676340057 4.62125301567613 2.15701004152281 1.1998325439075725 -1.3257579776585038 -0.4949520138355541
Ni 0.46671615753814244 1.965865836187182 5.5363789818793565 -0.25966007913363665 -1.1568958924450463 -0.23766814824357776
Ni 2.239347186041777 4.1997816907218155 12.841357839606452 -0.8388879695001359 0.9776858883383613 -0.7311178665019925
Ni 5.811110458545256 1.4655573535596897 6.414251537331553 -0.35651250677801183 0.4661597721942101 -0.4593638323182992
Ni 3.199229164993187 6.990261734392675 0.6700900644114652 0.18518216252971978 0.583836335672788 -0.21553737778280943
Ni 8.04441874040282 6.695239171441952 1.4418960800464522 0.9713342350887207 -2.834476170494744 -0.047470534777137606
Ni 8.006850496537309 2.1992934175882515 2.6658190182413124 -0.6350869063176481 -0.6100878131701493 -0.3635442168138126
Ni 1.4418620191539495 4.285246913963032 5.841713710176353 -1.143007050278096 -1.5066430554747665 -0.9607801137219583
Ni 5.24657417943414 1.7307444158076137 10.711335071721509 -0.9651946978498862 1.9514205053384586 -0.4214225771878355
Ni 3.9048603898839382 3.411207589764352 5.713271925679038 2.6315348842093904 0.7731461472176362 -0.10594281998141754
Ni 2.5087412287960813 0.4249206807436819 0.4968637296614363 0.11533994492560137 0.43038775680092334 0.19353387692852475
Ni 2.8842671714586134 0.4924579071880147 6.271528112664437 0.24923656980746753 0.8522633623657774 -0.39530428283422886
Ni 4.815538187639279 8.917436237826427 4.693860712280014 0.30930036786858345 1.3483227503328972 -0.11566544658582015
Ni 0.17659836310776889 8.470410037848673 5.777094673711281 0.36989201340871136 0.030744480271708348 -0.976623765622434
Ni 0.4832347698371557 5.749358981003025 7.686234394847333 0.3129289657601062 1.1858118041484482 -0.2670103488511208
Ni 3.409605807252076 5.841700822271082 9.442330240888035 -1.1349780093260324 0.21702681784414238 0.6622858353299433
Ni 8.650306784141204 8.27182582891292 10.411889195568781 0.08771215590600379 0.2829568448780481 0.1374761147030084
Ni 1.067054116927955 2.7362035511859157 3.1964683915711665 1.1565228253763438 0.4428948881289986 -0.5656205839957098
Ni 2.9657555553590065 1.2381502650495892 2.9440311498950957 -0.23281313414412164 -2.2957601241993624 -0.23976616842318707
Ni 3.430677532370467 5.309503979744023 6.961191222924187 -0.6302858853845791 -0.18116275695768155 1.7577557592590243
Ni 0.4619200156479363 2.1438293966890343 10.491018172239885 -1.1422694007811232 0.3502922368999128 -2.6093892013502864
Ni 2.0232722485236994 7.914932115013876 7.443753980557917 0.3331298661880134 -1.425297465216739 -1.2408673503616952
Ni 3.205111573184822 2.9185766164198386 0.8465429783026022 0.030127672623315855 -1.7579496204373852 1.1424336942731292
Ni 2.8796183199143637 3.2957871924142474 10.818462102029605 0.8151731423816994 0.12197621929519638 -0.49529499899726953
Ni 4.273288779000695 3.6510607125077703 8.805429294243863 0.3389989233742807 0.008537090936733686 -0.8196969983939819
P 2.841037454920402 1.1376982491073062 10.897617775075913 0.8868644973794146 -0.06355561326445829 1.5884892395182966
P 5.795120250362362 3.6315907699016554 6.97248194850641 -0.61958675379952 -2.339027676638746 -0.08591701167879397
P 7.829522125652393 0.8092693151290039 6.579287608281741 1.653802716014126 0.2438933032176832 1.0282949687444807
P 2.229892986960699 6.5431803005351865 12.072080615098605 -1.9170448560720663 0.5357225108846968 0.9799294329568994
P 6.783466088669852 4.574552770361321 1.0129930365739732 0.9998827361503747 1.1349975497100582 -0.9006193850716618
P 4.6685055997882765 9.156930340351577 7.421751564566013 -0.547116097433619 -1.1241408095012124 -0.8571559145713884
P 0.4030370175932058 1.2657027653900634 1.3637907712797457 0.13882902918647705 0.4251118531139646 -0.577937710800166
P 2.015861702992767 8.238262041328099 2.1612133397705415 0.982033880894412 -0.3274058192200426 0.5175813211992957
Ni 7.286563882223894 4.805467210234508 3.1731458858536286 0.6315266997702157 -0.11410401563597122 -0.2591638562235085
Ni 2.8242187385415027 5.533486567710637 4.008833565659242 0.2225390059116232 -0.9702057779112322 -0.20634774086374139
Ni 3.657329757857541 1.3582471308838107 8.997815341308836 1.0267744183348964 1.6340003365762181 -2.0627523575459317
Ni 6.799318212153412 8.077687947295727 6.261153348921131 -0.2699151812027416 0.11104131755024749 0.9276972151250603
Ni 5.152556910480828 6.7152706584920265 8.078781578114453 0.03389922385060613 1.8266991191979571 0.0925640846816664
Ni 5.698212408369655 2.99880382673298 1.8842946014671884 0.5356703174905226 -1.7178761494552675 0.01803628867642055
Ni 7.526628734839624 0.5370546622496339 4.36659261034078 -1.0242423959416618 -0.36086075644437854 0.4864167226710333
Ni 6.45492576636742 4.82419149546422 8.546335449495224 0.3654596886689706 -0.7746970366445238 0.874564596966139
Ni 7.906085488609868 5.9505207709930135 10.104735431499224 0.29306308007411463 0.46066403918696147 -0.9520154801554508
Ni 3.85792079775695 3.2538002381700437 3.2558319243795797 -0.9057798462266787 0.6981547813124106 1.2153144415932553
Ni 0.7383416490336866 6.316113820950109 2.788628788135119 -0.475998869771819 1.699384775519299 1.6580422080167705
Ni 8.859753656091241 8.43056799926746 8.039601425525383 -1.1974679003301378 -0.6517635956423807 -0.18941908342920283
Ni 7.236393108132486 3.5232587204507038 10.31145835261373 0.5228744512774349 0.056874344589540764 3.0230763575670774
Ni 4.658268920744305 -0.017836860895323266 1.4674684457984744 -1.8745249804319846 0.2174469361006965 -0.9581362483412079
Ni 3.7021612569080284 8.3492177000664 9.15269206064668 0.21068570611746296 -1.7651399675382373 0.8423386470528977
Ni 6.223827213561786 2.886725079106762 4.262066175203477 -0.21224713706731185 -0.35985288400515447 0.8768726762740252
Ni 6.512276944824203 8.140626953252234 2.0835526637356914 -0.8402506541756175 0.8487802889131835 1.1915924153859672
Ni 0.7314180822090723 8.023439071750651 0.3384842617838152 -0.13799007822494944 1.0943144701683993 0.45796823752235316
Ni 7.52644462190718 2.572600799414815 12.704292205353388 -2.479559804559259 -0.7000473703494331 0.6593038698834839
Ni 1.000534114435384 5.790996120675582 0.5615361588769165 0.6406667143982708 -0.4828014945159492 -0.8414567586685766
Ni 4.225603529497302 7.1353703420996215 3.068012798603918 0.927920643989776 0.5456508257420022 -0.8926340528733402
Ni 1.3613770507353846 1.7513282416550242 12.377414422830938 0.4287592200585648 1.1694400476586442 3.237110411331483
Ni 6.167276926361141 0.22968824774310062 12.001479749458378 0.27458841830869485 -2.298971432047808 -0.42813727020384973
Ni 9.035710385629438 3.8298159586191387 1.2609425255216842 -0.3287960146993499 -0.10997250996610092 -0.7792743716025612
P 1.9671085984811894 3.964209193657756 8.904270322027248 -0.34077195611430344 1.0320950592168614 0.44808800229416385
P 8.678061808707367 3.4796976006340903 4.42578123586337 -1.5923140125810253 1.4382152017196717 -0.08616280914101289
P 2.4987070739778 2.194165872419643 4.873797963417681 -0.2355945535440007 -1.1570668708052718 -0.6431028346435891
P 5.66907653681015 0.8952942416848549 3.0830759981719495 0.6348331384356293 1.1954680962912896 0.01995973095137853
P 1.83796258201727 6.284243872343788 5.773578116701572 -0.5161510165106723 2.7701258292431326 0.37592099321161065
P 5.193006521739112 4.03482570889724 10.745032341182352 -0.31395663569367216 0.8556880717766101 0.6544995065163051
P 5.11298183565166 4.950474555828611 4.08291048346404 -0.028718193870298926 0.4458264599534967 -0.2221831652341012
P 7.4852125306860025 6.53324740782975 7.828271078276426 0.6836861553825903 0.9026955508744002 -0.38633653211797986
