# total energy = -381175.1080519512 ev
CRYSTAL
PRIMVEC
9.13600355316386 0.00000000000000 0.00000000000000
0.00000000000000 9.13600355316386 0.00000000000000
0.00000000000000 0.00000000000000 13.37146468144838
PRIMCOORD
 96 1
Ni 8.574258265456999 2.367997349910828 3.6964746149993464 -0.4851653667624354 -1.334613885387237 -1.8162259875807754
Ni 3.302930291271834 1.7530803470849599 13.014473931029798 -0.2334458826321141 -0.003411853895026382 0.8854390777867976
Ni 1.8459752329769687 2.583661853880808 4.023232924284711 0.4868157578816648 0.3645382052959657 -1.0435446958146997
Ni 7.332501774942056 3.8118879228766644 1.3449558750101762 -0.7218678086586342 0.5320329778482514 -0.6768876444035181
Ni 2.8159721566406426 5.541369972335832 1.560610329376057 0.9321187412315237 2.287222004821364 1.8219209810830237
Ni 4.245793283867524 2.8019575269240478 5.293268087134579 0.35585893235441296 0.6903795082423658 -0.31961460531039787
Ni 3.8313202028031297 6.577191802849616 13.221838375614167 0.8851197467741659 1.416409932919122 -0.6277492350056544
Ni 8.780229469473062 0.5263096434827502 10.123268610901398 -0.42464108412513324 0.8807457860761864 1.3336728616302063
Ni 7.43984068272581 1.481119788151707 1.305865655865198 0.47412839222198344 -0.5913514131029106 -1.4075226577318212
Ni 8.434011472250052 7.303622867162291 2.6041466014365775 0.7555289483565053 -1.1529590192844854 0.24660633127347206
Ni 4.834499092001794 4.427937790164631 9.218969603636035 1.320701903291835 -0.8193565843354276 0.791033054800386
Ni 4.586410910806131 3.325761164584593 11.297817917202398 -0.26494806700545337 -1.2173142456321036 0.26554841959361364
Ni 2.119315328472937 6.709992753019388 11.101096916959508 0.6873450922914162 1.4328842764250613 0.8368102610355007
Ni 6.796483300299054 6.9601091270423545 7.00422780263845 1.769978012356829 -0.12226701106273781 -0.8493703570886986
Ni 6.82849585735704 3.69784318835759 4.736680813701523 0.08219765384567779 -0.38012114733588726 -0.6444423793906192
Ni 4.306136588481678 7.7277161601507895 10.940358980994185 0.36566229159807995 0.9396649290098977 -0.6827852408348757
Ni 7.618111523442841 0.1459129427181795 7.888722694625675 0.3803011245571773 -1.5078424750995065 0.627954409037925
Ni 1.9032214323278072 4.206517603846896 10.925891205492752 0.8490422843253185 -0.3624702670233435 0.9010449026448546
Ni 5.350783798595352 8.33688661663263 8.502098453622867 0.07354614881826688 -0.45413806514298566 0.044276710430188264
Ni 4.371449879123099 4.537752554958291 3.257824013672894 0.14788059786578403 -0.26821696756471225 -0.39555959337814456
Ni 0.28642833443468724 3.828661625718691 5.1572942028705615 -0.8219515987561135 2.2707291493726633 -0.46312587046389275
Ni 2.1649953471059074 5.26801160483241 8.870201747772933 0.6538482460855513 -1.0803999169698362 -1.1215162273941717
Ni 5.851957555025125 5.071468756662192 12.825507570750043 -0.3313640325368422 -0.5089634976232976 0.953221841758726
Ni 4.903740864245651 7.9756124852681936 6.035223962579857 -0.919130556501972 0.555535946066198 -0.7019533291228943
P 5.7079284562753685 6.497315722268004 9.671660415489516 0.868842349770381 -0.15338352996188423 1.5550630986493672
Ni 1.4756473219194772 7.195571351087864 5.25613571358821 2.4375541495514343 -0.23693332696008224 -0.076849502159887
P 3.612284513458037 1.210648397825889 6.512825915794642 -0.20860722632187947 0.27015892178243145 -4.985509669076272
Ni 8.61607375451362 6.268120796778938 4.957283327685728 -1.5343271516535961 0.7069962908634405 -0.26241064529558034
P 2.077563791442402 2.919967287060463 9.082113181412028 -0.8916693749672258 -0.17919329193613656 0.09056916573882468
P 7.573792769365133 0.5615855810718754 12.25601751925392 0.5243510358229615 -0.4917417344283725 -0.7044997496938319
P 7.884444304080511 4.862985151621314 6.413756918584202 0.17890918503681444 0.04571832797272127 0.7507734359493909
Ni 7.883384527648226 4.973585612735462 3.1633138823220235 0.7128681762631852 0.3134254457805505 -0.13763346621647907
Ni 1.448257582747148 5.3794525782894045 3.4521778753502206 -0.5665209843227921 0.15146188745913913 0.6960426200654141
Ni 6.135776646795496 2.381783579534259 2.929353617289166 -0.11778737802482939 0.37682679285533166 0.8212453167177083
Ni 3.1487967724004657 4.329186725883875 13.14657049531225 1.1594965632926868 -0.24250336484869203 -2.145189381095925
Ni 6.257002280243673 0.339365994428064 10.345235130241983 0.7619168541607201 0.5084132815467826 0.7002543441539165
Ni 2.470722575812652 4.6230645577572265 5.406979357517633 1.0067578660036534 -0.22491316257075458 0.25171691302716004
Ni 1.8543894924091617 1.0529518375011484 2.036046136107268 -0.7382771032545931 -0.22995946674541043 0.3428607203225321
Ni 8.172648677639648 6.337819369209124 0.08666504495084419 -0.2873241207078084 -2.4720717237123297 0.1269273926528846
Ni 6.1218533771161665 6.6079161833821525 3.5766796797347538 0.0902313227834317 0.6111036560291734 -0.32310924872721775
Ni 4.118318623870357 5.515661257849196 11.11462916567934 0.48054560860223683 -0.5287478793390765 -0.18316256099652972
Ni 7.986146297564956 2.284722675942923 6.204547001247061 0.23382203502461021 -1.1783900577630801 -1.023475178758334
Ni 0.7581329972439572 3.8399263183135814 7.439013874388554 -0.4033582634869569 -0.059971752567941884 0.7043830216103094
Ni 0.24230965883859173 5.896632613248169 10.060181764368147 -0.997227815026031 0.18651450818789814 -1.003282505860543
Ni 2.065860570668635 9.100638256168443 10.134313125806479 -0.21926496314604174 -1.9411972849485533 -1.129566608502474
Ni 6.0356095019371185 1.123591418315174 4.983023104585034 0.011622928950909016 -0.4395030888386302 -0.5316028322893683
Ni 4.099169560059416 0.9174557662320315 10.82930902849669 -0.009924201092247424 1.3790088665628444 -0.25222162057772046
Ni 3.560300652253716 3.669512440801422 7.480866821060454 -1.050653796055655 -0.7378888666772389 -0.4087192706885541
Ni 7.465713845279524 2.368856134261128 8.292902240291316 -0.7175650675182222 1.9025446055733621 3.106440263806715
Ni 1.7246399674840724 1.778688565530603 11.20810875580985 -0.2777207932900894 1.5428760696648718 -0.5529309043431833
Ni 7.552332296611362 4.994936453444512 8.673601342779236 -0.4602979140967944 -0.06588811805237685 -1.6746109110087288
Ni 1.2490104774738577 1.896606965629753 6.052045172641262 0.9499411141249252 -1.297543977118133 -0.046549051404132735
Ni 2.4973174826607676 3.3707103029194356 1.8212066132737992 -1.473918825768868 -0.8797014039720721 0.40866424908090265
Ni 2.676556739772817 0.18954010131378426 4.473690896827414 -0.027725748050042572 0.07000753953738911 0.5222352750315393
Ni 7.09576964637855 2.583908525981426 10.843496328683717 -0.5100942687936312 0.19246275535153307 -1.2472945940442777
Ni 4.789367233592419 6.103426057599626 7.787313966860854 -0.05440711399597082 -0.15309068131181378 -2.0774343850381385
P 2.9483437146352642 6.182187545726594 6.773382001275988 -1.0776508934697893 0.7337401346161879 -0.35697530534704325
Ni 4.81318479530765 8.998863174654185 12.860862077971218 0.2151339716968037 -0.8037733851851899 -0.42845043056889437
P 5.197837960208441 1.0587531998675357 1.2498016553965807 -0.6209630653217563 -0.7521664596421755 1.239447587196033
Ni 4.70071145342955 8.749605584981518 3.388008412375369 0.5383689473686083 -0.013799624887253652 -0.2364250198650961
P 5.818693365456595 5.483484252724132 1.6319067888580245 -0.1708120098509768 0.04574506744559864 0.5459778700641178
P 2.4367731859646287 8.796080435938702 12.340511849719325 0.20513623705414347 0.0061210252960733295 0.5287635630683604
P 0.5981213735748978 7.947363961745564 8.958480210981893 0.3616678257267062 0.0547182174784864 -0.8229088204630602
Ni 2.953167524602906 7.347073700885974 8.797087223549372 0.34615353214119093 0.9878301758612148 -0.47645575480357955
Ni 7.716360107518633 7.616704578868945 9.757452058484098 -1.1710385024940155 -1.1077294580227246 -0.07387833534670502
Ni 0.4988358530761365 1.0886644760684048 13.279362309478294 -0.537120676783804 -2.322493169318833 -0.5928547371213144
Ni 8.95215078760011 3.4484851026439314 9.86338128089284 1.469525838907495 -0.031879108096783806 -0.011043916518987432
Ni 3.5522152889556806 6.665938943049751 4.124000304587925 0.001962780153325652 0.5152411031018933 -0.21461486596854007
Ni 5.869352506120559 1.23151503033743 7.194583749085019 -2.399289963863913 0.7482974636050727 0.041113996431490475
Ni 3.6880311203552285 0.900456404097958 8.381273890738287 -0.0703302129841305 0.36012979181562493 4.9747609152002
Ni 1.2197021775189438 3.095287198573804 12.981205173459406 2.369037849847591 2.487164356379394 0.7381472625449481
Ni 5.960301423218803 1.9103201072233709 12.642306028821771 -0.34463349595223874 0.5190332231544739 1.2271482010033898
Ni 6.588611807507859 7.534763761445123 12.179732801737233 -0.30735481410643845 0.22270355651394552 -0.7791391315762776
Ni 0.31479197160427125 -0.01321522939051835 3.9408919498976633 0.4073758692867823 0.04842852781503272 -0.006866645212846238
Ni 2.1209689451474505 8.877372597097937 7.055761258859048 1.2183593990671664 -0.5777582477995081 0.1572342711665421
Ni 3.4264399256516596 8.572869592890555 1.2825697599627557 -0.11257575191690289 -0.02567863571302674 0.8857884907064164
Ni 0.08184945738655644 8.485712117338847 6.455114693854121 -2.2797735189631188 1.2990244183184014 -0.36441993455054655
Ni 1.2771310969443141 7.592622073045643 0.788750486532892 0.08233315098227754 -0.47280581675581806 -0.9341092892989913
Ni 0.4864894576400172 1.454040673106082 8.202618424264369 1.343365663437938 0.028002141639880806 0.16693015829806734
Ni 0.19499338193818824 6.3508838545381545 7.307237983836905 0.8187829712201447 -0.6198505489838679 1.224505106953588
Ni 8.31706148854592 3.4564791059047013 12.668928343681067 -2.2442663271954446 1.081831250099724 -1.1282062378198376
Ni 4.73008370541055 3.1704582372362196 1.1820198165482338 0.7563303612118781 1.0778840925265178 -0.8011655152486977
Ni 5.332347343075086 5.308639413404574 5.334024713359288 -1.7955805434162817 1.7483450074680857 0.12472395724366264
Ni 8.205364706984582 8.4741185286098 0.6872796339427295 -1.224315616650601 1.366568841027279 1.095677926174829
Ni 7.091868572787295 0.08427597997633983 3.1492471773841864 -0.046254660092165494 -0.2686561119846599 -0.9952053852793634
Ni 3.8741589242771295 1.9466539940440353 3.1492471773841864 0.4312192515632831 -0.9761874494159639 -0.6082453606447719
Ni 6.0162594460441925 3.90680186559225 6.84118942093477 -0.26031185378502264 -1.384796676889215 2.8552370571911796
Ni 6.006538738079096 7.755060219304486 1.3150272404022265 -0.4199256809273349 -0.5161831553001884 0.05576928445082008
P 1.7764502446175876 7.561660156416216 2.81965396614246 0.4883985289877524 0.38709732154340426 1.5740550663708375
Ni 7.239003912804091 5.187550820012296 10.89509647773152 -0.368935563032713 0.30839816776928825 1.1032045735691776
P 0.6602498533172282 5.585076614163858 12.133160195540173 -1.468204034772278 -0.7856921022034469 1.64396541820873
Ni -0.0027115659060531253 7.996296397705202 12.10450511985171 1.2295136159117728 -0.14385939252153288 -2.5008084295253896
P 5.298809073394758 2.3428459316515142 9.225481747092351 0.679932601877429 -0.8518229323942492 0.638965415436448
P 0.18368483652541012 2.5558884025519624 1.467705393879949 0.766323467868848 1.0891005300676275 1.353464699545153
P 7.558882811283331 8.570384599876922 5.061834840732498 -0.6100027096555107 -0.8057847591882639 1.1325352042124948
Ni 0.5878177885720449 5.024911681671467 1.390485149581658 -1.0873285257688692 -0.9660997261626588 -1.2439971542399286
