# total energy = -340862.9636050739 ev
CRYSTAL
PRIMVEC
9.37811800688659 0.00000000000000 0.00000000000000
0.00000000000000 9.37811800688659 0.00000000000000
0.00000000000000 0.00000000000000 13.72582365777723
PRIMCOORD
 96 1
Ni 5.384380903195203 2.9914227572578658 0.9363169454361563 0.5633382157194362 0.4233444768008967 1.980869406727195
Ni 1.2827108695853306 6.802080405787628 13.12229903258026 -0.18456021267500472 1.0285345955591125 -0.3066073944174526
Ni 2.4292045726826776 8.97470904332781 12.828964625440085 1.03086118680976 1.3986675213340363 0.7007024874349287
Ni 7.713042670926579 2.330021594866711 2.7524945648965815 -1.437654187009879 -0.8431205195242447 -1.423923724797664
Ni 2.0123284635794865 5.6200530129262205 10.88641780138696 -0.7471103852755069 1.057815861021733 -0.04197814420399867
Ni 3.707423323662311 9.184413143832995 2.201622027689184 0.9377335163151399 -0.7510896816382291 0.7702266595779961
Ni 4.30095504482293 7.533226633044266 0.2732642964344309 -0.08541744633455611 0.9394224739817887 0.3655689605533252
Ni 3.5178915553509755 9.018879979930798 6.152627903762899 0.8704503176874492 2.508332762926893 -0.5595764346841589
Ni 1.3436217471302154 6.919747654525991 9.07143776761745 0.8847451370435667 0.9153546343993075 -0.14091187985743475
Ni 7.322106436694697 1.991424638168009 13.534870585441247 0.856459659835312 -0.16993269256981702 2.007285691937195
Ni 8.430243636457389 1.388861789205123 4.913090139006765 1.4921224932610884 -0.7426662334612242 -0.4101027812996421
Ni 1.6300951230137564 4.62789500063044 4.133051092646162 -0.541997288149815 -1.2146942915107533 -2.287821586078576
Ni 7.487808406724038 1.8471610462861052 7.4457381685921895 0.02584112943282001 0.2936541766908943 0.17085983236977673
Ni 4.31023000369774 8.69749187008273 9.683019552828975 -0.347335211154118 0.8687860426111489 -1.1829931037527304
Ni 3.457496474305701 2.6185018880396447 13.36487625072333 -0.8873303812722396 0.010521725466930266 -0.4285530175850296
Ni 7.496576947217412 4.917688230347837 12.127904339099803 -0.2814398940128895 -0.2355169062285299 0.20502182296346624
Ni 6.089831086653075 9.049837148025588 4.958344248258935 -0.7087950346350761 -0.44715160652282343 0.0662429302886343
Ni 4.775234615273656 7.212766956895495 6.545351607318885 1.9874383181939643 -2.4457906785286134 1.1414366204671826
Ni 5.3811642086612705 1.2759492463813487 9.099534609668947 0.4319813265402883 0.7857296403096017 -0.9016141448847634
Ni 2.5067803662240613 3.4207530072971006 11.293621319404732 0.32402584700421616 -0.18111236333572034 -0.8099589451706115
Ni 7.3606786367473696 3.121356584568779 10.43122832829272 -0.6053173883646995 -0.48945319550451194 0.6259592329847671
Ni 9.126428239158626 4.642459218155799 9.978701302948284 0.8978811602048923 0.8010742410864721 -0.16263693023935216
Ni 4.924243534951974 3.484655504539725 7.914200492339129 0.6298804224160442 -0.18492659487548796 -1.1477468789559264
Ni 6.270275458453095 2.1413995040183242 4.934227479560794 -1.2956246486082332 0.6103827187027487 0.3966967923063813
P 3.1353487368854793 7.942628381962194 7.9075157697041805 -0.487707930678631 -0.5028414438859597 1.6395773164433634
P 5.571343067126663 0.8256513997270477 6.739118533797929 -0.30041283557096654 0.7085744339838377 0.3026388966880078
P 3.3349338478801274 2.15064632853861 8.861090328205478 -0.4204111052041857 0.6491683241113788 0.9109523915665538
P 5.6389124085756075 7.12228687274568 8.674762125062632 0.2094757449697618 -0.26381626739385533 1.570078855331909
P 8.182520644871841 3.3900302921566783 4.578880265990203 0.18541587580708066 2.2525702190754493 0.16033733557189805
P 0.06142948747994758 6.407739914658318 7.533555804992198 -1.1126423219433095 0.21701524787991658 -1.3086719687104946
P 7.4024862875703255 3.9490505384342836 0.6681909199496611 -0.6633525860315608 -0.47389930693031285 0.6807967496499372
P 2.143969108398201 7.878735262837744 1.1373106497806493 0.4818445299193186 -1.2947083074415509 0.444621383901802
Ni 0.6163318020670276 2.2577819505667494 3.1164349481506797 1.4343076391351492 -0.17037749341671946 0.03194235723455144
Ni 5.3761375373196145 3.503139775462122 12.341409390901207 0.3616048336992547 0.7487947149564652 -0.7269909888178124
Ni 1.0117207668082722 6.49416865175665 2.8266004547133146 -0.9797821087457579 0.7204012514154368 0.08168189055152385
Ni 1.4742307989497092 9.338204903780426 2.610789323652745 -2.055465594076531 0.1943571441607685 0.612228770772552
Ni 6.923911538995572 8.620760107177071 13.42004021745074 -1.0305775941310702 -0.3334700231362515 0.3875711758560293
Ni 0.2901130235471545 2.6501624149975402 0.04147191419230023 0.6489032433754502 -0.8747844262864288 0.29152658882493016
Ni 3.8807215694131854 1.3086132319839405 4.300821875544849 0.4310521298577996 0.035594609275158055 -0.7978986715719678
Ni 7.060259999138002 6.176888157669114 0.37585997145418243 -2.530593374097306 -0.451961369206641 2.690376894048263
Ni 4.793512567596209 0.7823695087270243 0.3888111526534874 0.504891384436453 -0.9766805870022987 -1.2711541742706947
Ni 8.9505885233824 8.12336347542563 10.782787719932537 0.6126062087166289 -0.3597572389675546 -0.10100141681574218
Ni 6.72023756847674 6.513103072351433 4.864280785154555 -0.2757099335076477 0.2820538734478046 -0.46956211300753975
Ni 5.367828524616802 5.2625685262236095 3.2124603135772136 0.3501878501115646 -0.5186694120571519 -0.17152497675760137
Ni 4.368655679926321 6.862616158605523 10.811104009949322 -0.1273439113650129 -1.5256411938438241 0.6145805588341803
Ni 3.7565834191342566 1.2681091395872726 11.141017767030041 0.2062343552143287 0.02502326151721497 0.280911018092613
Ni 0.6889906482493994 3.132479032724011 5.779917104391791 0.09801533760422475 -0.9111261981402565 -0.1528140306116594
Ni 5.867785382629944 0.7734593586492113 2.6211380770585615 -0.47445080855840865 0.5480008140314174 0.07075984432238136
Ni 7.260585981468455 8.874400691330877 8.641174394819828 -1.7379171272665423 1.0841598982329006 0.6130219560978087
Ni 0.08027200251661928 1.9519427606523867 9.443779069132473 -1.1653247399386897 0.17390710383653274 2.5760237385159632
Ni 1.50009564887562 7.847290432597868 6.403316256315298 -1.307233436491755 0.1376625196822016 1.1216290988229523
Ni 4.827283171143418 4.351606261084658 10.074699471832114 -0.8605271450364664 -0.39932394551658323 0.8161349920743365
Ni 2.806026739061587 6.148716290672218 5.358657662853731 1.9890349732571229 2.042312601634341 -1.620271674136216
Ni 1.6114232897278649 3.675978493422434 8.57386295162069 1.2140237478062899 -1.9173405329356141 3.003132310344983
Ni 8.28561429796667 8.981761388195208 6.129678710777512 -0.01928687325407001 -1.369208592642971 1.1836225098066133
Ni 3.776661970146358 5.726916669527293 8.330984695884208 -0.15839769534702397 0.6707910445874771 0.39033254065125034
P 4.2807639563927316 7.726781614052561 4.596668680544035 0.3066040519833429 -0.4023056538527265 -2.8524299267596875
P -0.0020697506811633713 3.7681185044891774 11.874677329957507 1.3192464017922312 -1.040172694018673 -0.21405359414843136
P 8.75331980757691 0.5247122765589824 1.2081013748226144 -0.8613550402544004 2.2680168926478226 -0.05365609476255921
P 1.7683473411456567 4.3999973508662755 1.9989196302132548 -1.4730672764018502 2.0646698862836184 -1.9520838499540705
P 0.4273373999271043 1.7446300802817594 7.480876101769276 0.32665659975884387 -0.11120303993909235 -2.191938978546638
P 4.9416680785206255 3.01927576823682 3.286634663656622 2.444570432968267 0.426792069029865 -0.07440643993603314
P 7.056443105040886 4.079425137299409 8.495118644554733 -1.3530875187113922 -0.2873457179743632 0.08124994522042782
P 7.229075504401354 0.9805572801136374 10.205520469122355 1.9181997956121157 -0.8383475236156336 -0.37520159854708285
Ni 4.6677144904003525 5.298271022114814 0.3345737440017419 0.9555844284536318 -0.7130715505232429 -0.0352343977222619
Ni 8.969607347040755 4.241816631613069 2.2879710507830295 -0.03291731955331105 0.8825036493075576 0.8564540034083573
Ni 2.492150501871479 4.764684232327082 13.574620677136668 -2.0549549729886993 -0.39154533001242886 0.7343343165567611
Ni 2.127763720192264 4.759638804749077 6.874564818971949 0.1599131035502859 0.40181020227354675 -1.3551593136387565
Ni 7.251039057166577 7.149474037334228 7.253919077258037 0.956358587615495 -2.262506761462871 -1.08960909427293
Ni 6.099687488854719 1.3198575956754444 11.908812742301714 -1.4553228079342355 -1.6130707855124027 -1.0267628483706703
Ni 4.709765972295851 4.720869664214733 5.542172430544158 -0.1814761744330423 -0.45429927331119824 -0.20017349373222945
Ni 9.174322288676983 5.001247263284699 13.715159280479567 1.9530346439031137 0.15349254473592275 0.4705915827133185
Ni 3.3096785756355738 2.082673728008152 6.503268239821591 0.17310646231210833 0.05891605760991789 1.6074192436535801
Ni 5.957955988879992 7.6108962077673965 2.2371303965341722 0.05751429216638482 -0.28579122900304976 0.2748020769813977
Ni 9.429322699966123 9.15921414029749 8.352493409917955 1.1665568125735781 -0.5676707816565191 -0.6685626694775905
Ni 3.029919932365141 2.867218960151714 2.39121662939229 0.3394928322915637 -1.3864432113537026 0.17596192948303244
Ni 1.7520012811670989 0.709761304382796 5.13579137349031 -2.2966201582068124 0.20590679667158088 -0.4572686403521673
Ni 8.823243056687712 0.30904181727103375 12.582448597663625 0.4721702400543481 0.17840704858941533 0.48951155954627307
Ni 2.111877188004268 0.3689257908757855 9.52831623979496 -0.0823362363060711 -0.466421510496029 0.2241875972586397
Ni 6.813690516087946 5.525587228552144 10.126240671508622 -0.6086567371505776 1.4675329768471823 -1.8947685611723692
Ni 1.3407895554414464 1.5241786563483322 11.70104522319961 -0.6332560237564965 -0.3158250563609787 0.0426718278369136
Ni 0.4855042400940626 6.0231245320762055 5.246339692722234 -2.828074894954091 1.6660604503355565 1.5925916917224443
Ni 6.544557280709484 7.895878462861155 10.766509182404837 -0.37346944634732454 0.630097937743489 0.6684109743910747
Ni 9.061794248698371 7.847206029534295 1.3909062189672146 -0.26271017881387015 -0.4191497219932588 -1.511464902343442
Ni 3.274641926134775 6.028320009545007 2.3835715874562484 0.45156387665790615 0.47732170234830046 -0.6136557330270657
Ni 7.859463229988671 8.978244593879683 3.339986777952673 0.8527287320379702 -0.3882897991896087 -0.4534364110902707
Ni 6.934902693496359 4.348286407250803 6.30891049189754 0.2235286235184021 -0.019681280479011267 -0.7127895005064498
Ni 8.974399565428044 4.308616967371686 7.649594074603611 0.20590371134778734 -0.11602771502124534 -1.20773380103252
P 1.7980759757595577 7.920242813879109 11.104301496564146 -0.584414319663445 -0.42003495281168945 -0.7700317699583705
P 2.9718975152180733 3.408570831788124 4.906103440966589 1.4876212629566252 -1.20341100528745 1.2431931702813945
P 2.4967457797770978 1.2923797094234795 0.9214047997265148 -0.6003129931715726 -1.1516138181105005 0.3814784326947301
P 8.013864567617459 6.252700864993647 2.4323124810457837 -1.2127963031570919 0.3513685006832271 1.4705360253395643
P 3.8014389583640003 5.182610690665843 11.935990528772086 1.6254989839734262 -1.363096566207962 0.777796501505454
P 8.44740559271715 6.934068040978808 12.910345121524957 1.3081788311241598 2.344750438055136 -2.876498537673117
P 0.2622365672727634 8.335580911601644 4.584740652037593 0.9479739630962253 0.0448688354882324 -0.8015874332774646
P 4.851534984743276 8.692296392613928 12.212963870944625 0.41218383219838695 0.5118616451066991 -0.1837171479484191
