# total energy = -340877.1914301957 ev
CRYSTAL
PRIMVEC
9.20801020353098 0.00000000000000 0.00000000000000
0.00000000000000 9.20801020353098 0.00000000000000
0.00000000000000 0.00000000000000 13.47685369280324
PRIMCOORD
 96 1
Ni 8.084678756560734 7.483699572610243 7.485785186858865 0.01466402977007797 0.16328947622168655 0.41845321014686643
Ni 4.630192544078935 4.336355739276446 9.09308935978665 -0.3335096181249353 0.9070432863201348 0.5316802224945231
Ni 6.150895383636802 3.1465795685098 4.9217061679766685 0.09808758560305687 -0.3668072038358005 0.8913500439545938
Ni 4.312691153762285 2.6109312149962656 7.626294814350438 -0.0266638824444315 0.3404500539985104 -1.1906850730803493
Ni 1.9453854654328193 6.851026418488649 0.8596073211924735 -2.2332769180634764 -0.3573131483024362 -1.4960133436750622
Ni 3.910328743952051 6.019911442415424 2.121499704911788 0.7711473716200525 -1.290031727901488 0.24567070683308015
Ni 8.54062257614019 1.388696809234515 4.5105003854318815 -0.8276694750764971 0.7960302509046613 -0.35548226574128455
Ni 8.54998712223665 2.801537020499431 8.402899292452735 0.9290493582775807 -0.06775499605778654 -0.6832639802435071
Ni 6.098860919535431 6.87811638369591 0.6007710829261235 0.9782034514047283 -0.05730886102379807 0.26667199167509553
Ni 0.9595667145644888 1.6757565187302252 2.4066966339991267 -0.572209292956821 0.3950440871943067 1.0143701311332725
Ni 4.809638241549742 6.6400801190552174 4.280976005168345 -0.8440471451035721 -1.029104094909337 2.370049064720925
Ni 7.664259439282301 9.001170400683492 10.132976624149379 0.02643042627738674 -0.2171576869950518 -1.041436648332761
Ni 0.8605115477673725 0.824452060089549 9.153411032822941 -0.3750933551039928 0.38790644770826094 0.5577882324354846
Ni 5.239725969252247 8.306030107212452 10.249483732162442 -0.7456165743387997 -0.4695361448656107 1.9750309456685469
Ni 2.4772032868164358 4.109838695055292 11.636939301658707 -0.28094907041940004 -1.1391051441205284 0.08162224095818202
Ni 0.4825245818377175 4.0115339810672825 10.331853984970587 -0.20661076471714096 -0.1852958052894486 -0.48126423193581636
Ni 2.6345221364310047 7.654360828610035 11.685806210344952 1.0616133803909522 -0.07743571368066018 -0.5337419901195583
Ni 8.23113215446063 0.609300462522142 7.658114013456561 -0.7746188751084208 -0.7189179820016909 0.10785134985804005
Ni 3.7541516875685144 -0.20866363377235714 4.071842762889675 0.7644427059063673 1.3401759528560466 -1.955837917679864
Ni 4.1688528306818515 8.122864373730861 6.152264614713049 0.88421626112329 1.3097011813059574 0.4158988191561288
Ni 3.5811331810272353 0.5565450112434325 12.884423912244165 0.11107448478102806 0.26571785529194236 0.8939062347175444
Ni 2.452102251753555 3.65670331850378 2.193196032611754 0.0662652988861375 0.1022118921840756 -0.557375313267782
Ni 9.127274096643195 3.8105875804153215 2.0372961373270417 -0.5783586003876684 -0.6666916777071229 -0.18524386900559064
Ni 7.382273343256747 4.623139208474325 12.616558299442724 0.42393274520419894 1.510326932084257 -0.2412972603557328
P 5.399291573289173 4.7194826163477375 3.6094514947588507 0.05522909567663392 -0.1847137075337335 -0.12391688796133499
P 6.088290124138443 8.693816237307155 5.003604970676514 -1.7535715459743477 -0.16092894640930994 -1.4573382957023675
P 2.424579510079692 7.351610670197543 2.9155828274588256 0.21660952780106565 -0.19054882615827184 1.2434852476005165
P 8.334998506444965 1.8403957362373073 10.378754062736279 0.18098406528797217 0.028664200703911926 0.5910421093926078
P 1.0262511224608137 3.327701123787446 4.039578816904045 0.1351497805626769 0.36028688621877947 -0.31208281570972707
P 7.48248411529979 2.1417002370911526 2.078305851141991 0.20803978385418365 -0.43154809565761154 0.2757369300908412
P 1.231543703798644 3.951645084497592 7.865711359679292 0.15388746618149626 0.05189051822170418 0.8836704159221491
P 5.709868540140202 8.870066755333054 12.63770357344067 0.5213940100771666 -1.5223003023960493 -0.11629125309527713
Ni 7.654848853136202 4.87280518965369 4.07275895987748 0.0014848120756426042 0.6083988555035005 0.2988848289622143
Ni 4.544751419959907 4.637255087693473 6.32711275282696 -0.825175762120366 0.1547482715198948 -0.6302866567155274
Ni 6.480615803127496 3.7884331085293015 7.541862888119485 0.5188169933786096 0.4311498317779284 -0.42326760081637427
Ni 1.1283955765886697 6.4830375097384785 7.271288278797318 0.4278948151757405 -0.025986653871748797 0.11166455295654318
Ni 2.3154645924365753 3.3156386307821735 5.9630759219377545 -0.2257027483515855 0.9687340784617121 0.3966273725210266
Ni 4.024158162678145 7.7418000908833715 0.5604252666269607 0.39226086802221477 1.9944101215261072 0.13654408980704227
Ni 3.9803096194024885 2.9495281560572515 13.41785129376314 -1.2970634379372887 -0.5471862885499221 0.15367869260479983
Ni 5.9027947641451455 6.510219555045017 6.800527850443215 1.2661657199171679 0.05392863169765551 0.06614779947166673
Ni 7.731081967327541 7.506443357131636 4.834443699493944 1.1942470793999949 -1.3035104791142131 -0.24550332801728042
Ni 2.2636234965436848 5.358352761150667 9.370240329799172 -0.0555445700345237 0.1382263626054716 0.07045336882555608
Ni 0.9018720867605667 1.2147390856806113 0.17251851160220608 0.7509693540102809 0.23882488755584033 -1.54862685610572
Ni 1.9066841997067419 7.9679672307272735 5.005586534412953 -0.4579566675581274 -1.9907732961044682 0.3003950949591536
Ni 0.705623612773713 5.9365421205301265 2.7884146855514813 -0.5311757720542787 0.7470890451192681 -0.8203973668951161
Ni 8.394887403014653 0.1351257040868531 1.2006876625309577 -1.612839900448519 -0.5677887952916222 1.2336566915458689
Ni 7.14908049183802 3.711159489216134 10.067532535190313 -0.9219911658792187 -0.08494564890446016 0.8343381453459244
Ni 2.23515232984727 9.10729271510011 1.7332854023554487 0.7358898339693392 0.4509918062045201 -0.3578471664290353
Ni 3.8552924686142522 2.694595193199249 4.1705609165234385 0.1016184815744508 -0.011483318049251191 -0.8287812200834371
Ni 6.254918271789906 6.079800338985114 9.460575511194769 0.4180462045164348 0.43354789969645974 -0.8415865993782216
Ni 0.9184308510135302 6.003023952208042 11.855332118720659 0.10471768932506482 -1.1642564465751757 1.156653180306621
Ni 5.7869027511952496 0.9071243356233206 6.538174152384488 -1.212842068793363 0.06554641844224195 -0.04393963880574368
Ni 8.87864862058566 2.995347213457433 12.399661783994018 1.0949343631405852 -0.9563621871599207 0.07039191946000134
Ni 8.479509014250118 6.358204519148797 0.5410138608983991 1.5792749200088803 -0.19157083966488297 0.9447197178249859
Ni 5.634408898782788 0.5784333716425424 1.2104748562830983 0.029814255147955104 0.2509365832177098 -0.9782386755180379
Ni 1.2814971576563576 1.4943495151448205 7.016292701471806 -0.14777929640122936 -0.21820875396738548 0.02799622810260985
P 6.234191041442678 8.413386294959382 8.451685170651619 0.8627897158183979 -1.314563394494265 -2.283363807417538
P 4.550883954571748 2.40294989475955 10.133677353704876 0.19547968780098593 2.1151354991333378 -0.09450552467875337
P 3.127187499602086 6.337679865019977 6.361128983101831 -0.3180007238560588 -1.313427481117609 -0.6679520324767851
P 8.070084060825346 5.622944926422816 6.267801198479736 -1.3888631336491049 0.7350765940394244 0.2576587324328917
P 3.4548729488987613 1.4680238147615572 5.893993748256259 0.4979596903136263 -1.3024753529814794 1.0213388491416215
P 3.7389860952176104 1.5314025470938417 1.9229713276668383 -0.9051249862514993 -0.20928188379140086 0.2346656139718281
P 8.127937987201017 5.65687644300635 10.691376128592248 -0.19102705134627102 -0.3914414574447129 -0.3465469109248677
P 7.996466021453471 7.232164365415559 2.4676923333621255 -1.0587067482671186 -0.11991548011142573 0.31816141780363916
Ni 5.592825525949344 1.6755079024621775 11.79052154084462 0.5504083950316456 -0.8347585207127945 -0.24922320007102886
Ni -0.23679962890740416 3.6437384405255937 6.016862670328366 -0.046955542813932036 -1.0595968641815556 0.16427060918803324
Ni 6.6272533612259465 2.72690610003551 13.598683717529058 0.4679641723928005 -0.7856777040257437 0.7466522146921658
Ni 0.5896524109384388 5.5255425974077195 4.976153130679095 0.45433141210071437 0.9221976254630699 0.8068008591576041
Ni 6.980767278369789 4.851396566571812 1.7880012389477633 -0.90690213275658 0.09126670602648154 -0.20134823076662098
Ni 8.177670448820466 7.3817761107206525 11.963308005535723 -1.8360131975100316 0.5499476533451431 -0.9350099467363896
Ni 3.535535115865318 9.654874649479929 7.9731890931572655 -0.4855849707983572 -0.8548424359468633 0.2313828294554983
Ni 5.760190314395023 1.2496374433065531 8.906650178775763 1.7728974999964693 0.19894862018619283 0.3902281538629021
Ni 3.5093475356309702 5.76896554785611 13.011632569395193 0.7485509743767753 -1.4183233478917507 -0.7128779464551981
Ni 6.0229224616617785 6.327578678129302 11.818350909249075 -1.4965954414307774 0.9967087092977673 -0.5203108043153168
Ni 1.6443387888569498 1.0756428877129385 4.723515724696065 0.35584376284576136 0.4043417104461488 -0.9221148359412764
Ni 2.73830561632599 5.026127762959642 4.38048973085986 1.3295066460676586 0.6815025174677102 -0.6199963305331129
Ni 2.6105628945991577 2.573730854888401 9.338016899057225 -1.8042523601586666 1.4249375107741589 -0.39135172594438405
Ni 5.710660428993982 7.898142891445606 2.772336579416743 1.7287796837416485 1.0389835588065783 -0.7804141416339592
Ni 0.19261038926442384 8.672085333877808 3.323432290384969 0.7399436923237386 -0.6858404827214317 0.1557070358887383
Ni 9.62853974108674 7.300745623356988 9.891983667520904 0.05831673346302215 -0.3436197099757437 -1.510872520175082
Ni 4.012519238129545 6.884921103032473 8.3279138636066 -0.3984561981996492 0.7985342482734377 0.2725148236091178
Ni 3.3840725605647592 0.6511416596335616 10.49284867214829 -0.6557914858548513 -0.7087934919731794 0.5976369890013062
Ni 7.923004518250367 0.5486362515165402 12.365187915625745 -1.3236085354156688 1.1358593834897213 0.4059573916727009
Ni 0.8085885005861261 9.153728709165447 11.297928920951966 0.45794149804947587 1.3969078583304524 0.0313142367322493
Ni 5.0998102584010105 3.1899585032791435 2.0106923550439624 0.48996767324708523 0.8708233847561518 0.9540523080798213
Ni 5.040197602129151 4.087140950583538 11.628220237058178 0.009792817720705716 0.34592393262888815 -1.3331815238160845
Ni 5.920483351216236 1.2385786233833984 3.5178087759535237 0.4377267136644977 -0.5691021147864069 0.16502985595156094
Ni 8.499692972011612 5.325213133420913 8.486468428153465 0.2589352851524702 -0.8178455470075399 -0.29084138983244745
P 7.513874221143282 2.0851906801649243 6.327329141060262 0.3079705933135664 0.9544716550054272 0.2970081807647917
P 5.337791274982138 4.705744265535625 0.2137750000832174 0.2687985510997951 0.436325719551913 0.5305831327756024
P 0.6378498973029424 8.594903794663919 6.586043833595566 -1.0997197003443704 0.6272486412201519 0.5936834036701969
P 4.108742941873897 6.259457820684258 10.482269589542367 0.1893838593158932 -0.805291107381297 0.7518959795896083
P 0.925524701861822 4.689335591844483 0.26382329644318636 0.4199462497526252 0.14941374668085883 -0.39586735442655047
P 2.259792964413766 8.402419555135504 9.337734213152444 0.21669411709507194 -1.3711232931671806 -0.030540591791018368
P 0.4481823880114079 8.269409851730034 -0.3503399161217683 1.2634696611422433 -0.6625807408625428 2.2773440835860197
P 2.0367749639651347 1.8157735176906669 11.874495828982168 0.45591341187585355 1.3932466074287813 -0.03425095076307005
