# total energy = -340894.68023749144 ev
CRYSTAL
PRIMVEC
9.03929031487768 0.00000000000000 0.00000000000000
0.00000000000000 9.03929031487768 0.00000000000000
0.00000000000000 0.00000000000000 13.22991508129565
PRIMCOORD
 96 1
Ni 6.18066893846347 2.13028953124753 11.471460429443475 -0.2106484251216243 -0.987960273681176 0.020955519205744556
Ni 4.8134582108347885 0.036880304185895205 5.970435837810457 -0.4187805115792981 1.1595847521311191 -0.5175736078898119
Ni 2.6411450192538695 1.3197182966990997 4.826907770785326 1.1710392738249638 1.5762163356882144 0.10101247255933571
Ni 3.465609642903702 4.362216841972071 5.067190183988626 0.4835540564112575 -0.6505978574690537 -0.29444556224393803
Ni 5.0444843908306485 4.549538053649597 2.5827177589189754 0.7039716451045037 0.4156100842711165 -0.054429739703790135
Ni 7.381520568484991 6.114645962538525 2.6285722704567713 -0.33619719225942746 -1.127749095677761 -0.00902997141275219
Ni 4.911191016927411 4.554464466831291 11.468708869493918 0.5256005919593465 -0.28579200033399815 -0.8078079602658798
Ni 5.632996421302927 8.034094048899778 12.435908405704382 0.17126118157325343 -0.7201400273342502 -0.20932687809672335
Ni 1.728529237167555 6.643543873867181 0.39977526594291063 -0.07853048940673572 0.2061921891224836 -0.604676412346591
Ni 2.9492582664304443 1.6371691306952894 0.49086780942402347 -1.0174716528767316 0.19596176964372702 -0.07957589995211456
Ni 0.7458924010824163 0.10906265248149509 4.492971983175456 -1.2701558149131675 -1.3641993123538376 0.31376380295657574
Ni 8.59970955718998 2.4686844007336015 1.3532215220507178 0.9904282756056941 -0.43458585404267086 0.9880489767402403
Ni 6.969021597597947 0.6366878317441275 4.642548734519986 -0.9271233448994614 -0.6702377431871683 0.12024380998512195
Ni 0.8915298297396391 7.360567493704867 2.754918045880284 -0.32734694095764916 0.4236134141915673 -0.3446430090339355
Ni 7.468388147707161 3.889353490851348 3.897136319749401 0.8860060060338613 -0.2102355059539218 -0.7877402429817273
Ni 7.611064304881222 3.5253231942399825 12.670223079490151 0.23127535734335652 2.123261984895214 -0.5763770511812654
Ni 8.313109820788512 8.832697263168276 6.566403474874041 -0.8751276685584605 0.14366476001222356 0.5823111572775133
Ni 6.793288756010204 0.9244843701735896 0.5989948953655087 -0.3763025449207455 -0.6134952961898016 -1.4557969193571765
Ni 1.8491585654422538 6.549697962578463 9.401534374500597 -0.546924036027471 -0.15249264271649868 -1.415906253809826
Ni 9.332524817079815 4.904176527699898 1.5171011423445966 -1.419367215775233 -0.43399218632272996 -0.6941081220468627
Ni 6.429177105786664 1.848290793579056 6.904124013308086 0.8091184515471872 0.7271126019973413 -1.170797590127803
Ni 3.3818244616539315 4.615642383186717 0.3469243437580842 -0.36302948196092316 -1.424560329940398 0.19965798754839165
Ni 5.9823469105618665 5.668448517630643 4.778618978385455 -0.49006306117436893 -0.19454971978754884 0.3319726126551186
Ni 5.140626281840743 2.826025622566153 9.27104770021739 0.19594120081843674 -0.4557545177004861 0.38851142828211155
P 0.15314998277705066 5.6221221551422325 12.333125348153755 -0.5129777609890133 -0.4035400404804599 1.0031763192999819
P 3.8969916911055344 6.231695731877534 12.320689092639304 0.3268183221476888 1.4797799125353353 0.14429673716926764
P 2.5204614552377214 8.480264375936935 1.32845567464667 -1.0960206542262285 0.5423109627354918 0.5638035853916289
P 6.439599407435276 7.653259711729203 5.844949698888924 -0.4014847006133279 0.4087817484953734 0.044895832071425903
P 4.671948122101899 0.9793167047793838 12.66753750635936 1.5411544589880748 1.5593905223801272 -0.11497536249733104
P 4.189430809003103 5.997388289523958 8.053552025073936 0.29822174145691865 0.9662637625443488 1.6680815945306435
P 4.70053939713621 0.9494056933697939 3.8100960900836154 0.2591815968353214 0.40253653891660995 0.2583863546275357
P 9.254606135196868 5.502017105701549 3.8374164409099514 0.6509822373916659 -0.5292911534370562 -2.322968309183038
Ni 1.6161527808834741 1.1869763195006022 2.4872637578962706 -0.4839649186964311 -0.06175275572776462 -0.08497007438449238
Ni 2.0165210242662366 6.178969551898041 5.000273222258783 -1.0909136720169665 1.567132113998759 -1.3983772437871271
Ni 6.256255483464072 5.598737511287107 9.061565764583456 -0.5266850832727767 1.3345984587682693 1.0198902896205533
Ni 8.683973820822557 2.30088805597802 10.224726266084406 -0.2176726789582574 0.723503030269212 0.11462697801897678
Ni 2.414593287927622 5.221690636727779 7.155320465549143 -0.9081344625017844 -0.6577506664637511 0.3060173262419375
Ni 0.6201504502470453 9.246109202369727 9.118758257871344 0.3394146707554606 -0.08854750732310557 0.47060623800133794
Ni 1.5388306921564772 1.0485486287401122 11.471354669747646 -0.9587512562173875 0.6510310883517304 -0.27101895578988167
Ni 4.0058699420661 6.725539275649105 1.3589370652705075 0.5878295159925812 1.1105651276993067 0.47394378701500306
Ni 5.569685232450474 7.966778454470278 8.208738559942427 0.04351694944602828 -1.4038830040967047 -0.7321910449615132
Ni 5.324919331287319 2.8855312702268754 4.75029345848425 -0.22051400506179442 -0.5580844235196647 -0.01554668948534742
Ni 1.0132592396367457 7.364526702830706 7.075424890890351 -0.49948564003984947 -0.6675144307187343 0.6275584591510869
Ni 5.120938707694449 4.253980380618661 7.331502559861895 0.27812548492767586 0.09139834650833936 -0.7323283418703259
Ni 8.230689572365227 7.412561491174786 8.88035511310928 -0.41536402969858144 -0.458955541136287 0.3834517543710171
Ni 4.57896998267638 0.4061036730410835 10.470591344940946 -0.05808224885471287 -0.3004025511583214 -0.7873239813799151
Ni 8.261133901899075 7.062270915730715 4.802273897018806 0.10336631750349294 1.2150102800892753 -0.03573113485302234
Ni 7.357213917025219 5.9740398028297985 6.879661886056157 -0.8106282033234943 -0.336420364013827 0.2684370539953183
Ni 2.3183790825955954 5.4283468902321745 2.4905052473769227 0.7948264604045473 -1.0966937690338532 1.4263266778122017
Ni 2.134113151019744 5.280120608849746 11.433385131087634 0.3724302064495328 -0.2346064785991185 -0.31893480563455395
Ni 0.9517197516716539 3.2977681016969123 3.7787415040224355 0.3234841155681332 0.251606869811857 -0.17655893963708302
Ni 3.581728365347822 2.8032466111572174 2.9444231500801905 -0.17755858454619097 -0.6404384004375486 -0.07301830133925488
Ni 0.9750049633341211 3.4157760358015357 8.175558037252436 -0.44200065844950326 0.11823372153362864 -0.09343800264618747
Ni 3.744634454082676 2.4898363398990417 6.706958110628388 -0.23445015552691237 -0.5932303752931783 0.5105796930704819
Ni 3.9356617747592746 6.891862216095299 6.135756320968853 0.8526122610647638 -0.1260367625178152 -0.43521037500054727
Ni 0.7863983645842337 7.5535111439126945 11.454222502952664 -0.4669087345450927 0.21405642236190878 -0.1383772863610391
P 0.03798942509854455 5.524823234981209 8.032172295794407 1.3255178366232396 -0.18513588267281667 0.24929313407701584
P 8.403918530556036 1.570513404453429 7.898338372334718 0.7690418952412754 0.3835651400204298 0.3524403935911672
P 1.6683908391899176 3.23396879117141 10.41711580780042 0.26071860230513805 0.0061824746616280625 -0.7701281863269188
P 4.007958018111919 6.060473496120371 3.764175591727055 -0.15297523877987204 0.8886074482124503 0.3844310875651508
P 6.76605337451214 3.91619114357878 10.395550773070939 0.37281484348246113 0.7724030984040245 1.6945796408211717
P 6.547130804149837 7.834298616688788 10.264006501829456 -1.210470997458025 -0.7157724943941737 -0.21518950752508745
P 2.3476844615589956 8.449467514083665 5.890434503455837 0.8770655090111217 0.12702098080795543 -0.6085814038279519
P 6.960949511412162 3.954671402137446 1.5292065598362021 -0.22300334714255138 0.5447103162056038 0.5210073161617093
Ni 5.114584086654575 3.0114937797441423 0.6559315767395569 0.3036341707217416 -0.8365078993037335 -0.7638392679944136
Ni 1.487930448805797 1.1112270672756506 7.0504863930426875 -0.4486968395227563 0.7780957779134277 -0.5053562398880135
Ni 6.73569943788071 0.7956220563468042 9.165804147862987 0.7922270751084872 0.39700455335478724 0.23959698983517444
Ni 2.8332389761789822 1.8089608417376761 9.0842815009607 -0.09692647541542017 -0.02266993079368999 0.42310125044183905
Ni 6.336632852292744 2.006858022997922 2.6260060159571696 0.23632371840054137 0.10418341408814961 0.3139684627682141
Ni 4.1461958837773345 6.879306641949659 10.13410195783781 0.5862606288435646 0.0983233557629468 0.4743186538559186
Ni 7.999880335335168 7.08185905768435 0.35883360865144615 0.648727122808902 0.10026248176718862 -0.1815345384748035
Ni 7.400593470894854 3.604389865983616 8.452460423082671 1.2018979110770334 -0.24411673208239895 -1.9360201116229883
Ni 3.1438470674622496 8.556004588871646 12.26352281329312 -0.24876091572262965 -1.907005726668509 1.2531703360987643
Ni 0.015460802029302733 4.996802134805993 10.156142459234005 -0.5838196235022397 -0.7707791896473564 0.19057942228589114
Ni 8.573667362003812 2.1438123094490247 5.635136925232147 0.6790735963112434 0.9142832557119996 0.19771757599256917
Ni 3.517477090310238 2.6730808316775874 11.474900783309442 0.19743321198293093 -0.24540742586936445 0.108689015267987
Ni 1.2570579367440444 3.2709485275499635 12.585326969469683 -0.9402398276767613 0.1786091372978924 0.9456296312337651
Ni 3.1572704134710867 8.67496164845164 8.074521370576493 -0.038611798834927054 -0.9745483711506441 0.01189906543043112
Ni 5.543552644361888 7.8271937345588585 3.6404891754926334 0.16525482747817344 -0.07684333151229993 -0.026669795981702455
Ni 3.1521541751943176 8.33569900710237 3.579154879416027 -0.592232015935651 -0.9918328692627046 0.09369794117579347
Ni 3.3308428646910766 4.276587645513006 9.269844570686226 -0.3517068578592524 0.634015013409708 0.4400497053707195
Ni 7.0892712756824965 6.0740866672242815 11.557508145040726 0.6100250782530139 -0.5123977201158272 -1.5172360004992644
Ni 0.4649566839463596 -0.04258680811544315 0.43374943831611823 0.24552338262193846 0.20387356829163597 0.17784449121772597
Ni 4.611628938319429 0.24552429761442815 1.7068177659361572 0.2789302402171583 -0.352135974976871 -0.5029998238406951
Ni 5.94435477367625 5.5014114732553585 0.26875798532251793 -0.18821246471561134 0.1130552626564827 1.0597223340158266
Ni 8.021131706693266 9.193771711870625 11.099131160461257 0.15675964552296873 -1.470829388210267 0.0383379763482501
Ni 0.1520453815095221 4.739471620206957 5.810485596984619 -0.2683285534419121 -0.8886542422899857 1.131880344237315
Ni 7.753017318835952 8.517696076827571 2.3939927454669223 0.39569997561075076 1.0397078385671126 0.5862452022245969
P 8.496399509018264 1.469345668068983 3.3805345549364496 0.08596637685949066 0.5013224361382721 -0.36445464444322395
P 1.9540595286964972 3.3549416124752915 1.6221856031907453 -0.581602818356579 -0.2999191837639996 -0.34483738443292866
P 4.89052719943502 1.044318240907024 8.017275545476181 -2.0454650312203935 -0.31000176481098224 1.078306267665601
P 8.453381526758294 1.5647553765695037 12.507931662491728 1.0010996392766114 0.5510126042745478 0.5961483202709217
P 6.10349147838034 7.462548766211061 1.3695347291498075 0.31971205012021064 0.7773059350222807 0.35014722668161635
P 1.771022940593509 3.2195872803969596 5.999038863922081 0.07446531819842658 -0.8645516928148272 -0.09206940443343499
P 6.782893572232317 3.894758986415849 5.986668595226395 1.052477222417639 0.4328277337009836 0.12119357549290094
P 2.3867341954028842 8.470122292285815 10.226499774829817 0.5729086330166907 0.39881229598748735 -0.7824319433949364
