# total energy = -340857.4349124288 ev
CRYSTAL
PRIMVEC
9.40272591412084 0.00000000000000 0.00000000000000
0.00000000000000 9.40272591412084 0.00000000000000
0.00000000000000 0.00000000000000 13.76183981742012
PRIMCOORD
 96 1
Ni 3.9849128783778136 5.283485751642923 2.700169534474197 -0.5320342633998321 -0.3778225811096977 -0.7330307672539892
Ni 8.00202069048812 1.9350527971220632 10.09931846455164 -0.38309797057602407 1.0197704762132374 0.08301655020254735
Ni 1.8934363319643484 1.7743978211426874 5.548828798063547 1.0847589652694802 0.02233645871367121 0.5130708349234518
Ni 6.525397798193077 -0.015679985833033292 0.11310445045992695 -0.4385677215085544 0.3541992852638029 0.19605921445353977
Ni 3.0602770143438756 1.372647548482569 1.4786961933721505 -0.04721342446100901 -1.5094524998991037 -0.16040341292314308
Ni 8.933313684511136 6.772012495020133 11.16169204055029 -1.8995253591310644 -0.9840707088187827 -0.5529974959150605
Ni 7.820519871025994 6.949319698698178 9.109360922908763 0.6781706248809998 0.7840764209768949 0.2758192053920024
Ni 5.5894598575392616 2.549981673048271 7.736466082733097 -1.679609649774901 -1.7381757802445679 -2.5710332272799077
Ni 0.35538919197628904 3.2591916823085065 10.663183016262186 0.9981940355940423 1.2360174784685616 2.1089293703226257
Ni 2.8129759185207712 3.54309759034557 0.8360396188233521 0.3701660930057044 2.4511892238363657 3.1451083698008735
Ni 1.9485457088937128 0.036852103907056476 7.828174630240837 -1.452823952771782 1.6205313555555056 -0.4060463518420814
Ni 2.2986656132345784 2.185315751626749 13.035022523565985 -2.2440020177904643 0.03771499805227053 0.21820823974675324
Ni 6.559416860764386 6.31288678847109 2.8013738949423472 1.07861582848622 -3.5091848049690726 -0.5174278263405668
Ni 4.386757178297665 4.419309415617143 8.580451945276463 -0.05963905181887148 1.5902530162869386 0.99664211772589
Ni 7.304883781377569 8.247413032938649 3.9703461753000155 0.16663319588293882 0.7011457456199344 0.5764989214711104
Ni 1.3182339732752268 5.52695053526893 9.927997976500778 0.979556365888197 -0.8608099663842077 0.6546398887489113
Ni 3.3364820898088268 7.675633266503801 7.6091691576891085 -2.772070611674329 -0.6289807934199103 3.802085134213078
Ni 5.852256645766324 3.707814543945401 2.716173914353308 -1.963615504742754 2.351913531462478 -2.2166395666171113
Ni 7.387815824461855 2.2796627040425896 0.9097645126346063 -0.6835565717832615 2.2280668346174464 0.5611224390150401
Ni 4.6884906547800576 7.242054766424147 13.672168160421847 -1.6316408352051062 0.6451082951093923 0.21295727576045906
Ni 5.14110027222962 4.819056907644954 6.235063246408085 0.24466103462164315 -0.1938560361546339 -0.511773456268267
Ni 7.16089983854881 4.665350546159828 10.947131236566129 1.4464561015722248 0.5191237259857511 -1.5109185429216687
Ni -0.0275678522810448 1.3745468991291707 3.96262559700336 -1.8646704562354082 -0.5636783726676744 1.2882527816241942
Ni 4.629676603817223 7.203456576303853 4.042086153658312 -1.2683169619322157 0.8352526867403938 -0.17668106703724412
P 3.7257267369244897 -0.003949144908775476 13.65727706329797 0.6817547426878323 0.03866810599415921 -1.2900188723856816
P 8.20130206476571 4.307614433780609 2.389730074013149 -0.3212086892703952 -0.2157826610243961 0.34323378739123467
P 6.716291940902505 3.98711311625556 8.77365445721233 -1.133917429272002 0.7677797406994002 0.5812837444542635
P 0.9047443972374748 1.0874346615352204 1.9053956591297565 -1.4624501630076363 0.2440858788444635 -0.9151525456908303
P 6.532581480836659 1.0007133198837055 11.43965354522705 -0.4160453720363222 0.004012977814135025 0.5139138996500374
P 8.028912486771686 7.478617949185771 1.4039558051557826 -0.9740624326531613 0.6681412656694558 0.2267497015588611
P 0.3850472702411928 5.150709858174307 11.944892100494227 0.8722225790965237 -2.97260328851819 1.6767577821484023
P 6.1340657459113475 6.186824441347392 4.982102996839332 2.7392090850596182 -0.4912894773823023 0.14620192461178044
Ni 7.831586879496539 1.3340399556363023 7.860185270544254 1.5061488894471673 -0.2524455636630685 -1.8184803308325908
Ni 0.4715420061967517 3.732355658735649 0.13591828448888393 1.1274960991266905 -1.1782540464058482 -0.9745946510075473
Ni 4.8758963861534 8.600607628672776 11.157246431710124 -0.3541023546746224 0.2687216751152727 0.07422132050842056
Ni 5.358171604048646 2.769911433563172 4.93897269279992 0.04283920665271332 -0.09963744658868001 2.0980633741423995
Ni 4.767257290258182 2.520776806175279 0.011260704625594071 0.6773303883678915 -1.1651236796714772 0.29204080945718736
Ni 7.116744637378312 2.3391913621793936 3.5733029072621187 3.524868020032285 -1.9349829286077256 0.6361487719232592
Ni 9.291341281395527 3.8819060153405864 4.439142585512571 -0.8356756332104253 -0.08539636328863358 -0.4179816698270866
Ni 1.539940848999077 2.932052040246325 3.1928704949286093 -0.13945123615150823 0.5528776825077446 -1.7100306852689195
Ni 0.29695501114277456 2.8226607262732446 6.688240788506434 -0.5020744838129483 0.03244886455732476 0.48053789529275304
Ni 8.35057033959145 7.317248366032427 6.2191547743339015 0.8787079297105512 0.691577385205209 0.44000162574160356
Ni 5.638231797162639 8.082987563843991 2.140489195821758 -0.6277520632191318 2.3218115698707753 -2.1410272792984353
Ni 0.7501522989656668 7.526618865279339 0.6463358612221409 -0.0203875625174165 0.37633725481342284 -1.6203781178070933
Ni 2.6740412395396604 2.7370583090125495 8.880157253766422 0.703850289035291 -0.1771821750433787 0.7485296342205366
Ni 7.002482711351074 8.175265916545712 11.978855686982294 2.0528970620184066 2.3089473123135975 -0.8144272653546102
Ni 8.573433750610011 6.222836881825035 4.072431571191862 -0.5238620120016848 -1.3284468373445768 0.4745179143509183
Ni 2.6063510152580545 7.7449501623787835 12.534792800424771 -0.9191544677613718 0.5594550786149461 -0.02355541872243685
Ni 8.016961622059654 4.86940850523184 0.22745852320170212 -0.6510902237244399 -0.619816867532455 0.5302440042686287
Ni 4.841990156293771 7.300060182953279 6.3449923963068375 2.9329944158773165 -1.3292477359793171 -1.7460454128006317
Ni 0.8576216957498101 6.846500890180416 8.075323401903175 -1.8359391497389868 0.31504704054437355 -1.2281015660555945
Ni 8.760848884709327 4.09170903998227 8.514643206462111 0.3737414690617886 1.5443184585383534 -0.16572302536384362
Ni 2.896490930615399 8.306377527517057 5.426100657569973 -0.16973188941292058 2.9588172904776915 -1.6274759051941392
Ni 8.458457217408807 9.076949726478885 10.235712526974773 -1.756191242985382 1.0265615309931417 -0.46430652103555514
Ni 5.362506260722325 0.22254371833547135 5.4039440740865485 0.39021889789152153 -0.0850430937142729 -0.5144443182322108
Ni 1.030209671261869 8.17684557450922 10.02254144588946 1.1233771918623106 -0.22365563601456964 -0.005977300629357448
P 0.6443735123115183 2.2870344412056376 8.860010032823485 -1.0409309123409363 -1.1493623030721625 -1.421762969700919
P 0.6809190873518461 8.612633715192596 4.956808723698625 -0.11031703778971323 -0.25508505816844457 0.17885570609105972
P 9.165861903282172 5.059738484382872 6.216388492352563 -0.33443778636615945 0.7210782228778033 0.914410011097851
P 5.082878593003102 4.53122066015106 0.7117966991754836 0.10330152570382856 0.21060548769883083 0.2612369367024533
P 2.6647513462780648 6.327724290056918 0.8173460593158842 0.11291256643103134 -0.3590519853704139 -1.1854011989735909
P 3.856612682472477 1.3642415114624613 6.497184918910266 -0.767269119611569 0.089868025906742 1.01600072475816
P 6.075693623069257 6.605678272552899 11.058862889033959 -0.29030634326458393 -1.7009616330881157 -0.4292940095161123
P 3.048721064122721 8.124462988112107 10.146343377689183 1.3202871843519197 -0.35055500364299624 -0.12092746631570789
Ni 8.947314343485344 1.0202991980860372 -0.12470083240276693 1.471601490489601 -0.8867413415379889 -0.5037590706042228
Ni 2.0673679570179884 0.5873093086523101 3.6812650068872617 0.9255362029179997 -3.0292781155024153 -1.3493820448353468
Ni 7.267254072032523 3.4146469508246615 6.436370908132915 1.3482569300919682 1.0244360000097066 -0.5723170221792788
Ni 1.0519863846159736 0.9827917241786435 11.402688608608315 -0.4857333234507634 -0.6470021696979954 -0.25253735204592637
Ni 7.855855315233561 2.8418140790808053 12.371384706280422 -0.4818051920409509 -0.5545152181111676 0.09301994127216238
Ni 3.780356574829217 1.359756411173209 11.821832984046395 1.9680907669052883 -1.0470820195439967 -1.641332094350941
Ni 6.8158009898776735 5.977736023879678 7.406456728703872 0.10755541588417607 -1.6500980134690293 -1.0659086653321965
Ni 5.359328139343359 4.238259927001733 12.233106337572245 -0.8861679855330222 0.4966330010824027 0.5230431156448153
Ni 6.804799800488942 6.597685955475614 13.442964491279506 -0.06557907145239028 -0.6092424344507185 1.1948659439309164
Ni 7.987201994354239 0.42452931660297427 2.1619302318586167 0.7361546575949515 -1.4584852648226172 -0.33505793644866166
Ni 3.904660612195912 6.1158244575231935 11.157205059715844 0.225827703965224 0.4209029572389396 -1.1592191412615842
Ni 3.3021527372804 3.5633416593660314 6.585563020878271 -1.3047870318337915 -0.2820435890351594 -0.5773597268095089
Ni 0.3285152608720719 7.8357240789247795 2.8820868946969393 -0.5632957925172751 1.561331705266898 0.5428069285353039
Ni 2.1261632025288764 6.405616472019528 6.042039386265711 -0.927448589449364 -1.833794335481842 -0.34603346162355886
Ni 3.6875328640210467 2.2416192747547194 3.5544767693184274 1.403709454633318 0.504329341285396 -0.10925002997777959
Ni 5.280965821082084 2.4803356817642235 9.879308780865966 -0.38725004507118466 0.4047206910521223 3.2119087152548746
Ni 4.146959457801233 0.06022351958622867 8.789632509458716 -0.7787280121807879 1.1972251881917124 0.040976699522677816
Ni 5.632655980660488 1.1289288912552826 2.042862572586439 -0.957886594224247 0.5173357808473928 0.7398750438693322
Ni 5.335144328140095 6.819044930338453 8.969911914816915 -0.6798073891534744 0.7723501336789022 0.5353895530253102
Ni 2.673232605105959 4.896441342405006 12.815356039378337 -0.8039510484136347 0.3799152019726683 -0.8023186550165344
Ni 1.5245956002106922 6.048087219611721 3.9371658358855233 0.70279639384948 -1.059591721975233 0.873830804123908
Ni 0.9333550118289557 5.388655241654003 1.9111482468802063 -0.458843441038455 -0.8905535161952275 -0.9721788424772032
Ni 2.731642338851943 7.461091267971586 2.59323985416092 0.4829639882357424 1.6878451503108156 -0.1549634728544944
Ni 6.270555716139406 0.41714535589616153 9.229144129627507 1.037197413440433 -0.6901385958761533 1.2917060302801173
P -0.03858502630393105 8.461917420566971 12.145952470525959 1.5777844515062827 2.5547038939922646 2.440817650794054
P 4.199370252376268 9.30636683750082 3.2567667192799994 -0.2711742504208233 0.24012200910070902 0.4523634897410661
P 9.11291515332666 8.784553156887954 8.08708997318613 -0.12216288138470574 -0.11563382201693634 -0.16891016484257362
P 5.950656173076646 8.62588215608894 7.506546866144189 0.36649712879454943 -0.06715515769025854 0.29496235397935655
P 2.5648379800860455 5.644249541785535 7.875295451183307 1.8297425340099716 -2.252230576347844 1.6013157018590034
P 2.8124117549623744 4.228537508345367 4.373581138391314 0.4545597260614365 0.30784563769992784 0.624117808900654
P 3.228454171101871 3.967593057135041 10.816172890028149 0.7790856526305228 -0.6020628859831437 -0.5215274503312374
P 7.525095623671668 1.4186550866698036 5.535328364111119 -0.3473665786126856 -0.1519516826113641 -0.20224734554212265
