# total energy = -340889.3255202848 ev
CRYSTAL
PRIMVEC
9.08338553282908 0.00000000000000 0.00000000000000

0.00000000000000 9.08338553282908 0.00000000000000

0.00000000000000 0.00000000000000 13.29445288997518

PRIMCOORD
 96 1
Ni 7.348994805473143 0.6346625046563629 6.8369253051497 -0.5356407498041679 0.29069483695225423 -0.1555360575285128
Ni 0.40065632688861164 1.4363920858289567 12.574172358990602 0.7066317084351701 0.4781010037164863 -1.2407305676735148
Ni 0.8087755633205034 1.6199491404183024 3.1168574655975463 -1.4541627261878631 -0.5873248084420207 -0.18557194176897074
Ni 7.400661102311236 2.2365475162909245 3.9356629032092982 1.9958463397520017 1.9916058193080923 -0.030765049096998634
Ni 2.820681872314857 1.8726852591284144 12.4951505383203 0.7059408530157326 -0.07221637426324981 -1.4604974101566395
Ni 3.1077804384473517 2.0745998358537987 3.3749164482224128 -0.4284308901848686 0.001754006576629237 0.09992618147369242
Ni 6.966611525235233 0.4872582327754029 2.46376749673664 0.18204798777611225 -0.07574187091800504 -0.8091871000015934
Ni 0.70884106416737 1.3553682869900336 7.787850401827809 -1.1998284301425144 0.04045193736745936 -0.39513021915020985
Ni 4.33549082533848 0.2477084648247598 11.170584011628783 -0.5295660043649977 0.3635223624369417 -0.591430345969962
Ni 4.855805314698481 5.791884526082606 3.0682668030965443 2.55512195536629 2.699326132821751 1.2736293752840646
Ni 3.1299802326583746 7.170261028594949 11.004004712914982 -1.1775343946310044 -0.2660621260052386 0.23065597859180276
Ni 8.428319006508595 3.5564451828251293 2.1505641889580493 0.06636505768879539 -0.6649698099200096 -0.7888512166577188
Ni 1.4170989749843523 2.8548172350992376 5.233361683871031 0.8877286451519227 0.49683457557024757 -0.6810695436953497
Ni 2.107499858207451 0.5345872130276685 5.389039103283661 -0.4042650915719425 -0.11542864798466572 0.2789160991497712
Ni 3.6027068652787877 4.0623988396779165 6.666423800568334 0.23329624442812724 0.3520770967144775 -1.6956237658149702
Ni 7.556731832316885 6.421299558924032 3.282400350023511 0.044217317947162556 -0.9576523667262539 -0.9522422514542761
Ni 1.4948890885781345 3.1274732182548384 0.8973640056205315 0.14436255741019652 -0.8554155348415139 1.218341144234721
Ni 3.082973712592071 1.8120354940109829 7.66485046182359 0.02820911544436432 -0.009896433178105539 -0.07922134482617324
Ni 8.216757874360907 8.567312971736532 8.702243030282794 -0.17567422303928454 1.028335592174429 0.4701771208837193
Ni 3.1025756585443576 6.987421561461687 6.767394714009306 -0.0039810961349350795 -0.20196812373880701 -0.5831719626159118
Ni 1.313166877863841 7.319437468990872 4.465327829623647 -0.05384275685206856 0.4671203363352665 -0.5253252268107726
Ni 0.8076900987508564 5.50286028221986 1.6944574268236876 1.5963254477332636 0.14411547439639696 1.9380250578681588
Ni 5.338296586752957 5.804001762366365 7.48142693300139 -0.2214853678361282 0.32741096142636517 1.489524650626925
Ni 5.638566061889536 2.5564916044639507 2.10231869510681 0.4584390065111847 0.1610032512906711 0.10219646556510785
P 4.395459336541908 6.031004649898151 9.655295455849704 0.8370030937725972 -0.6107321316223675 -0.6248222911668465
P 1.6207938952716678 3.5710876002834637 7.291462458266196 -0.9531498508702101 0.019348065509308614 1.198072623793672
P 4.511763004740739 5.809242875811438 5.446377974379031 -1.0149422015866583 -0.7295510362355049 -0.2395249989466584
P 3.6602591959338793 2.1930199328788036 10.21997774178243 0.5562232019412098 -0.0847247911429057 -0.2516930017677601
P 4.274450474643687 5.816500500841966 0.9298552756257814 0.2754026866798741 0.11420788820368717 -1.1075101429230667
P 4.043414563940994 1.9571244109228798 5.343399632738127 -0.5329580607656822 0.4979905435515617 0.9133530305882464
P 8.471828423149674 6.366508577467037 5.460617089520275 -0.5950504592210526 0.28838830030626467 -0.5953957583756133
P 8.656075815038545 1.3867059670342359 1.26997901307017 0.929950015714979 1.7692956415778238 1.8282129847393223
Ni 3.8505742893501487 7.810830458855006 4.609998002463069 0.08069201583442877 -0.2282887639112068 -1.7907268148684061
Ni 9.413929919133599 8.080461674632428 2.384665742273761 -0.17948768324810377 0.3930777074965553 -0.8761044306494331
Ni 9.017022305449116 8.480166971057088 10.999843614008242 0.6043905056750559 0.4224492186801369 0.17644863931146385
Ni 2.9023324247546647 7.0709342079331075 2.122671837041605 -0.8381287227366082 0.07554903818090859 0.43130821173266365
Ni 3.449161316447716 4.615695101861251 10.876218737080244 -0.3175027011737177 -1.5503214701993238 0.8498280134514075
Ni 4.360642719843523 9.318917706593785 2.3278055655952983 0.3739659263677688 -0.6564982821138886 0.07334328877884143
Ni 5.764716119992111 2.601708697582803 6.7754516769655995 -0.3927560624910784 -0.3294282489667101 -0.2296077398329465
Ni 8.879508932060947 4.639239237129242 12.970440502334473 -1.1194372333779559 0.1593322913461514 0.6690946307216606
Ni 3.7211542124603527 4.150907348185369 2.3455399674846604 -3.0535701552805605 -1.456459235531524 -3.197402036998268
Ni 6.516157353910004 4.8766153509249355 1.2648859588090733 -0.48780126172338567 0.4606064464761486 -0.9564799436847076
Ni 5.196350521231 1.1355503574046137 8.776213580265392 -0.6754575968252109 -0.7616432887843593 0.34448951417520673
Ni 2.0696584741308865 0.4865560870747024 9.817168652525565 -0.009900032722531336 -0.24048864841150844 0.6445431666345416
Ni 5.808161952934551 2.930472753095806 11.026871227623177 -1.206636454203283 -0.4059244815522363 -0.8084484220633561
Ni 6.0269988768838045 0.9547546520133662 4.827335259462961 -1.7510377238089003 -1.6928829698450396 -0.08523875466484675
Ni 5.3443188713527565 0.8424440400891529 0.1425855358625689 -0.19236196810761064 1.242026660777119 0.5434306781622318
Ni 9.024425264647963 4.439531923085232 8.69305700250636 -0.4882126382291914 0.8325185756386823 -0.48156247990252554
Ni 6.0814628564620765 7.371567018490489 5.612053476233589 0.21248496410973083 -0.10311717760716435 1.4362040848269135
Ni 7.0344644150700715 2.4586362922563594 13.06324908554712 1.0106631145953304 0.4819571442377828 0.811367395482364
Ni 2.6331099613256455 5.501397857151131 4.200409074254032 0.29415888424145464 -1.074311287573595 0.17246522918368362
Ni 4.639048486033321 3.665318641668552 4.330561272016745 1.3047798327449398 0.7361986234590095 0.908695477211577
Ni 0.8570001653850469 6.942658637618839 12.645763061966944 1.1924791888662947 0.9923283208418845 1.106206593620295
Ni -0.4749157285307472 4.461550049585854 4.469927656051005 1.7401133635869128 0.10949145656462432 -0.12122468584115252
Ni 7.809722285821558 6.453127741786316 7.61889125610775 -0.9069707812109865 -0.6333077029300384 -0.7616294048272884
Ni 2.1223239433761867 9.355342082529221 0.965081553011121 -0.4653061659446632 0.5178021789608501 0.49844202926668346
P 6.728753992006977 4.380717001842853 3.4041513245187214 -0.8379999104682277 -1.8782703064070299 -0.9345764587433968
P -0.2817130268576514 1.404963571929554 9.874069704438867 0.8129262553290516 -0.8733775186365733 0.3060975446605696
P 5.899722478976742 7.936026761477974 3.508698366838941 -0.7669958113455242 0.9751338113404692 -0.6586446390329301
P 8.383110996775262 6.630026674789459 9.707888258010842 0.9612652808884927 -0.6953761901260088 1.694725679480733
P 2.100669152296367 8.795478532614885 7.640242662111199 0.9053936665318537 0.004132791221450947 -0.20673752010299234
P 6.982234948329734 4.275267979340492 7.681933584971166 0.18763756604874782 -0.5925215221516119 0.25793461180209776
P 1.387023885527438 3.515724365538706 11.961111961778041 0.9049974595346995 0.5352741104933685 -0.02255268848953535
P 8.27751664010458 6.5349054616234055 1.0390184944672944 -0.6866161845451917 1.057981697175636 0.15406410096867662
Ni 9.413294082147194 8.00977476851533 6.466939937808118 -0.11331571540672099 1.8743599156090298 0.6543588671733828
Ni 6.481549655078581 4.634488626502251 5.533137931173871 -0.03903448819464245 1.2266897733097324 0.8615789833397484
Ni 6.7867059916249515 4.817509761345914 9.844436067518227 -0.566672936519624 1.0845918435639965 -0.010551550263601182
Ni 2.3271815370100697 5.152695770421599 13.267558042695592 1.7344939605176066 0.4009221432416386 -0.8881788453154639
Ni 4.492706061919656 3.611172580583483 8.769047697428618 0.7407386774212081 0.43668258867069953 0.9109616475379343
Ni 4.388292545366581 0.20655891174179006 6.325992136354816 0.491910655906069 -1.5000391770050034 2.6012094937529717
Ni 6.259842381304989 7.469077162048318 9.912064597730721 -0.29305690942652757 -0.6664985878597102 0.5216220669275726
Ni 8.607988372095354 3.311066606386264 10.968867452707737 -1.3143692762055879 -0.5435427782600639 -0.7231438471575804
Ni 6.2375063363111645 7.410180490336258 1.2957585695146485 -0.37840904974078704 0.2955657918913103 -0.40392210641022697
Ni 3.96692337447658 7.962223245317823 0.04243576047261007 -0.1962494760874749 -0.9640004204314688 -0.4426436913501409
Ni 1.2464948281466104 5.643125921420605 6.405041207181679 -0.7031231810612794 -1.4419062774180136 -0.38228961574211584
Ni 7.882425703524109 8.337167232814805 4.462947982617392 1.6037050280267864 1.940885667245406 0.7415881699056971
Ni 1.1953917012107602 6.993144094339325 8.553225549133472 -1.016021036473134 1.5892148048304113 0.916757685394421
Ni 8.593327787865979 3.1464938275338414 6.522431248288709 -1.388709638790376 0.010783206658433043 0.5233701599669309
Ni 7.753605130078636 9.20964457878748 13.295250560130594 -1.0630578261469628 -2.859719261332249 -0.8056778012967545
Ni 3.909461877676689 7.9855584627188545 8.718169838453665 0.5395650245592385 0.43564823386891427 0.6994699005794083
Ni 1.096727967691883 5.421246063322132 10.787730212020936 -0.42569086554588625 0.2444900562614176 -0.3923498281915952
Ni 2.439597516206316 5.248607238127898 8.565217434697054 1.78958627350606 -1.4118786207076717 0.6030663875469936
Ni 7.6827274728656185 6.82680005531049 12.317589426512743 -1.383149113983463 -0.6382110537689266 -1.0960368521761445
Ni 4.57379344445722 3.6464706167144305 13.094052662522744 0.4410917734819887 1.0597686138727298 0.25853085062519987
Ni 5.2810258410489865 6.1145445465261306 12.008134831938282 -0.23326256297671435 -0.3717681473855017 0.2654918553240654
Ni 1.586622198945207 2.9677146337280464 9.519373491604648 0.7945284695481543 -0.20205502702565845 0.8843826114978253
Ni 7.108212422107428 2.323720767126928 8.872398457875846 1.1214900021419267 1.0565292809998257 -0.1585092812242238
Ni 6.781464878179878 0.6995324106864139 10.914745916763573 0.7422911095099926 0.5355137373080003 -0.2478165495314893
P 5.992563762377262 8.272457194369906 12.260702908016272 -0.4975385436158077 -0.8230209205608923 -0.3468672703787639
P 6.0119567904625875 8.311424918250959 7.91269881078536 -0.11351446168108836 -0.12506977061885557 -1.0121970347413534
P 2.0866262382823564 8.792154013514542 12.109624406692449 -0.4949856952869668 -0.17056698371970627 -0.24867324110482975
P 3.6722310980493167 2.2008043942694937 1.177362089291996 0.3376128416600314 -0.6145921287984061 0.3891740015667749
P 6.769156890800198 4.452693748703798 12.271058875847691 0.19949395116670157 0.012849602269158515 -0.6280294852502346
P 1.3638794192223285 3.9259391390100755 3.198260041612656 0.43642342147204194 -0.5543725218857162 -0.08495567620678916
P -0.22974061992753175 1.1728921552775748 5.424442506686641 0.5945308392721568 -0.0030734967190011583 -0.7738040925166092
P 2.3520155130219105 9.034625906586989 3.2527939632594323 -0.47966911953455454 -1.4377228354642853 -0.18140135533104887
