# total energy = -340864.1134962502 ev
CRYSTAL
PRIMVEC
9.34097047665956 0.00000000000000 0.00000000000000

0.00000000000000 9.34097047665956 0.00000000000000

0.00000000000000 0.00000000000000 13.67145449235539

PRIMCOORD
 96 1
Ni 8.080630683073014 5.972803334015988 0.7516006382413151 0.12126222394730728 1.2062649297964774 1.2676304773881524
Ni 6.633097854166941 1.1899555683645036 12.286563299128257 -0.4159371285932321 1.1171350676073406 0.965888124372485
Ni 6.598639014125677 8.730678158625087 11.011358297922174 0.30916281384945465 -2.070303687530628 -0.40776667696729774
Ni 9.032055229671805 7.912913558393997 9.687182324962139 -0.3867322248945017 -0.04829920132602004 -0.40000683051622077
Ni 3.578675240240952 0.998344241238874 4.48405907752031 0.5062442989199216 -0.9360085632042331 0.7832202436241866
Ni 3.9568350885007857 4.95563703729239 6.766289817914401 -0.17141519065261449 -0.6799076621767646 -0.6249868417691689
Ni 5.243096062347923 1.618332473838172 9.910177444652321 1.0868215042254636 1.0503282943954362 1.2914810587535048
Ni 7.376116008746041 5.641647249130412 12.105033681424297 0.08589181486781336 0.5174494236071218 0.19278568590859058
Ni 1.8108872389806538 4.078706730143066 5.842072715985762 -0.30601681202130526 0.3241382042123644 0.09804439106994728
Ni 6.793239451799749 1.0454974601405547 6.974000307634532 0.44241229206562516 -1.0968603765187044 0.49636380658141616
Ni 9.191561641313069 2.068221634290163 2.665523451923829 0.28610284670619757 0.14125203680567286 2.3650683236768817
Ni 5.395802247491479 4.081574408075478 12.503214965776419 -0.2598400563549267 -0.6430213306733764 -1.4783226112635186
Ni 0.6945917614031915 -0.06145517877893183 2.1655171826419672 1.589969680718565 0.9645169550565711 1.0182463262592272
Ni 6.74741265070394 3.142012893965819 3.1072616815490357 2.5465995197175757 0.5523914868999454 -0.4474969056773842
Ni 3.7559855415863765 4.042407718920417 9.155335489660038 -0.6714790717934371 -1.3773800727101697 0.29436714359751887
Ni 2.34330387348105 7.713184927935255 1.1785119454492006 -0.7096111027784683 -0.5147165980569909 -0.3200699476802617
Ni 6.232846610760024 7.421074099588709 2.4893667604306935 0.24042797037690208 -1.9525219659327535 -0.7011956250212633
Ni 4.625060092575575 8.176114083154825 0.3766223245214792 -0.22754957175233714 0.07157694090703802 -0.6035800939586187
Ni 3.7370046896037663 7.259082989804052 7.8880189380107035 -1.0975548314825678 -0.39980525602837597 -0.5859883490187844
Ni 1.1937666843137675 2.4955149871900213 0.65161302220182 0.6997288106677497 -2.1866095959139242 -1.613141233739022
Ni 0.9652678648262647 3.6149929334045288 12.076938844560077 0.6235688783757196 4.008043867168517 0.13258407671802974
Ni 5.61411940917335 3.220178134807591 7.8388153760922 1.4262590577990597 1.1697233832270177 2.1862725242894796
Ni 0.022141836387587967 3.978926483647869 1.5006885554278457 -0.2698228785992514 3.995697429788021 1.4064237682406875
Ni 7.474551155494438 3.8131803037367313 0.32545062012623605 -1.4649140511670964 -0.5895603826407588 0.2093747006155233
P 8.815690330816887 5.421106936478139 7.936183784013623 0.7953607356414625 1.3574151995524686 0.3218355242211167
P 5.693657772673312 1.4437403948977372 0.5947750851231854 -0.6020364036205825 0.39212948465067304 0.13662507955662276
P 2.7004839020790032 7.45668187899703 10.208939978066198 1.1304551817550146 1.6549913370055884 -0.6075269944215085
P 7.236524546133775 7.671159901818245 5.1358187529584125 2.279217646459649 -2.1101442165663338 -0.2046436136884411
P 8.593001594957919 1.803676009782536 5.623274494325001 0.7069885775539566 -1.0247129078201773 0.6995940848620983
P 5.5544959947023855 6.8159006461451295 11.796017564732217 -0.5811541608549345 0.9400464807190327 0.35729617902157174
P 3.220364954216868 3.8777731144944814 11.753445157746025 0.6102935014230522 0.269948091323206 0.2215740708951926
P 3.62028926365755 4.473820439794848 4.569875507269048 0.3694528689887637 0.029704211932652075 0.6834593840837648
Ni 7.752118092828718 1.8105229411325623 9.90397036977907 -0.33297791399118143 -1.4442578083693254 -0.5174959605743409
Ni 4.997652722438935 6.134887853505284 4.244289443071086 0.8234718920553818 0.22454678037027134 0.3082547002128885
Ni 2.670434000096692 0.2923331434435857 13.155630377341087 0.9852881261656515 0.6184318142594704 0.9853981693809545
Ni 4.8031270125285745 8.784239283264991 9.316180462368777 -0.24152068922044856 -1.0658513297316998 0.08424502329300974
Ni 0.9957287695089868 4.07525057107143 9.26571867172879 -0.5126134356710591 -0.10051007900162044 0.18633530229755652
Ni 5.70664172161811 5.995698052622965 0.17464625656912536 -0.3417692870305662 0.5504204792165036 0.308125887944508
Ni 4.717077992615286 2.162004977747547 6.206334134292384 -2.718370808158028 -1.847149159522193 -0.0881495005537385
Ni 8.01783133864433 1.4353708853620981 0.7582439364352285 -1.1763827975250642 -0.14394346759490692 -0.048187615448820234
Ni 7.136408024701877 6.306799073922584 9.644377327811394 0.11141515594989843 0.09237048061362156 0.2254512944624117
Ni 4.455820389710945 9.075313263890047 11.767786349699223 -0.06083101524444362 -1.422530701104879 -0.4068349091816478
Ni 7.515679448446915 7.382281049252203 7.584198269090635 0.6268537197745785 0.7088372007269211 -0.5861870952931517
Ni 7.484191037013165 5.769366338283083 3.988359929719344 -0.7674843209461686 -0.39406269711764386 -0.7853560590202668
Ni 5.587086640650872 8.057343643706556 6.184569673111538 -2.3108928660757426 0.07042457247014967 1.5213315107248768
Ni 0.457447873751365 6.338474304765612 2.654641221333405 -0.014602580404523238 -1.2936621255652236 -0.8812615493703404
Ni 2.148507275427236 2.340959289894615 10.695629759854747 0.5623861362188121 0.10696997569435127 -1.911987753264133
Ni 3.420485905435095 1.2968723162941067 8.637747645771057 -0.6567600204157077 1.4995704648987014 -1.385963957724439
Ni 9.414203672319719 8.156273861889538 3.8962411471986242 0.2599878947867006 -1.3877519028627971 0.35092318561569236
Ni 7.237701508412225 9.146575527559008 3.7054695733176977 -0.26312566908473395 2.7088060472877284 -0.35034468740440305
Ni -0.0925204442506671 5.72085867866414 10.730615430630175 0.5043769066938798 0.16486273424607736 0.2672533180998623
Ni 9.010094608111217 0.3135203326497648 7.974053946468296 -1.5987769945975496 0.5266156634874222 -1.2453212723679907
Ni 1.6406293703354604 1.5795114005902748 6.555257679097313 -0.4866008136573813 -0.1824339103606213 -0.25714271202842165
Ni 2.6274748769332947 6.5000263889384655 4.140987650711005 -0.9720770267920161 0.2624507545048964 -0.057231727928959496
Ni 8.824470843052936 0.03263268031557483 11.469967254302201 0.6368349993570065 3.0253263299435185 0.704112284447426
Ni 0.9214073380131026 5.8992058277310555 13.368481203107493 -1.1148069336947963 -0.8885387997580438 0.37120970377887036
P 0.4148427733685488 0.971460928243819 9.665513141680023 2.43050675578635 0.8809440181299215 2.310420554425015
P 3.803764605509137 -0.05434670025591696 6.836711394241614 -0.19982613769513974 1.2811048577255033 -0.433242452640899
P 8.123907399232184 8.342672927496322 1.8722508762490395 0.9307244319871585 -0.2984055753329506 -0.9811769322107554
P 5.884064114609101 3.7362200480848005 10.247274386752926 0.37754078820322073 -0.05535816505533046 -0.22198287629783708
P 8.814681506006787 7.481426109755857 12.174074662316949 0.687038616794591 -2.6824992910724 0.2820865264579529
P 6.959433998293154 9.081011255873015 9.002980525005924 0.5622802067685672 0.7048617610189408 -1.7243645853930882
P 2.2876690533981634 1.485307713462016 2.957108383633258 -1.510128957140838 -0.493440205176718 -0.49253132020920337
P 9.153973576166404 4.255746143345038 3.750585526561206 -0.06153832572411338 -0.18206341439508 -0.7343086055251483
Ni 3.4044661410895363 5.930983809249185 12.817385429970468 0.4922891222914102 -0.4735072136982167 0.47050545075741546
Ni -0.14619179234204535 5.588609218836486 5.545949006727932 0.8934958866530031 0.6449658559942569 0.5339829024857707
Ni 7.041139466940737 5.195625250450469 6.63125674888851 -0.4013718291845475 -0.4799686530528443 -0.3909732595590428
Ni 7.90151757442806 3.9983276793013536 9.213535340232308 -1.5155642692237963 0.5890078525713985 1.5270319035437638
Ni 1.4240683111008 6.6134724752223235 8.661221504546795 -0.7991346008615979 -1.1290238486251265 -1.4747855446445375
Ni 1.994371921802705 8.889689498831766 8.031282336112321 -1.242584590163118 -0.19982485214355908 0.45759285646080544
Ni 8.940410968450651 3.332951671218049 7.25891298414161 0.7761993322216632 -1.054326616921552 -1.2938194770786944
Ni 3.286592434805798 2.289509224579548 1.244246222797637 1.758091288221572 -0.7855139247543697 -0.28268353661200346
Ni 4.119508089129306 1.9204661634924638 12.203782684780283 0.28850091462472893 0.9971463110558182 0.8948115201406331
Ni 1.7178418321899165 7.671094515024998 12.329738198709371 0.16010876450085976 0.844868612563603 -1.1017027922126703
Ni 2.3518321795145747 5.489305361834948 10.60319712072644 -0.022497409771567705 -1.0051439845493142 0.9092089265128858
Ni 2.1683381557220596 0.13345351092044824 10.771273872768317 -0.04232704290298517 -1.0493523036354122 -0.5656918035532774
Ni 2.1262477428118034 8.61682106964082 5.437233187886985 -0.030605126480366642 -0.05192419967311702 -0.04334057176916407
Ni 0.5274789975131877 9.482392756706062 13.735026488692533 -0.88517194016834 -0.7303678757098454 -2.498076632416524
Ni 5.069989197711244 3.8233899844537556 1.1760347200821788 0.3690391784901128 -2.59984680907749 -1.7859972706032208
Ni 6.697877484333969 3.022401767175799 5.722077675309676 2.0958180297516487 1.4386327488730644 -1.038213256299457
Ni 1.9637615615925608 3.6059321920545617 3.507507320373674 -0.692897132457897 -0.11762694118756517 -1.5964504033469022
Ni 4.884075862568584 5.898477232034872 9.852279307426034 -0.8486707599185127 0.6007333685384427 0.8864970867376669
Ni 7.224390625501191 8.068412693706255 -0.15762233789869878 -0.39775531547788273 0.7990664666278239 -0.011413641153580343
Ni 3.7628418139068667 5.185387546822054 2.357122905185318 -1.1529651899320725 1.204998147268912 -0.22581227734625625
Ni 4.587836325277002 2.9125239316091442 3.362152478985193 -2.2407084346408572 -0.23366776883493304 0.7356661479943073
Ni 9.028029271401872 8.830094107272194 5.915529173616691 -0.39263419220123347 0.6340836618641144 0.3582570002729443
Ni 7.698033873842837 3.2973812556915827 11.7657360066824 -0.13848938645887118 0.6366575932388777 -1.151184700992882
Ni 4.9749635051821635 -0.005741894544148804 2.4061078883949665 0.44699811166409464 3.9976985193784507 0.2552766053539604
P 5.881037640178803 1.3962602420298207 4.518729957591104 -0.5527236734283836 -0.17682890546901803 -0.9668209205993994
P 2.2654282027236583 3.2717309507977608 7.798826681536318 0.5526938486317127 -0.7306594388083352 -0.47846095815906636
P 1.7014857929076574 6.671722767035097 6.266926207400455 0.4944799592951419 -0.30378946535268325 0.6339360805426567
P 6.279719600547788 5.158859190704626 2.0852520916399144 1.5966951723678566 0.6995030678101889 1.7548324149646424
P 2.1378772510393373 4.663171252068218 0.8464348408758859 0.5239980233589169 -0.7604855210308322 0.8330024572536363
P 3.9913312924239053 7.580496442495798 2.509299457303573 -0.9527675278301269 -1.9201821161494672 0.8289614544150433
P 5.483541983058731 6.128704131058194 7.698245913872366 0.9135965140576202 0.43299948339215744 0.7044462707480771
P 9.24143308261974 2.0645319509569293 12.57956992654229 -1.9029115019944778 -3.3953083319628754 1.1919323152238892
