# total energy = -340887.6465319131 ev
CRYSTAL
PRIMVEC
9.12829529914817 0.00000000000000 0.00000000000000

0.00000000000000 9.12829529914817 0.00000000000000

0.00000000000000 0.00000000000000 13.36018287253781

PRIMCOORD
 96 1
Ni 6.688767437707256 2.2036434881726987 11.39711745660497 0.7226177994507813 -1.3379190385010702 0.8694193053197736
Ni 4.705526637191675 0.5341093318940053 5.94275659947794 -0.041973259107992225 0.14921577173743977 0.28144040823352173
Ni 2.742048595788859 1.7175800252459528 4.560244342071542 -1.2924115409875743 0.29547631750129755 1.737052722383718
Ni 3.6733172723173033 4.649168542613293 4.6290497799876436 -0.03919389659064217 -0.87902546095097 0.20851518082870538
Ni 3.5080221027958656 2.9865773676653933 2.50106616659838 0.8346626185648787 -0.09442787736328252 -0.015970664396643464
Ni 5.252603625249926 4.961447521480555 2.4565502093858114 -0.323389756082114 -0.4797868760593414 -0.0799350830637462
Ni 5.375881251955637 2.92831145938975 0.7412184832481605 0.4101776004016356 0.572183324814892 -0.15518844438110693
Ni 5.915509551128893 8.290792373988557 12.460574801615515 -0.49604087602435865 -0.36869439355618444 -0.3562844499276058
Ni 2.1598094146117344 6.699292362075392 0.2244282658412893 -0.8877199034011743 0.17865721692700845 -0.541853306372783
Ni 0.9185986027877908 0.2964815511903348 0.14750686066091054 -0.2501930201834659 -0.9769999180149301 0.01655173371109407
Ni 8.26088807890615 0.0465853417349075 6.794601805111082 0.05122254562040211 0.5086156273655756 -0.573277072099703
Ni 8.854163368982736 2.6522079144088067 1.2271797092686416 -0.3344051333560112 0.42225947126683405 0.40584014936854623
Ni 7.124296658394622 0.9946738150029255 4.747755043626573 0.6260718473032314 -0.5760476928663048 -0.2888557268609864
Ni 0.9089034404535342 7.547101035570122 2.2177503555781786 0.5018795941933227 -1.2249717621773613 0.651749968795626
Ni 8.12653783012017 4.392088364833734 3.633943283792134 -0.7342947215680774 -0.4344099905864389 0.45943530898618296
Ni 7.745066373620233 3.8988591901732614 12.524476519348994 -0.19118903084543204 1.1324904670174885 0.6364603896264072
Ni 8.561555866276215 7.898348706655575 8.669810144738145 -1.0280651121218618 -0.8422355458161301 0.8806002616372577
Ni 6.9913612953649835 1.1006533223004678 0.2227888240229742 0.4269651042726195 -0.6410320681574896 0.6813852751635555
Ni 2.3038539129024502 6.6521629739464325 9.084923933205792 -0.1809688957793206 0.4154524756473297 0.4952913994528438
Ni 0.0018703876869307808 5.120681502987732 1.3212121038055444 1.626824387653069 0.5118670444233377 -0.7487965147286783
Ni 7.0792576498669675 2.281416563295443 6.699303316029635 -2.3186262301642584 -1.0412990943136327 1.277597101682561
Ni 3.598255300869613 4.573193741645381 0.328609498983998 0.025454178407046484 -0.015045324368896669 0.04022619450989847
Ni 5.957536222239822 5.9160572488410255 4.618762191294764 1.606188970790905 -0.057956521910125985 1.1727233463956062
Ni 5.6801455876353675 3.154328048596222 9.707508353517598 -2.109151256525445 -0.28651062366757757 -3.0956573142585975
P 0.5227345632425439 5.970078499847644 12.215121333434997 -0.3248344589484406 -0.5071470132398491 0.08610855886430976
P 4.064081333333081 6.366054817423878 12.512545837519719 1.71976076807249 0.3653360186069127 0.09453432103415976
P 2.588729749572708 8.732793555974284 1.4074954885452995 0.36842905570993967 -0.3889811688296785 -1.019549875561999
P 6.522349487875947 8.144566213144516 5.6156852182355115 0.5080173316599444 -0.33911847967128045 0.8890285949102688
P 4.9260297360960195 1.3355061012626692 12.613361468221377 0.6070706236103803 -0.34371921166808544 0.3219771920053035
P 4.476059552398772 6.029887090012459 8.032075492879246 -0.2387809216917823 2.44739941777663 0.34771239198787857
P 4.61525692593712 1.2835934864477578 3.9036980994599473 1.8978667404817187 0.08800089079101618 -2.3792225036900767
P 0.6690939971965378 5.81189427228872 3.7399693453952074 -1.3942475378894696 -0.09603481683908621 -1.1552984660509393
Ni 0.5703030223707284 -0.0015408562301313608 4.616797782167251 0.9743912767474896 0.8581234206909801 0.2912201133281049
Ni 2.3441096947441524 6.5788353785871605 4.659857776295069 -1.0091883298220168 1.2548729206121678 1.3239875160216426
Ni 6.4363518187760205 5.849338539208145 9.066233748779286 -0.5951970121012459 0.6294111960891096 -0.5423734405423111
Ni 9.087747314911832 2.2145974424153385 10.381409310967616 -1.402793627687268 1.1639669403592148 -0.696982101160548
Ni 2.663481358983524 5.382891782670927 7.081712248446839 -0.4470629034637591 -0.5203218600589102 -0.8300099502842156
Ni 1.020744226100409 0.3065381940145986 9.169828032540494 0.23165665194217525 0.1576955270736768 0.7221696561697691
Ni 1.7720303061270757 1.3531784807741287 11.471373399586307 0.926461028725114 -0.9549185127348587 -0.20039203750093873
Ni 4.344246969679004 7.143137459691962 1.32409847074848 0.1403963736735969 -0.22207029380532076 0.005428112994106781
Ni 5.700757278201936 8.169696409836172 7.7123396096613055 0.3171743713000215 -0.20433019621308035 0.9635808163955469
Ni 5.450952351698531 3.040489079129586 4.764348458645133 0.49540221399909523 0.6630520240720066 0.466987410301828
Ni 0.8769662740295969 7.39851064626871 6.690311945255467 0.8770349128835024 1.0709354291228266 -0.6988181259280224
Ni 5.532504541034985 4.506064258728403 7.0812978238446584 -0.5849128565664184 -0.36875661425268746 0.0008186392465534288
Ni 1.0943274137253431 7.8050940428699 11.104530036147894 0.5306774922616215 0.2759549596389183 0.3679150921879986
Ni 5.101064796598203 0.5444078745411274 10.504630342243074 -0.23542974583136228 -0.27595804496271187 0.3506372789441574
Ni 8.175273798204717 7.534102343202188 4.156620338774904 -0.13320525524179638 -0.6373309651568185 2.115087419504222
Ni 7.671136310777616 6.519976131123375 6.663110538382432 -0.7077701929149876 -0.25799091896132986 0.12381507227614807
Ni 2.6249782098206444 5.589958031037631 2.40011634995725 -0.7220958655090401 -0.5375251113110742 0.3557198356733874
Ni 2.606612079873818 5.601687890372459 11.16367499925151 -0.19633972180843606 -0.06611026136551194 1.9214843799006587
Ni 1.2811105901527595 3.2342188882058767 3.482331428778794 -0.6161422468943453 1.615783042237243 0.43337666422591814
Ni 1.3570580062350635 1.0874903206188953 2.432488023232812 1.0343311476362316 0.26352084764062356 -0.22562227282263725
Ni 1.120927265944554 3.3611843461732764 8.013317759068244 0.9993158079033112 0.7029658295478086 0.42458272008337195
Ni 3.7948148814585854 2.976591012714186 7.208553561599489 -1.449006893018537 0.7618901146878427 -0.8615149628710324
Ni 4.106829139764984 7.217167933781805 6.072390258132943 0.820557032401432 -0.11336482347710154 0.26919938608263966
Ni 8.41374138206699 7.60858923205214 13.209800625415044 0.20148398501353687 -0.33955916675312486 0.6003608156903726
P 0.4621783657006693 6.005322847623339 8.23134252582519 -0.8611539799871879 -1.6114232226066505 -0.019869228120101265
P 8.796080026611136 1.8149515501678202 8.22391391918964 -0.36526968414535155 -0.6987625900997385 -1.5022639525704644
P 2.3226582010189825 3.238344877637271 10.53698923590535 -0.3227071281927926 0.8485594311516289 0.3936538917149994
P 4.271850460430356 6.722724695859439 3.7193549163400794 -0.8438612543450112 -1.5504163439059748 -1.3264287784732833
P 7.398063359803802 4.133556788117025 10.136905185488128 1.585862343418411 0.9398161098757815 1.5620665265503935
P 6.457529463645125 7.961863384672483 9.966937241652683 1.5956307356590844 0.7953095706885529 -0.218933547948552
P 2.4943523054771624 8.724295113141036 5.74513265966839 -0.29645179404068944 -0.15779580009696695 0.16885154369049632
P 7.115697804314149 4.366903398370864 1.4845437770289889 -0.7640446991370002 -0.44673534492101125 -0.359971926081522
Ni 3.0033551742470364 1.9497490854187076 0.1070958978007711 -0.28588764537159794 0.37833680174195483 1.346834852933461
Ni 1.6585108269925164 1.1590470267089412 6.961509944394749 -0.01668723084769384 0.434903899503722 -0.12111155730205594
Ni 6.986450272546199 0.9130120861240444 9.105926314807013 0.06105932920516582 0.15635675365759524 -0.4975269736515819
Ni 3.2982173658685006 1.716137754604005 9.411353595295504 -0.2739559269310185 0.11920894096270439 -0.769426532274204
Ni 6.467406279053906 1.9508170959573652 2.704715694070902 0.46322382949433777 0.738925021251237 -0.7099283769085708
Ni 4.504594603200849 7.211900907450135 10.375090705028652 -0.5574406192880786 -1.1016035476306447 -0.058574872220415256
Ni 7.987176147268183 6.6868778806004 10.753196559087542 0.6291515146698197 -1.5782991863591722 1.3435680092567313
Ni 7.844902538246694 4.075847705848717 7.9063825192630315 1.5998288329008319 1.1865314559232918 1.5262335760121843
Ni 3.2985185996101736 8.754007714024198 12.663515973380344 0.8978965868238601 -0.3138645902004982 -0.3157723487461723
Ni 0.6839174357753904 4.6594743878965765 10.21911004793154 -1.7027732323755576 0.6536299594271582 -1.1791354205695368
Ni 9.1299382953364 2.417492059874638 5.702233323536131 0.8349045593723556 0.6125951529730352 -1.20894119107706
Ni 4.337720238609431 3.2301020270696847 11.717988899746064 -0.7321115978738295 0.29423370334344806 -0.35289676440229545
Ni 0.9847331015277299 3.6050011110240385 12.413226334401703 1.6124393225759908 0.7918352389867073 0.6710376133806444
Ni 3.039448453476535 8.647316199700883 8.16915053778308 1.3488914783521737 0.22582179042795303 -1.085931902531659
Ni 5.702674220194397 8.3942798566959 3.595011104754751 0.41150531807412355 -0.4767460323504886 0.12809338793652777
Ni 3.1074725093233297 8.649862994062298 3.4874350586263443 0.48288685514090385 0.07180731175028923 0.4870237601274129
Ni 3.6316466047192604 4.5591635519196005 9.364258894688312 0.631635457433938 -0.9825046498832435 -0.4701375258950355
Ni 5.851711895960716 5.23337030725889 11.463277514571477 -0.5629931736751916 -0.11240220245351609 -0.379142842583018
Ni 8.379829765390816 9.00895187072644 2.2530348678527625 -2.036888602405292 1.3743078615427493 -0.5128690033252908
Ni 4.840880998449897 0.36194055608531106 1.7155407640977813 -1.0071047078201107 1.4928578287652159 -1.2642757019833066
Ni 6.52431207134442 6.126144962919658 0.18683429488054878 -0.7446575528596402 -1.01794062209335 -0.09481559972000446
Ni 8.105469724793494 -0.079523882142526 11.320443428224571 -0.08132193610894381 1.2156353152677837 -0.3003110198857796
Ni 0.3953838912176112 5.03723062824922 5.990011045251168 -0.575370464293622 -0.35720156242523643 -0.6310744427241454
Ni 7.529437784353864 6.5528288655560925 2.3048589382042124 -0.6628337374136132 -0.6356481781377569 -0.0684831324730627
P 8.661957985205213 1.8847373669886391 3.3007532062756724 -0.939473381824382 -0.5726618071132074 1.8158526634017567
P 1.752240162128706 3.6647275465320335 1.2903183015232187 1.221510285991322 -0.09539461215192603 0.027580480721429917
P 4.980899918556443 1.4958628630797168 7.967024522779806 1.8108919769623717 -1.4833231498019035 1.0429661976034101
P 8.902004764137466 1.8271195676723528 12.577997539778535 -1.428189184942237 -0.8906224217599501 -1.1482410449835256
P 6.4813908273036756 8.068792234671054 1.2574135358078484 0.7444906882644726 0.8286894317005792 -0.23985615703383203
P 2.0428942096619562 3.555580520799328 5.914232502630105 0.055600362973123596 -1.0137096147311382 -0.7638418390975749
P 7.164488542169908 4.297400558701313 5.838974272835567 1.6116016571660436 0.41594998410903844 -2.22467092156202
P 3.0295990229533616 8.802177727806207 10.404068478148037 -1.7352951162626629 0.4462167534133799 -0.5137493490477152
