# total energy = -340853.1409280271 ev
CRYSTAL
PRIMVEC
9.42122563577808 0.00000000000000 0.00000000000000

0.00000000000000 9.42122563577808 0.00000000000000

0.00000000000000 0.00000000000000 13.78891603003889

PRIMCOORD
 96 1
Ni 1.955271714748811 4.9770355749800625 8.34702394500962 -1.1867787960474077 -0.1870922350682391 0.27905185339668714
Ni 7.270416229730055 6.835598410183841 7.063744690635708 2.732222626439456 -0.6291558855451939 1.116943777532141
Ni 3.55853818191447 1.7427665528376803 11.579834561447807 -0.3003184760849473 0.045428050425812085 -0.612570470382687
Ni 2.3204007294246307 7.138236436255451 8.268523467948436 2.3382668872133214 0.11922411047135596 -0.7986234655531342
Ni 8.124092312860547 2.6233684983880172 6.142231073441503 -0.36678509234861345 -0.6144964837608062 1.1683226462247491
Ni 0.25188211592442056 7.835831076870352 8.052754793531275 -2.487862153777367 0.8935061710656483 -1.2832823249927963
Ni 7.683970343369487 3.157410664682238 11.08108995853434 0.630377673767437 -1.577514742784664 0.5305594786265186
Ni 2.076927999363035 2.1611160702460754 4.566419941567625 -0.2079981319829708 0.1296656175196541 0.8711907953978997
Ni 8.792368099783861 2.7133883078427457 13.188394815210287 2.106089072660354 0.10542962779042488 -1.0595017333645882
Ni 3.916036003952055 5.1123903214411905 2.031935052841533 1.0910216583497403 -2.0087851593008565 0.8931189629295585
Ni 9.18800304256166 1.1460261309787059 8.407902019811775 2.3407580290662913 -0.06997385808597627 -2.753213883979142
Ni 0.21095631244233362 6.963406755036048 2.354085379003326 -1.4147034917509766 -0.6557500910939545 -0.08768773042597156
Ni 9.094261849042606 7.118093856180705 5.225240586599911 -1.6257031295644322 0.017885364920853068 -1.006879479183182
Ni 3.2849929001229428 7.250725868478314 12.751837837440593 0.2572285868740086 0.7364076541460219 -0.41055041036002193
Ni 7.93705272341997 9.136892894336448 3.528969665747681 -0.22858135545096117 -0.4685994919839543 -1.8884927554659865
Ni 3.4897726571410463 4.1441238728059515 10.239152722351056 0.4662597881071841 -0.3749863972124832 0.656091019373141
Ni 6.64683473648055 5.866926848852991 11.634935540786053 0.07312165968633857 -1.1339986761318985 0.04524627343230917
Ni 4.125488688807892 5.1726013734794085 12.86541730545141 2.463949608825828 -1.3533382012696176 -2.555679884752289
Ni 5.389289559503349 1.5002547877749732 9.965677157628075 0.4410951159160984 0.6489204697666308 0.514782675408236
Ni 9.255082167974289 4.634197179788271 0.767081831260038 0.8491129896622537 0.6656285265499311 1.3666418603570591
Ni 5.669052850111216 5.771574625776977 4.94007233893457 2.864471945525886 -0.881254864502121 -0.18161064312837757
Ni 1.7951862514045152 7.822697888552205 0.8846455355260533 0.002502968927511818 0.058811670821569684 -0.984087678099647
Ni 1.0703642691544333 0.687164401886765 0.21518173206980046 -0.4687997809202184 1.542610217597995 0.273493128361987
Ni 5.577864808697054 2.717156798034466 4.049446209474256 0.30726713948863854 0.7211239885140742 -0.718356453071266
P 3.618155696747492 3.831395714246008 8.055485064675176 1.098576587878863 -0.8990522976948582 0.3061404820833631
P 3.7890849906184636 6.642604606240344 0.9451119027747599 -0.4681819448305614 4.212466108874771 -2.1294783981185716
P 6.019202116274945 7.267326067772845 10.20240523236904 -0.016782104554345288 0.9401686081191938 -0.6276566752918481
P 8.134926722161746 9.361881180007652 6.724716239027746 -0.5637621906307323 -0.4950345462470313 -0.2947358397908472
P 0.07697235428844343 5.041938397306972 3.824755634528196 -1.9977723531301208 1.148529779868538 0.2814841169872636
P 3.8036030990820677 1.120560558508153 8.212360716498674 2.342864533886333 -0.07176694543065705 0.3202450398055452
P 5.3818467913747 7.133648299447032 6.528762286038653 -2.9824416147648507 0.4175607802395841 0.39765041446890226
P 7.987748337724092 1.9200269102307432 3.9068276981685854 -0.7034311992200015 -0.3082022497083982 -1.3784853899592064
Ni 7.420957991663818 6.727866696828025 2.851782341643497 -0.005262791060836098 -0.0025569620938988226 0.9924900432307294
Ni 4.1348251232578805 0.9308001191491526 4.750901668290573 -0.24261983582189828 1.7815634032015837 -0.15905589775631315
Ni 6.429741437761 7.9917900434547136 4.778631161243803 -0.5400126536196184 -0.8117744011127954 0.8614319162389229
Ni 3.4386154027884372 2.8641938640899287 13.642063564818036 0.8013969145332134 0.11498821801313745 1.5119575257091444
Ni 7.611153691639962 3.8925959949595526 4.3036035513519275 0.5047517735347952 2.611456882512593 -0.5390865422609231
Ni 3.8624574946512658 9.07736017053274 10.47783852774662 1.5388633489610528 -1.165298771796761 1.1073666753666669
Ni 0.5856120703228231 6.868195850342225 11.972074094562865 -0.882840720932002 -1.4757947026353422 0.08275455479041231
Ni 5.611263053021178 7.557876661554511 12.874269488911764 -2.3563738812266775 0.7273496577088119 0.1601650716600919
Ni 2.1928750213368016 5.314221234884274 13.52130041237925 -3.741268260036021 -0.6636662606172378 1.226024886032224
Ni 6.108713179553791 5.260397773721022 13.757035489954696 1.7188788796881689 -0.02350836753458532 2.5713080782078492
Ni 7.5210585123813996 2.9447641843889176 8.662789506664092 -0.2654237210902913 0.6323039442558723 0.3270412367917722
Ni 3.0940058172065372 6.538735595331041 10.317018208814938 0.6932447456053029 -0.3314133977175389 1.6313243324059519
Ni 2.255695752832786 0.6121026721255239 6.752528638765193 -0.36040901361894057 0.11485580620033123 -1.3434019159925121
Ni 6.66896519513143 8.460627908206687 1.107244598415708 1.1943779485509043 -0.5988348659641494 0.6401514653247491
Ni 0.7183251051595556 1.7186764792871057 10.746888000739423 -1.0427409689664817 -0.22778739879475607 1.551800111627379
Ni 7.6297229270596665 1.0161168528446136 12.19243467427864 -0.8843748981883414 -1.0532033019503861 -0.40597564650514595
Ni 0.543448317812756 4.330023493963534 11.242323869264563 0.42985528133622103 0.38416754949111903 -0.8854179947408751
Ni 3.2557871011371073 0.22490066827424818 13.627557703947556 1.5971613133709976 0.24759877709372838 -0.47271274282137943
Ni 2.2316998915370045 9.354673942515987 9.007746735466178 -2.384337456319139 0.4285820710507522 0.5158054602457955
Ni 5.135274478130415 6.999471206170816 2.8603867468737434 -0.6613016170398031 0.5548412339920187 -0.8495657609289561
Ni 5.9035377310655575 3.0160263339143567 12.740972338095315 -0.6832840348481651 -0.47723094240670716 0.020426643285468046
Ni 1.7908242240075987 8.699503080234384 12.065645706023291 -0.7079676536377743 2.1101431881250687 -1.383694959184604
Ni 0.6714780614637275 0.08461296815215717 2.5734802831074703 1.1597619011389315 -0.24488703458952019 -0.24128080529550058
Ni 8.203296555465037 1.1385550991736195 1.4565506648990403 0.3838351058523648 -1.1580202358574765 -0.3614441397516743
P 0.7941395908365928 2.351999519682209 6.614583997419804 1.1419143314345495 0.22036436685780755 -0.4188440178273819
P 2.0789441416156054 2.423563148422985 1.4459612074603052 -0.9585872198356976 -0.4739131908873838 0.8198854602557041
P 5.206941740351463 2.7911228392724645 1.6097322542121035 1.3196948021835595 2.7410800768300856 0.32026715129273226
P 5.7143029960883025 3.9436684582828474 10.644629077264534 -0.762856335255854 -0.45202101879998285 0.38160930184563957
P 6.9867431305482794 4.409067575734875 7.015483520995438 2.5061524674461224 -1.4422058109363032 -4.014283677430641
P 8.990976954113021 8.711468036593097 13.608873529577005 1.1910581401490519 1.0466637010596556 1.1450513344016344
P 7.922807830495265 6.392819655107616 0.7809583542685016 -0.80309795638472 0.4317082753845598 1.0227406145851545
P 5.196813922961214 0.31878506442058624 12.235732742336415 0.1693480237109406 0.34037394934493637 0.3027293995192851
Ni 2.277110198347239 6.787503054112005 3.084580823237044 2.372605512594191 0.668683768436487 0.31962900348810114
Ni 6.503471948362016 1.2419436275834772 7.894968109203929 -0.5306810918060473 -1.9493497388523593 -1.384808761074073
Ni 3.5889027916342595 5.5409147623672315 6.6951392437580255 0.8492973377589179 1.2135653201126326 0.2011535982573116
Ni 0.021531268710396276 0.7089688861360609 4.837661733729464 1.4971297166676925 0.20060878149743516 2.5984360447728925
Ni 0.7373164114807321 4.83214654833388 5.904413905035132 1.179191470618453 -1.6277551269974544 -1.037403873024284
Ni 3.479663682201755 9.003526026451452 2.171657479434866 0.41987451597442527 0.1615339269831605 -0.6640647816072369
Ni 0.38980414632865884 2.6716145940675213 2.746738503916926 -1.2394218761644202 -0.05081733976218345 -0.2669897800258305
Ni 4.888617373856815 3.073514651789056 6.477480671509717 0.5560087719375585 0.08883804198033088 -0.0795779568346436
Ni 5.955213152819527 4.895146283113972 8.52265348827222 -5.077559018905048 1.2191034763220423 2.286647620375133
Ni 8.205661283060342 7.934819892981375 9.868437863088559 -0.760736974920006 0.09627007277834387 0.67568745344783
Ni 1.8254754913204705 4.595419415715464 2.915141967236897 -0.45157776061497706 -0.8747623147992418 -0.5835581423107369
Ni 6.432605490306707 0.8456331829388125 5.22714367414673 1.5954875252130005 1.1533570260538524 0.18223464986562163
Ni 5.335249410154075 0.9434038345953626 0.8530542822488585 0.48118375640686806 -1.2252137029848382 -0.9588286464225423
Ni 1.686314569765704 7.212419165679473 6.2144438246178035 1.3486161132035999 -0.127813909022896 -1.628854016488588
Ni 2.102412414284546 2.43213646360915 9.14985555847342 3.1100071552223665 -1.0216743781041695 -1.1825056225933506
Ni 0.3012088261664008 3.5140982613286034 8.906619301171354 -2.351700387010408 1.47099985234986 -0.5519232890142753
Ni 5.045132192744455 9.216916783557636 6.710706876740024 -1.6934154453097416 0.3377077153666829 0.27342730812105814
Ni 3.744164587533153 8.270290889848352 4.304817005193661 -0.741864306385219 -1.28235364253094 2.0472797158316287
Ni 7.686382177092187 4.949158168786808 9.83504056088698 2.650437120430532 2.2104357517992446 -0.7147777345810723
Ni 6.260950762073829 4.7948950227887215 2.4903191258016735 -0.2836965512575501 -1.1263319036152601 -0.2692474657117557
Ni 3.547797984868066 3.160406614384656 2.885702521859175 -0.02560304528008494 -2.7381654742864523 1.5013666375671757
Ni 7.655847985313771 7.99034859595638 12.327621722926235 0.6138025430175752 -0.9654829185142662 -1.3823996374119483
Ni 7.4239539413662365 3.1484887641533397 0.9956190925692968 -2.642176680193953 1.0743560247686013 1.2441413931272767
Ni 4.551130234737267 7.624965208192619 8.511676818466283 1.0732342524593323 -0.42176556234955104 0.531790265709826
P 8.077334770806774 0.8002577346628514 9.964918748976993 -2.57772349481589 -0.27458944674995933 3.0944532666481677
P 1.3454734743755243 8.316191100383511 4.334559814031818 0.588832760446115 0.29195442039096814 -0.18026955571945083
P 1.9570240626879611 3.0966720240171797 12.154294727170782 -0.08960783026681986 0.003704188324464588 -0.4808770237997267
P 8.554152413539716 5.060554738854072 12.612955784160015 -0.5700737346710569 -0.21582045624086701 -0.7901748205651488
P 9.281593496473043 5.681978771468818 7.528775438171496 -0.5289494538269213 0.9467004957004405 1.4790031822703107
P 1.2220271569202332 7.549878041122584 9.963953073365364 -1.0243321274419908 0.8723408498419428 2.2994614843103496
P 5.7369233584641055 9.321511228828845 3.0834634658951985 -1.2340125322233908 -0.5304733466706154 -0.24881439466838437
P 3.8705974334653823 5.049758014454793 4.693995582150495 -2.9653975147983704 -2.1380789953033887 -2.697272849837148
