# total energy = -340876.1710816695 ev
CRYSTAL
PRIMVEC
9.16474782846707 0.00000000000000 0.00000000000000

0.00000000000000 9.16474782846707 0.00000000000000

0.00000000000000 0.00000000000000 13.41353483386764

PRIMCOORD
 96 1
Ni 0.4249354354495107 5.091053936456974 11.499999490558297 -0.4204049345565985 -1.9327229289289551 -1.387021966675308
Ni 2.2736272371971973 2.901045856126754 7.89189335908221 0.2340171817545518 0.029826339332813152 0.9303513649184558
Ni 8.892554571243775 3.2177337085531463 7.92986657418114 0.36747903309184454 -0.09983542153209903 -0.8650774834113102
Ni 7.277900178874096 5.871322215428996 10.0437861707261 0.12078631275215328 0.06860783097638508 -0.21904281983290663
Ni 4.67486441961752 4.187519802611996 7.693185135127976 -0.27055075790421146 -0.01664737874869391 1.1379070100473692
Ni 7.378501612996061 6.056615081884119 4.282498664097192 -0.18767818947869616 -0.022007871729658873 -0.3410887160237739
Ni 3.1841357439461384 8.391646127828439 6.140179250265651 -1.3874163739002494 -1.0618080129002616 1.6735562444919694
Ni 4.264393705264364 1.9067898860447963 6.827207220367303 -0.9899081414361661 -0.7552242726318928 0.24478059091864296
Ni 5.354833701137524 3.6981681058877247 11.331861198612554 -0.27975222189782145 -0.8189369802995057 -0.7076182407181555
Ni 0.9591824811155039 5.427913398294175 4.028943091810415 0.3740129775556204 -0.182531355170434 -0.8297790652203322
Ni 7.113732055577496 3.526851479483252 9.329636046653368 -1.5075611964136617 0.48173165849053806 0.47220726393987067
Ni 5.597241274475046 7.4036221860969365 5.396949382139991 -0.2534698911625247 -0.7854074810834926 -0.4426737732571279
Ni 6.852967492848857 2.7437879525011 13.173043406197946 0.14289779993921195 0.7903625110959227 0.8708390684854357
Ni 6.006731360837763 5.547953262021013 1.6618830860437905 0.3080765227638113 -1.6327471808954075 0.0999259243633763
Ni 3.29951075115771 6.021789041102169 5.348284572521003 -0.04455541801287165 1.008420855528373 0.8696121380568701
Ni 7.571089618520245 7.4587023190178625 0.8590456996955504 0.5784012807001458 -0.7051173286731728 0.29698221262286273
Ni 1.0930519489318058 0.16218303897202754 5.300089914452571 1.1799766855239096 -1.772995201916598 -0.6142213757225486
Ni 3.496726954206865 6.361883658833062 2.9723723370724606 0.44548244635051665 -0.4534443815100707 -1.1626669906008686
Ni 6.6329219035923765 0.45458156090252455 0.6918724556693724 1.1005072292426725 0.2555594267017018 0.9745144325889151
Ni 2.9949020360341096 3.548388636282616 13.049746391183236 0.5754026030831381 -1.6674226207904055 -1.0699828354015701
Ni 7.234899183255961 0.06458947500391386 5.378491580525558 -1.3882280711682673 1.0998572543634995 -1.5707571123458561
Ni 5.886810638829389 7.446339074540271 2.9895415751779617 -0.7537332899086632 1.159025022972907 -0.8597172475406613
Ni 8.755899020164916 7.979168333756535 3.662780266079476 0.7748782994173945 -1.0811846176546607 -0.4071539830839633
Ni 0.3358412583817077 7.1484206251458335 12.658298943369845 0.5473966047885154 -0.10281687275792616 0.1515901855068873
P 1.0241147176786927 3.753917265381568 9.612018415960025 0.36091963470677196 -0.4155020979383425 0.16615625624652028
P 7.097987019245025 5.093656724768046 7.609698867100825 0.7044848372954964 -0.3289507951096593 1.7007029801100901
P 7.4524794554149825 4.2211269319665785 11.523768263391977 0.23570459675930375 -0.2849242530170641 0.4279372383779017
P 8.522106309547139 5.569398771344635 2.4369842803334794 -0.5033700626959201 0.5433196065056642 -1.050569463871965
P 5.3297497870269455 3.274756767959803 1.2976961798898474 0.23561640792087163 0.3867612783602242 -1.3478620086463948
P 4.636968188398213 0.14469486765094397 5.147993596660704 2.911497422345805 2.1362110888567147 -1.2131475158489236
P 2.0427030925701444 7.396299552785153 4.153380201423354 -1.3729600892656033 0.5143916106174045 0.7157272429785351
P 2.3044299537940747 0.5101520078186708 12.543519644750594 0.229016900326483 0.6690133838617639 1.0135926295372997
Ni 7.687326112003792 9.112975915150797 10.383403305108377 1.3447496882696581 -0.18363487264725795 -0.17189393006124587
Ni 4.58641544077894 1.474103823571787 0.46050931963351543 -1.565358309927788 0.1284404868633014 -0.30223034839567947
Ni 2.258945311583333 6.423333291318055 10.225660586336048 0.07232744591981737 1.3268530104948955 -0.0032136218412912396
Ni 3.1643215596907237 1.6061311771256752 4.5394085339961245 -0.5634757697385651 0.14503952887256313 -0.1401495477701135
Ni 1.0401988496714092 2.45979075467187 5.6836501805036095 0.19958162578450145 0.5317987503502584 -0.4761919596192315
Ni 6.9623395903993295 2.351985828956585 2.381720852461069 -0.13770031489867252 -1.1229650440255563 -1.069614396318558
Ni 2.1427454770900836 1.765845233101214 1.154253216757539 -0.12545106521767427 0.693206950388832 -0.07199474517074697
Ni 8.70782991913825 1.1758554432646797 3.871494561435219 0.7171043258317199 2.342344656827121 -0.8597306172771
Ni 3.6870970908180936 2.009471717866105 11.158706123844699 0.007951650746908887 -1.1696483070147081 1.3880763760817514
Ni 9.370587804713912 3.004845787152114 13.11756460675754 -0.4431070041398046 -0.0582020622620288 0.7740969411666797
Ni 0.9151559502438168 6.340804739412407 6.282108197098702 0.11390475514097156 1.466978647005609 0.0456350242302956
Ni 5.694836671392675 9.188300975463125 7.1666364774243085 0.2800895506325822 0.5490351688332028 0.8835757993258138
Ni 0.45480884664236465 1.1755805008374538 9.18623249193563 -0.3729770800919383 0.883550345404517 -0.9634764296071987
Ni 3.674797999573521 3.7857922574446263 5.362811613900863 0.4834645820212447 -0.7558552213476725 -0.32613312315520604
Ni 6.014118147382566 4.6605215896639 5.818764221040488 0.19073985912315536 0.41213549545895467 -0.955283095163129
Ni 1.8270015936638335 9.305701391888594 3.1037709889427587 1.09061722382247 0.03560823612191287 -0.23160934364400756
Ni 0.11382983077056186 3.4269465661769254 2.063189052822748 -0.9226336845592239 -0.16479202890914202 0.21585130947880243
Ni 5.810092536885782 1.139608866608729 11.851863477123974 0.3257266317454067 -0.8762936638421037 -0.23228888620953544
Ni 8.763982327525358 0.23526823497722243 12.609594725336287 -0.6537549150407967 0.6946400832909327 -0.1721034749688907
Ni 8.651466721556936 4.526102236993147 5.733829922896613 0.35369920569893276 0.15876382043719112 2.4799243869875287
Ni 5.988521007407831 5.618925067235598 12.503345973759101 0.15401884955303796 1.1086753668757614 -0.42642362994685273
Ni 4.966963254302341 0.9641222800579963 2.9596828275812266 -0.403348493294944 -1.130714606063988 -0.5130183844189616
Ni 1.4551877845786434 7.7948744247869985 8.15345708779932 0.6462773757168289 1.0110523796139492 0.6960148521512722
Ni 2.8987271749904817 7.56834935899556 13.258608238974924 -1.7601831377535944 1.0451449504222838 -0.38477947204350504
P 6.754620586630144 8.27968040671447 12.168248892880417 2.3617850249399193 0.415397196929362 -0.9375005743687272
P 3.866249576398505 7.818244531101202 8.680380583678772 -0.4614471972098891 -0.631635457433938 0.4739589565236547
P 1.731679054144606 2.7236530020805882 3.2527824527011497 0.9020849138735949 -0.7165165716490498 0.26675092454214705
P 7.09050858522448 0.11588090127766724 2.964431083299418 -0.9004124112671783 -0.4083274345667742 -0.4965386415963836
P 4.2314372729875505 2.710006692942608 9.2408919629429 -0.085453184668498 1.0683147036705278 -0.6101490054253879
P 7.988287257592861 7.336747023048018 5.925012972617673 0.5619536766670838 -0.03256687819242778 0.8553720831980882
P 3.876954001565168 8.167577214386885 1.836406457624475 0.1301530986790339 1.0797748817913277 -0.3299584104385672
P 8.60426827154982 1.409776460348495 1.1257792625192649 0.8198420086122785 0.774893468926046 -0.5970361221925137
Ni 8.034129324958997 5.09971462291459 0.09843672074493985 0.7666150309673377 0.10251991034279764 1.092978524965795
Ni 5.4415597074321544 0.9253737273142896 9.566157102623984 0.3293917393018198 0.9724061279966607 -1.097123143261788
Ni 1.278317321144207 9.021777512039959 10.804024893874715 -0.32871091118471135 -1.7434570832481653 0.5030170502318756
Ni 2.2603750122049076 4.291603840812157 1.6419506765446685 -1.260193818604449 0.1130308371764505 0.6745373990037867
Ni 1.2719386568325657 6.568713682087549 1.7506409168756205 -0.3509494108679375 -0.11348412266378519 -0.2832905740683831
Ni 6.4351374861936215 2.8602352351788527 7.147603129662215 1.5416956762035257 -2.222373897997727 0.05077440233938998
Ni 0.26891385627161607 5.631279146965617 8.656357030862528 -0.34377654726858214 -0.21735051973214825 -0.28899173821821844
Ni 1.4124800608828834 2.4402423480961066 11.337146508538595 -0.4446321825350794 -0.9162681473525124 -1.209183388994853
Ni 4.726746055635052 5.727820597912212 9.714041302430749 -0.06562715108150634 -0.26459813986520236 -0.17523739261218207
Ni 2.9724575692249005 0.7082251147660129 9.216694279922747 -0.13873107015603206 0.07276633322944887 -1.8367850426790495
Ni 3.9250231025918336 5.570186939636016 0.39772438342696104 0.9740277227604838 0.08579179895483935 0.6564761706267017
Ni 2.9802109456726718 4.243736364232124 10.730773815938427 -0.15385224206818665 0.05953209392736198 -0.8760679209845429
Ni 2.9192012210712392 5.570663506509875 7.827548582838528 -0.9835657441579062 1.2416011432039262 0.48561813802913784
Ni 5.852818590076691 7.825457187442096 9.965692440171606 -0.396708105160291 -1.1080495603663045 0.12737347905136773
Ni 0.9106203166693465 8.904459578342657 1.0896802382992585 -0.4127769856976956 -0.49525951777364385 -0.8563419033105252
Ni 5.213439975562806 7.906913463881563 13.33856607918601 -2.075334050865684 -1.1092062996785672 1.5165451450798266
Ni 4.137214503177227 3.9012130883940688 2.837807264915277 0.14489400443363432 -0.5762245847638011 1.3705188268139623
Ni 3.9174163621052496 8.684936379697906 11.00215665520653 -0.8219096897745845 -0.8280587400951159 1.307623472841322
Ni 7.985977741204164 2.1400510413032694 11.061820078389312 0.9033424404297797 0.5195489864486279 0.3422899354207266
Ni 7.77830456117285 7.793902961544134 8.35123967224856 0.10635471070785554 -1.4798778715657803 0.1308213283906521
Ni 7.710622900337402 3.8037643274376274 3.846907376643162 -0.42284928233203306 -0.38300052576621135 -0.03270648909408561
Ni 5.811522237507357 2.225814749102609 4.8158613116222755 0.11979001027715498 0.18529786217197766 0.34245114358893924
Ni 5.590367713794399 6.905316530992673 7.639732661376226 -0.202066082769252 -1.669208251935919 0.6057269650982924
Ni 8.803335753608962 0.07522974693755709 6.988076034537191 0.44563928364335503 1.1807798981514954 1.5713754626561456
P 4.124301373845182 6.430665089377413 11.670807473472403 -0.19056682388040083 0.08245527838243864 0.03916201491144223
P 5.092987698195129 5.367178616119968 4.110711886142163 0.1841362377637087 1.1134085106853728 -0.6465283153853704
P 0.0514270645378515 6.9107145673138755 10.401083019653763 0.1409887558419572 2.605281092719184 -0.4330300795197768
P 1.8671890117766894 5.3596726878567 12.98993541556451 -0.24881645155091345 0.8529686159629182 1.5756887453195185
P 7.427395541304405 1.2474504513143103 8.51668261193273 0.26757419177439073 -0.10021414502775644 -0.05410243827135843
P 1.838759964801529 0.8563512639087364 7.197099181886184 -0.3322464351417955 -0.6091722433344153 0.6467298898732152
P 1.824655418284839 4.366846418396318 6.347633392829942 -0.41075609861292484 1.3363100421427372 -0.4585485355058554
P 8.001282869653073 2.4225360557827575 5.613362981932817 -0.7681160409928964 -0.33125090399774565 -0.2577140111508594
