# total energy = -340864.38300228585 ev
CRYSTAL
PRIMVEC
9.31924051658644 0.00000000000000 0.00000000000000

0.00000000000000 9.31924051658644 0.00000000000000

0.00000000000000 0.00000000000000 13.63965049929315

PRIMCOORD
 96 1
Ni 8.922827805039338 0.9587820837338439 3.856652052403851 0.7988687487947209 -0.7140585970268606 0.1776028075205651
Ni 9.438433414832524 1.4153037098284942 1.1924638988817111 -0.9757105097795453 0.06962187406319623 0.8789925508305056
Ni 3.1584582945015347 8.128986955923848 11.555920449349033 -0.6125234191948354 1.1820783052479449 -1.052285161011491
Ni 5.510401573037418 4.0559197768574045 8.845899339955007 0.744595589273453 1.2404606018415798 -0.7301627016775747
Ni 4.270225027509059 3.339111768317951 10.576648151899423 -1.1623430316025465 0.9469462931626594 1.054800471234177
Ni 7.3167219686739715 1.855153214970987 2.67663120321209 -1.9821133064366248 -0.6899653035230827 -1.26885329405166
Ni 2.7888572229741126 2.158298783698055 8.896856946084911 -0.4903340554475685 -1.6634183847270192 0.5905849672505313
Ni 9.179675387802003 2.7561373701719747 12.749403873122958 0.5067433500435272 -0.5475439289996571 1.4459375100645937
Ni 7.505818674230272 5.707876275651288 4.99699530396235 0.2565349032410936 -0.3610926699495265 -0.030669404059398792
Ni 4.523484702744288 2.9148160752878955 13.46323531630069 -1.2316422322190015 -0.4061314553567199 -0.674385961027587
Ni 0.3109672071368754 7.8741616483130095 8.281981856361892 -1.0614593713115914 -0.5424459456514594 0.3603604197691923
Ni 8.464283903792863 0.8047937522765148 9.29317068809711 -0.4008475812499613 -1.5429812277841684 0.556071506854694
Ni 3.993676570686662 5.9961017406084265 11.462911635073565 -0.9602327258589205 -1.373079645562603 -0.6640064175654758
Ni 0.05928993890984903 2.9959959778112286 9.842685285758666 1.340254885723098 0.122861193003311 -0.031210364164533346
Ni 3.9578906878156257 0.8359395853867468 1.5587939170529526 0.06921126888833888 1.1657356022238634 0.028049449938048466
Ni 6.843099536571938 2.7481787389293015 10.126540027000566 2.4928053567152553 0.6276438197760417 1.0704399775436468
Ni 2.189825773737825 6.168125597878338 5.966747065489813 -0.3605249703715146 -0.1614719633969735 0.25977063656957194
Ni 6.4030916043438175 1.9018426090292924 6.994603358557022 0.17563899892597495 -0.0072859921384519685 -1.303486310744497
Ni 0.2702999061804618 0.3354609664988402 12.309647560383775 -0.8559436394308421 0.8295129560431392 0.1617306163749989
Ni 0.6102154695575196 7.901932984499387 10.70906244199049 -0.07229145047555936 2.4983196016652647 0.6030812999453291
Ni 5.50137122915668 1.7214034777404887 11.67253955900309 -0.4239900808046956 -2.4428243968114383 0.39057808100315317
Ni 2.2976214266464905 6.474421069837285 1.2574367105454034 -0.04227330684691429 -0.34154971482059243 0.6824875070887987
Ni 7.815879119282942 5.098593662050902 8.84607733744533 0.6007621648938493 -1.749878927614109 1.884034976804949
Ni 5.245082800813876 1.5580744716993995 9.007775476428495 -0.4413668815202464 -1.3566634089881089 -0.006918067276071957
P 2.704779036707839 0.7747522491455064 3.637899660266244 1.2931065101720698 -0.7708915468555047 -0.13398532794093054
P 6.348191959553902 4.828400927134246 10.956976600971858 -0.17199137487105862 -0.7149515411547751 -2.7058500499831983
P 8.006299156966245 2.5515241294645596 8.157260599164065 1.4417440408085362 1.3574457956800878 0.23781007313808078
P 2.089299128287338 0.818152883291002 6.854564997951166 -0.29284016543003116 0.22701606784637032 0.17908736248589158
P 1.0686559272363225 7.124447402164798 3.0824794600069323 -0.9194912822755003 -1.8476723790155147 0.3961326922727952
P 0.3512347126830892 6.14770714231312 9.718946276491728 -2.082632641409626 -2.0672049940006465 -0.7096303860521779
P 0.4025147645284446 4.474670521890516 5.577907354223076 -0.5317028482023424 -0.7966411450157829 0.44732155644178445
P 6.529339353107861 6.815719608479462 3.2520337185891295 1.8777141767932437 0.34817699032912297 -0.7495902142745672
Ni 7.71614460926059 0.09126052478937435 0.5671475322918407 0.6424081225694098 -0.013479008323041303 -1.2712580468384107
Ni 1.650437462619931 2.1251688843213534 4.94959764763889 0.19669427693437738 -0.48060628663684324 2.95612765946067
Ni 2.10788169350735 1.9942615153918097 0.22194330002694088 0.8735680373808246 -0.19483074136307735 0.7402897628092476
Ni 5.602624775352985 3.4902698464867554 5.132382431719005 1.438382066314839 -0.39281416942252345 -0.3333874907247742
Ni 1.1074705632149335 6.0248422777892285 11.771072818946775 1.1907208114142913 -1.5241404409285815 0.1281941751804502
Ni 8.553832484133432 4.502376623394576 11.702547512868906 -0.3929571227582909 2.533151878853102 -2.125284671752198
Ni 4.242854418656915 2.324563350443409 3.5462952555086558 0.019215139475870134 -0.02715702003076613 -0.7332012313935824
Ni 3.3258411700866084 8.900200689515673 8.579517242409699 -0.1493227296289493 0.012711019808765205 -0.3008681779408302
Ni 7.365079506751525 4.296766223971744 6.827585797192923 0.4553835075143125 -1.2677510621264168 -0.7435393800947969
Ni 4.430795538412172 6.208105138898324 9.159242953376289 0.9748952129671017 0.2851165715335283 -0.5501263450148526
Ni 1.5484663349181393 8.923340363257545 2.085625483748858 0.6678309335178885 0.8413148337740736 -0.3509033881213505
Ni 8.299324030693848 3.532280981898899 4.002541964013542 -0.2117581132460353 -1.4098785595585073 0.8291810266250172
Ni 3.318013008208569 3.9482266355923796 1.6005310667993649 0.6535453701331518 -0.03042566347970889 2.454671011737379
Ni 1.8389470560353798 2.108571317291844 11.649284326681116 1.1613045630357033 0.25872496891387703 -1.7296062934080019
Ni 3.523530215228091 8.396877838478746 5.539294013835615 -0.18427070645904392 0.5915306189932522 1.331203059933475
Ni 0.3099169287515719 5.460124271451679 7.495151871747411 0.15842546326116586 0.893209722871152 -0.5442817133086175
Ni 2.14071337719346 6.652092386747781 8.711399403877865 1.649701806471875 0.1572926352083033 0.14622455031959977
Ni 8.59438981805394 7.817715009628149 2.2326747088557255 -1.3464820975797325 0.019122322651747712 0.14093630533746695
Ni 1.532642264836103 7.936581920050041 13.218034920103706 -0.7283086791879715 -0.1386253978161032 0.30073756590023687
Ni 5.417991985915233 6.924586974026193 5.080960727420618 -0.9476361201408324 -0.2461288774164213 0.7996899591444357
Ni 3.247829809275815 3.670261654239671 5.748293820966832 -1.068389008551889 0.4586297823657521 0.9654749480944662
Ni 2.7337898318582394 4.404394130554452 8.343224176121085 2.3121259671518954 1.7951539974018247 1.344243695167517
Ni 2.392118523602821 4.618093630584591 13.318927811699202 -0.041703036165741086 0.12771517866150262 -1.8917254034706708
Ni 6.349123883587002 4.2928148660714 2.7713174807471392 -1.3422891425443075 0.9406609743745801 1.3478568664400723
P 7.54301176239129 1.4439883315673092 12.552188245390289 -0.7998550239673902 -0.3082539288819401 -0.7870133921180317
P 6.867413434595513 1.339314624169528 4.8492778893237505 0.12416808474019263 -0.10153697760423804 -0.15898570664001008
P -0.19087481661145628 7.4681596240527055 6.021523696307359 2.351160198236222 -0.6990649518315057 1.1819078411083515
P 8.356879658978098 7.386886529126063 13.670339589948581 -0.0672564591548132 0.2619331914385295 -1.077488399749996
P 3.719262219900064 8.080657375567286 1.6702156863744102 0.21154625434554536 -0.04072884517792986 -0.6446832917568316
P 5.62235360713371 2.6987122112523583 1.5634171921811613 -0.4204095625422889 -0.40274968336868056 0.11437269591632561
P 3.9057681766443477 6.9912009039121745 7.185817395516526 0.23579998468658744 -0.0025849871183568386 -0.08010683275492012
P 4.706160451712533 5.911212780433357 13.409822090343567 -1.0659523740859385 -1.085048728595757 2.6851997207226983
Ni 1.3345058961587324 8.900359116601301 4.865468205550795 -1.0826223785424518 -0.9772354310645041 0.08333022478822423
Ni 1.4192271100078448 4.387945671370239 3.7453933697881854 1.4275662066462576 2.4349812466179355 0.6809846972910272
Ni 9.25220703529817 5.399921978913425 0.29467624311425605 0.3606748656858175 0.6986977983000741 0.06393407964979958
Ni 6.026426548645499 8.800046813678428 1.7394511185655015 -1.2918888357148848 -1.456773167227517 1.3318576627983387
Ni 7.214322155916953 7.179179300628755 7.000454909560856 0.33566548812567354 -3.235480589037544 -0.7167302303217528
Ni 8.840594828358604 2.3049556687869868 5.8199979199216045 -1.0716784779364383 -0.3502521276905968 2.0741150908569184
Ni 3.0161628138875103 7.065866657444139 3.8150099589088144 -0.508874280343601 -0.6656915185773826 -0.2978111362820613
Ni 8.676175471198787 5.3288627713895576 2.9853235837841683 0.635436319237267 3.389406107545827 -2.2003873664243074
Ni 5.152514786606062 5.079293515325403 6.755118452455041 -0.9741385373067352 1.6153503255751984 0.4313154108215152
Ni 5.391217808444272 9.116257957349555 4.104062040483313 0.09991538284041501 0.9524371410739016 -0.13439027668883308
Ni 7.8691292585342705 3.7130090096379638 1.222769136514087 0.7858450828415433 -0.7996423937359519 -0.5695410020960385
Ni 1.562407918453314 2.450363775671565 2.8465134990539376 -0.2548063505857611 -1.4125756467746962 -3.570784065838108
Ni 7.142564005368261 6.913534354993628 9.79547867386199 -0.46835549429394824 1.5950337255050335 0.7943006698080644
Ni 8.90761880481915 9.481767882371669 6.994426292990733 -0.5984489433796403 1.3835183243974238 -1.9540715698080602
Ni 1.2550500530966344 3.2761230229207285 7.417828270873046 -2.3603338943156897 -2.1824104702309124 -1.7923867190693326
Ni 6.868391954830269 8.599739062003934 11.659145946799377 0.46967884109106206 1.729430687062086 -0.08786925030915835
Ni 6.632205127881429 3.667326093535406 12.702292317477658 -0.03295794298325937 -0.6763001473311643 0.9541016732605182
Ni 5.573856280451191 8.891254218797915 6.778646738518715 -0.1580786214447084 -0.4039830415551494 0.15257671778987272
Ni 6.338043306833444 6.43865382544691 12.239021697535298 2.127834177646929 -0.06039315637607664 0.002531508172602092
Ni 4.634952136343368 6.321100927911688 2.4411833920214976 0.2106761930357662 -1.714370450294854 -0.412633775251612
Ni 6.640070566720793 6.129730327714622 1.0521366418255935 0.7585204268846614 0.19889077036506392 -0.001863021350667759
Ni 7.632485788809212 8.132901036862867 4.779033183404812 -0.7775108519442352 1.6789316498712696 -1.2783753746094821
Ni 4.2644098215425155 1.309772632320261 5.936029917434807 -0.8443518208281845 0.981366165403426 -0.36480431447315886
Ni 4.958702545442276 8.106741929253753 13.12879107892196 -0.5392737185710648 0.8175159315822631 0.9293244663158382
P 0.9463502171322911 3.604402582820501 1.0687593708039966 -0.61342433374255 0.6102963296365297 0.4864935986555557
P 2.197663254856195 4.1348817001819596 10.86077594688302 -0.0009104276294113353 0.31130274301059296 -0.026300842678057927
P 4.367890666177929 2.9091220194456553 7.47947970528277 -0.6194186036527719 0.27013603896429605 -0.4478897702404287
P 3.9390099069050217 4.493392875715493 3.969738238048425 0.29033951049536444 1.3685483333511528 -1.7444107054106859
P 6.9809963357497296 8.57490328652182 8.370598512669362 0.3265894939663343 2.617591020434789 2.7154541487318653
P 3.5203243965542272 0.6864887920465813 12.937454027990087 0.8081000375850018 -0.23049862707833205 -0.5814570368073341
P 4.478976010923438 9.441974726158302 10.399155764403282 0.40696526411192496 -0.5277587759529299 0.489435197782383
P 1.182117678266236 0.5884224260434784 10.201517043159585 0.07725522223873792 0.7114016190199877 -0.49574005695448825
