# total energy = -340863.94863662525 ev
CRYSTAL
PRIMVEC
9.32125925874432 0.00000000000000 0.00000000000000

0.00000000000000 9.32125925874432 0.00000000000000

0.00000000000000 0.00000000000000 13.64260513249606

PRIMCOORD
 96 1
Ni 2.9647662890157878 8.096175374268567 10.301558255625828 0.6490641944333467 0.2570025869061316 0.6185523989977347
Ni 3.4642086751059105 5.704293672123106 5.463549783757752 0.379240801613463 -0.09320994579578142 1.195002983729413
Ni 3.678029038565371 4.940845263352732 10.794083335306638 0.2176665083106703 -0.13121007918863856 -0.21034014985258612
Ni 0.08503318652334123 0.0223533115485475 12.285438191738752 0.9455944071204554 -0.9975479173696109 -0.7272247020951733
Ni 3.10207775743731 7.2471391640559 7.912997718112679 0.5890919276447725 3.2880179968146277 -3.191966467804993
Ni 5.756185121766892 8.330716896800803 12.463720322593238 2.2731830102297947 -0.38637766976856036 -1.9710218245091538
Ni 0.513304962686178 7.085405996682209 3.326407840579431 0.1130776312539859 0.5905541140125959 -0.6565892991657982
Ni 8.704499388396965 4.0923030798745925 8.639479877377516 0.812645233753523 -0.36389748638817326 -1.2246069226387748
Ni 6.375359081536633 4.97550170484287 4.274091868418316 0.2775192188022446 -1.939592145244963 -0.460459122265007
Ni 1.9373398213425883 3.4690091235640663 0.24506522410360798 -0.02735962295987546 0.8764314749715487 0.703896054671562
Ni 4.045668820386922 0.4628424620688678 4.090953361550824 -0.46089543847147724 -2.848076020666366 0.10910887641422498
Ni 7.472238251077239 0.9594465247502367 12.155615422911952 -2.6393898614774356 0.23291700671183754 2.3002731815783672
Ni 8.827465438998873 7.123968045752866 1.0393865752783624 0.28924473476928897 0.2909118380590668 0.09775179953019295
Ni 5.7045826311565095 8.922840562540317 5.474450064198464 0.908279472720081 0.7273967088966634 -0.1347342902918131
Ni 0.5421635809899614 5.897793690652899 6.16527095023765 -0.37759580981087226 0.9289935653389807 -0.3966512837804266
Ni 0.8767194177386385 2.2868497541328545 11.668110773405052 -2.7436660923897067 0.6142740833373549 0.1384616185447293
Ni 0.8480705277655511 0.9273776647979317 6.749719491199602 -0.27013398208176703 -0.3521704277592322 -1.0208526535338225
Ni 3.809496077504829 2.907599006697602 7.305683196349367 -0.9682085449755453 0.7786310815916074 -3.2291320211116967
Ni 7.856180915138235 1.9732919178534711 10.360235581925027 0.4897031067317889 1.90833061612752 -3.260719823220307
Ni 4.619103361546629 9.158099822026491 0.479184493596708 -0.8623791106435407 0.7126684015475533 3.0100385505465126
Ni 1.6740515356162748 2.8423874777398277 3.3584133159695697 0.5326307593332504 -0.19156492612761203 -0.1360470955659657
Ni 8.849025511394432 1.9379643457051057 3.2523019661483135 -2.2831041259982485 2.3238028892691918 -3.176542677050755
Ni 5.477731147416464 1.784862664296952 13.153735851842551 -0.32236902812708346 -0.3499993882498424 -0.07884622087494161
Ni 2.8387521866744283 5.907236126163795 1.2827804976178012 -1.153012755340556 0.6323522809953045 -2.7702160749640936
P 3.4983431260840936 0.47012889034020744 8.766328232412087 0.17322190484405006 -0.3311879119702941 -0.19090672371832282
P 4.754326867920333 7.302386266990824 6.366676328645815 -1.985014282133504 0.2044644077980995 0.2846290903741485
P 5.008741314943416 3.887859903112034 5.677370147217212 0.24829811715359823 0.34196700486366916 0.4162883412850637
P 5.88346691535157 2.578940730608099 11.10102867035065 0.34664512706562883 -0.006936064998200958 -0.8330903889817524
P 7.640142092002967 8.7395100377345 0.015044512255266948 0.2402983867775732 -0.911454785124269 0.5242237662164778
P 2.41744059471296 5.421216353238223 12.479545956364609 -0.0932215157600072 -1.04303793138161 1.6350241498550422
P 0.1740074014119407 7.911362769259164 10.551395032284253 0.45711668815533535 1.2094201875960073 -1.0603545682831865
P 7.331580450623721 1.014348741096905 8.22630015189157 2.0369197127535434 0.4075057099964272 1.5859147939229008
Ni 2.1226278105682366 1.0690086047058798 12.834580599448367 2.0306145964711217 -2.594317908839461 2.590139351981739
Ni 0.4887033634325683 5.833710034051313 10.022239268427018 -0.22672656163040952 0.3336471721440641 0.7307273159317932
Ni 0.8667559238417024 4.817133512019458 2.214058177240766 0.32075206134895085 -0.015491667877695901 -0.6641704539471658
Ni 0.1768391999392952 5.276736836536464 13.34321840768212 0.7987759319705986 -0.8964246302640239 -0.513139226267542
Ni 0.5703613220205737 9.538351267467235 3.7710067342554807 1.211768633223526 -1.3777803934723818 0.07562951370985685
Ni 5.00416457670467 6.610618341022806 3.857105340698758 1.3406225534751621 2.3249909960400217 0.687872682660112
Ni 3.5083914434392227 4.756536006336998 3.1238559472967937 0.6319565882187825 -1.649019692803186 0.5746230446046362
Ni 4.802088999764191 4.416049052396236 0.920805244976873 -1.8801618670027875 0.21616344140258256 1.3146904069904326
Ni 4.105278272600325 2.543258950612336 4.208334113674818 0.17391121760159078 2.5558552339878884 -0.17941080726358136
Ni 1.6867657330860295 3.785120984848371 9.751311278707881 2.5849444380443614 -1.3573964304993913 -1.1460008427990975
Ni 2.9391607901525796 7.07981324119698 3.3271582019403656 -0.9698388814901169 1.5062571328902574 0.12205206683845432
Ni 7.674360434313428 1.2517798539631748 1.2557926560238268 -0.5135336334924833 1.0694503599368679 -1.819552480850847
Ni 3.44996579113686 0.554535688249203 6.595940154251821 -0.7064591874130478 -0.897446643770635 -0.701748926421572
Ni 5.02518401606999 6.840387378874311 1.502896439501801 0.6377019753429921 -0.5659833666517673 -0.4302093222415301
Ni 5.395843885853566 0.860476191557704 7.786543652339815 -1.1729550027904379 0.7159090199720379 -1.0826115799091742
Ni 1.4468178802514062 7.370757702797753 12.338698934350507 1.0673268858359617 -0.155292574059139 0.6128617763708607
Ni 2.4099369811036104 1.190688321546186 10.392622296814075 0.8965223321841528 0.3396807799326537 0.7394407845453911
Ni 0.5621986953898814 0.3049524498394439 1.0016485255158631 -1.6448341939669284 0.7311908858317729 0.828362901599096
Ni 6.990823180167839 4.631537921242122 10.160261948921079 -0.006646558782240165 -1.941124265618773 -0.8602255546356475
Ni 9.095078788967097 2.5454867315472858 5.297300466329738 0.23405240586786144 1.3762765552333458 2.076585406774282
Ni 2.011807360628417 3.709758604684905 5.636183231572154 -0.08445328264907392 -0.42873710857137776 -0.9045979101034356
Ni 5.342116148158795 6.872452510322961 10.394464177620545 0.08748512749686223 -0.44045079746388016 -0.16035918994876897
Ni 6.29490729388161 3.293061035998751 8.13443075391345 0.5393125422288002 -0.19643125308097786 -0.4630577362301187
Ni 5.228928098396896 0.7863470139787316 10.261694958778941 0.09662745611776262 -2.521673703010173 0.8490245437135054
P 2.561295587052201 6.123871509884154 9.40773619161336 -1.118432189152209 -2.052734311188297 2.191879843173928
P 9.309011007536261 3.862170512916547 10.796062238622495 -3.6745332206023167 0.923535627548203 0.4989091987110892
P 1.6157377384236167 7.886027586911075 1.0691465593411822 0.04430473545464628 -4.074683518674937 -1.2542782244509625
P 6.417071716197302 5.705244440555594 8.348360176104872 0.8119548925547178 0.1977944519770916 -0.7441057941212281
P 6.38721572316532 3.118557743600453 0.9723713826766018 0.8101134684706048 -0.4925418617321646 0.14523467560250472
P 3.3380361113591364 2.7573216668094895 1.8397872516655613 0.5191162697865833 0.7550669211184221 0.4956115017964238
P 1.0924702139664169 2.908987874309767 7.496843578834506 -0.42301717536846495 1.0291305772718986 0.803883685510809
P 0.11863539360451335 2.277081074551987 0.26560368649719857 0.31347918183662143 0.8655582797024706 -0.18952295599691876
Ni 7.001915478546877 5.782405823733475 0.3435834762277514 -0.4856021971895379 -0.9845311933949689 -0.5450718133100806
Ni 7.463597443852559 4.363812716164193 6.3375762897302526 0.5534014162216986 -0.12241304972229886 0.25997349660899743
Ni 8.037367550341381 7.488317423097274 4.705661506065609 0.9049840897982607 0.7420697375278059 -0.9240971564786279
Ni 6.106468719065949 8.022798422302358 8.466873461214625 -0.7670783437570015 -0.3761361945462103 -0.9726316137439054
Ni 7.839346721127694 8.651069930994739 2.6405402716483297 -0.593853610699474 -0.14364162008377196 0.07436787338861385
Ni 1.3566906256069355 -0.11436905329519756 8.70628720590041 -0.02490653343369259 -0.6908590189819457 1.532461302089451
Ni 7.8951064933154305 3.3795902846143906 12.789668908650146 -0.07845592741505843 0.08169423184669801 5.245050449023225e-05
Ni 1.5256943751114243 8.310424515648561 5.375691323588456 1.013368172231319 -1.3073779324894192 0.7003700437961744
Ni 6.24295991668297 1.3357737200921775 3.088739967730953 -0.6324042172791625 -0.5036428567413326 0.8067340104754107
Ni 4.434933923418027 6.324670074322172 12.763503202112503 -0.13230202670123667 0.16508744866237376 0.13286201296976474
Ni 8.712767345255962 4.934600019727559 4.188947758911184 0.6162638600738741 -0.087074779432321 0.4309575132614643
Ni 6.6288507239046535 6.564739103525642 6.046129412261723 0.15007966239963186 -0.8904177619483117 1.8505702693886001
Ni 3.123563259759733 2.87183333536956 11.996460515816953 1.2034143477215598 1.0085560955546566 -1.2244757963775492
Ni 8.282964086216086 7.086822828071801 8.615673381528723 0.32359595855564915 -0.3950122055151068 -0.31847894904405794
Ni 4.399764812675076 2.678780737278585 9.27635770463575 -0.80931616938029 0.6634536303857993 3.820913322663175
Ni 8.007287847089989 3.981044530755097 2.1198696499881042 -0.6234344096803844 0.12924807036626126 -0.7120395097143027
Ni 7.821030446913568 8.725928963164534 6.74519029138248 0.7662141959844934 1.1625142670730881 0.11692785823801152
Ni 5.121481944266497 3.986833032682309 12.385098298107799 1.493077658085506 1.5792180986290156 -0.20931093725712338
Ni 4.295087072509867 5.250357673164466 8.398565409969862 1.194134979302163 -1.1175904099772043 -0.3460738279431911
Ni 8.250386285514624 6.979935949489926 12.100212654949356 -0.12348597107150347 0.9454609668663845 0.5084199664150019
Ni 2.0221912433126596 4.903019593754298 7.671413984298626 -0.22416162911671073 -0.02340218097402421 0.09690462103854924
Ni 7.49248402593377 8.802391251906762 10.319266783743894 0.1233504739349037 -0.3950430587530422 -0.3742268933386394
Ni 6.473418727710988 2.1401331352370048 5.678993910559757 -1.1835196656801616 0.251444890312696 0.5631453829823398
Ni 2.5255019519467328 -0.14646121639535778 2.222707373598673 2.076518558092088 2.2728647076584276 1.5836445098314855
P 6.613899424240807 5.704433491010237 11.781507619371734 -1.9171577275008465 1.537349483419688 2.726671614714239
P 7.799777976069696 0.8140600495339573 4.7447483420259635 0.10169612888992162 -1.954339992978099 -0.35272424338017316
P 4.993025672029922 8.65912349889347 2.5391892888709173 -0.17333580471409504 0.8626254223263917 1.0631406156687562
P 2.2403739560505986 1.4081999036258979 5.002702071145282 -1.1222379360515444 -0.41500150415284015 -0.528529078460051
P 1.688993514020979 5.476789700243119 4.120775798049896 -0.8627393221964367 -0.6814186995046523 0.9281332742212145
P 0.5766429185564004 7.88504885470116 7.308711673444618 -0.33808026821475323 -0.7527063913060456 -1.5308186242797055
P 3.6964385253709175 8.910033152479143 12.311782866451926 -1.3856109452603944 -0.33354355668666424 -1.977028178604234
P 7.081696135543674 6.217792516999438 2.498015422988659 0.4347411486736125 0.11020905145693922 0.705855749501094
