# total energy = -381174.43754998315 ev
CRYSTAL
PRIMVEC
9.18286475486042 0.00000000000000 0.00000000000000

0.00000000000000 9.18286475486042 0.00000000000000

0.00000000000000 0.00000000000000 13.44005078693036

PRIMCOORD
 96 1
Ni 6.169489138587232 0.7665506323313243 2.6942597862207 -1.0425401658095852 -0.24356934421936116 0.5160502292667499
Ni 8.868672776744845 2.5011918969943143 5.039494504232274 0.5505793733918711 1.1432356213491341 0.7044580978226189
Ni 4.652792143040771 7.566698701453538 5.607135108951789 -0.5185233733975908 0.4544321993446367 0.46766592442609134
Ni 5.282167309120735 3.47969957079788 12.222851772895856 3.2367874807744257 -1.650539214771506 0.2520796956832175
Ni 3.1301997484948743 0.7251662169563121 5.859647353136039 -0.2919271666974585 2.3729011894577394 -0.4849828184379841
Ni 6.934238092906579 7.270588053266918 5.533605158160227 1.0636157555329617 -0.4380761265841165 0.4480406939959961
Ni 1.2691269690280942 4.834943442967267 4.5496722480188625 -0.8426523216385745 -0.13911159342390234 -1.6802639955294483
Ni 3.492298460871441 4.543690530093267 3.688836554586747 -0.6428994603835314 -0.048862787138973914 -0.6418041704368237
Ni 2.214677342194627 2.3540364936205442 3.864605763696096 0.2755487253394351 -0.16900992364523149 -0.02290107296788959
Ni 8.249802807635838 2.297598608495104 8.437542798887966 0.7941515458247098 -0.0787145803930838 0.10635291093564263
Ni 8.030258883526004 8.416857478348824 2.1958625711511 -1.7749978341689236 -1.0375982484232775 0.6892806187512323
Ni 5.675285737727978 0.6292025282276442 12.074662378981065 -0.19910417192745064 0.6507212704207954 -0.6429416264753766
Ni 3.553061475169365 6.87485250828142 8.982214304670896 1.2832244751716673 -0.344546078444755 -0.0976175879451738
Ni 8.82846101316458 6.863943265273119 9.923729727182675 -2.361744915730603 0.18119592418846214 0.31761197305807237
Ni 7.8236168840177385 6.412532012914443 0.4562451122236331 -1.2858621699048307 -0.4934368627426083 -0.8691164293673741
Ni 7.049290202040431 8.579311533954776 8.303975280092804 0.30786852051806335 0.01127583002413542 -0.2756916786752026
Ni 6.344973678897543 5.802055181944821 2.5705041581278687 1.232676844131103 1.1040083004173953 -0.33551199326694475
Ni 7.15881422675425 0.728461028733567 10.264220241139347 1.3126319817995074 0.9695938553588462 -0.23180011949857499
Ni 2.9537050930912017 3.1711277755049765 1.3204261231876713 0.48882378945062904 0.3712747526888509 0.6155874028321399
Ni 1.2567025533797502 6.793510694672381 8.467863699131327 0.6525575522985858 0.28423519736983954 -1.427849027993999
Ni 1.718113945162702 6.048844664981954 6.389816361037645 -3.144368920531688 1.1918207293466894 1.3545481624173188
Ni 3.342617769764268 0.22106093332277263 11.23854328359705 -0.7659861391340872 -1.8808465517746382 0.3035868624235739
Ni 3.0741199950843523 7.626855646695445 1.5669759334617435 -1.0383796066739923 0.43649386969866116 2.0484120296638597
Ni 0.1918970740045352 0.07487891358442388 8.975117786996808 0.016029285548720778 -0.35842206509589886 0.7147916185381432
P 2.017117195662129 0.10929720796103704 12.91070066515761 -1.3626674490903434 0.003685162161071073 0.3476051769860529
Ni 7.960092615995334 6.302365187686667 7.6445124585274 0.22048675136828477 -0.8556896144385071 -0.17048419419791286
P 3.173386760168312 3.3341328029800334 11.02709129967149 -1.726049172184363 -0.505585068069368 -1.2987361976540213
Ni 2.4349007982763577 7.3917926816057875 4.5076992110303555 0.049392948610831065 -0.8746597277831066 0.5582608011965288
P 5.670574928247121 6.330666776029753 7.708998206087585 -0.11451179259735117 -0.26252608782752207 -1.936483681522968
P 7.2615429317490925 1.1248917165605872 6.675135306881371 1.0344771862957924 -0.5881077093546323 -1.2236707839777505
P 4.29388906750502 7.4574685284032425 11.074050632075409 -0.3579147864421771 -0.8885539692666955 -0.14548947192578815
Ni 1.7962325733374702 7.57269511196231 10.543128629286024 0.7028210764398284 1.3997658966045377 1.1530088986858142
Ni 3.916317228471055 1.7624671806257477 9.753148836507409 0.5658746089880449 2.756658390884317 -1.1039008283052536
Ni 2.203143664401338 0.985918245443044 1.5458479988544194 -0.6444503498104193 -0.6018564263992926 -0.13087172201261332
Ni 5.592970540483519 5.072550061519298 4.701316235552951 0.5760798316558207 0.08553083198396884 0.5157452964318214
Ni 1.259264572571094 1.388026698381203 10.746610805124964 -0.07616533160866883 -0.3561127002364318 1.3031957760872717
Ni 0.3314426375795003 6.016061838770137 12.010593533468503 0.42135829960880333 -0.5691319395830778 0.7812430652931577
Ni 8.011709497266096 1.3740962929573022 1.2703262511298485 1.3957866002418156 1.092996265577608 0.27052221865912124
Ni 7.25867787802974 8.694409557411051 13.384811958523459 -0.40123427516541865 0.17334094692041763 -0.45623608532259485
Ni 7.960790513696202 0.5425612835242524 4.317172220406998 -1.2913483898303824 -1.0490193457760257 0.5331480652893011
Ni 1.9834619973242278 5.261166098043305 10.37558451189598 0.5053032751628911 -1.180845204171792 0.28998829780353286
Ni 9.092927510335535 3.5359813472270742 11.116198143489132 0.7007778207575543 -0.6099769986238979 -0.0817587665360463
Ni 2.4090694004797646 6.986369214588506 13.072196029711314 0.27607220194307297 -0.6823206424936313 -2.501990108538317
Ni 7.2643437054170485 4.95556036797909 11.349544831206522 -0.5721355022960921 0.048391761039826335 0.3648997024004425
Ni 3.52170199295274 4.568530178525469 12.594240789272002 -2.805289521628459 2.2144003928739475 0.9744316430671217
Ni 5.599591385777277 7.867308953237857 1.4616723532652776 0.4012463593502767 -0.5523459783739906 0.889936451436519
Ni 4.937139541821974 9.085186355574594 7.492303724827479 -0.9639392281762303 -0.6721722412057198 -0.7270773778840317
Ni 1.9415054894917938 3.2034881899504786 6.098436724633751 -0.26005577191015855 -0.5116202185198544 0.657712614136964
Ni 6.284522881992112 2.804162144951305 4.014153303268236 1.0749005844181616 -1.1917852481230637 2.363820824423026
Ni 5.301295215843204 3.766645720228367 2.3277496257454895 -2.07806121998886 1.1142014389003132 -1.8714453130653963
Ni 7.439194628077887 3.666690240308025 2.2373112665775077 2.110966198246997 0.20390802107399722 -1.091798645725081
Ni 3.6437330790952687 5.5826765493957184 5.862576686906786 1.9362407122742267 -2.0057342882896747 0.058964394349350066
Ni 9.107629276376185 8.70103040270481 11.783456298715938 0.2281085295796007 0.5657900196940385 -0.9406028674431349
Ni 3.9825532300021003 5.389726200834742 1.2155486279033143 0.025067741601905214 1.2267697346180486 0.6471237828775243
Ni 8.88302559393506 8.320455766984217 6.812049061494906 -0.7068528233070407 -1.1893717535855646 -0.5576833314265041
Ni 6.785218568042334 4.601101798854128 8.97874685504132 1.175548474549227 -1.5196163278059829 -0.1804004248703603
P 0.3428495918428948 1.4865221028484137 3.0525310806798758 -0.3484654681038192 -0.9143213080387866 -0.28948718979739824
Ni 1.0086642007726432 2.3463779846399686 13.097369016124327 0.35420751279391904 -0.45315616084569055 0.1143960929550933
P 4.265890513689942 2.1103416359148905 2.8616156548887983 -0.9345823722806679 -1.8742691556674367 0.6987731316226997
Ni 8.508860597625068 3.974536589306606 -0.025484285519056817 -1.8853416114315142 -0.16718675439356367 0.3557548026763809
P 2.0270071407125845 5.7106948631825345 2.409398147028331 -0.28310674019235116 0.10147424268710266 0.47327709996528167
P 2.8439331310362843 8.229012802441565 6.895310093781332 -0.9203531160551633 -3.697499085369871 -0.08775612177006177
P 0.027881013149668607 4.214053243671537 6.718076217786608 -0.4484250739186083 0.21663369617078174 -0.307559988138709
Ni 4.344404005037569 6.846302982597236 3.2897345714810102 -0.46152124498093416 -0.8842345159557352 0.5404111746096176
Ni 5.680244484549934 1.8267655977504365 0.699737028624166 -0.2452477603630486 0.6665016731835038 -0.37075461851932273
Ni 0.46314787145708475 8.114741236788948 0.5819970950555255 0.5959824841170188 -0.32059188162200275 -0.6400414221094461
Ni 5.076278304500249 9.030061620070523 9.785458745198241 0.9012223087629834 -1.2434171133667424 -0.18027958302177982
Ni 4.914200746338188 4.105061825097854 7.650977195124913 -0.6895102182635351 1.1061240612088177 -0.6346996981815585
Ni 7.936529385726561 4.824621903286012 4.374306166660409 0.46917721886429525 -0.08485566029381515 0.4658831214940557
Ni 4.162913871354001 9.062063902801105 0.2196329978953392 -0.1997333208710173 0.1024152664441333 -0.6356476639171247
Ni 3.325161144378088 0.17129899067800147 3.4975446313517797 1.176516494889451 -0.11065796606889974 -0.1786469325143633
Ni 6.129607958128432 6.707063208409624 9.676486610639977 0.029188962859130377 1.1645328401650137 2.035046921210863
Ni 5.392747363250341 0.684076571531272 5.226271212999915 1.5001430495727197 0.29721798278275263 -0.6458631709975458
Ni 3.4883865606007873 1.8964084420054548 12.726679734021946 -0.4252020988349258 1.8367585603164882 0.5632312578279268
Ni 0.07385043276209237 7.009142718511561 4.585315536517788 -1.2424035845005634 -0.9678455052091718 0.7168572428179203
Ni 1.3175757620514956 4.747697047494306 0.5610647554617342 1.2311403528819183 1.4147608273514731 -0.6962704198055042
Ni 6.918856794894032 3.4872846168625746 6.60935936686103 1.379229724324399 0.445273158553188 -1.670018920762672
Ni 4.690855116331521 4.6426818092426725 10.145437134165197 -0.7070065752760857 0.04718488521591873 -0.10607703156643666
Ni 5.913507608200511 1.9528187785374402 8.071636870895876 -1.4528784601588012 0.16853555511197427 1.9143791363144447
Ni 4.3173329205354865 3.0198400831129106 5.413988247090832 0.11779149178988746 -0.11650002667197357 0.2943069797835448
Ni 5.355198630370757 6.452266267541482 12.848567567478508 -0.05814858331627405 0.6672727470215735 -1.1233252555784523
Ni 0.1443757502941291 4.465424976086736 8.97920324340623 0.03258204770107937 0.7061393421797839 -1.192701589289746
Ni 2.582065384514613 4.339812572795018 8.115061718759478 0.20209359357307774 1.906243651691504 0.34583831489361727
Ni 8.877010817697318 6.052003570364829 2.3590916605195935 1.6662957062748143 -0.7810841711177903 1.3456619156712823
Ni 0.5711438675205828 3.583649596769242 2.439543654560026 0.1356542310029212 -0.3033788601778259 0.24883573482462307
Ni 0.8974395095561831 0.9444208808348652 6.861562148512131 0.6573151215882292 2.4047296468222457 1.4221640617940798
Ni 0.9910055523677908 8.271373356311344 2.804965645593752 1.1182828080585387 0.3455423809197533 -0.16073225701747157
Ni 1.6300227261571125 2.407058353157527 8.789403535650091 -0.4582693137025398 -0.45010760382735376 -0.5065487175342179
P 6.1866886437678295 4.746181874854265 0.4261776590400616 0.7349909763041536 -0.847852120671959 0.8071075917647454
Ni 2.66684158944108 0.08933090571107839 8.67095560322965 -0.7263284155331491 0.024205136491293796 0.7775000533109577
P 5.986015506174882 8.003665307977146 3.7906047319564484 1.206574490617096 1.1570835829758201 -0.6092216085151121
Ni 0.9141991555279438 9.06419432736165 4.960239037434249 0.8417606630622406 1.4892675403107964 -0.8803989442597289
P 7.596074684941381 7.0697771727066945 11.790283758460612 -0.460511058548865 0.8076727202395961 0.018128077059278457
P 3.5709221465928898 2.346497361878275 7.493943784424517 -0.18500629907348784 -0.28835770417864537 -0.04223859695423693
P 6.2903999152625785 2.860563298618805 10.389709594046964 0.836966841218023 -0.39023638139301825 -0.7896040356633433
Ni 7.929541225853399 1.7340921293667808 12.363475404761372 -0.40041794991171037 0.3131215413868865 -0.5086415955075047
