# total energy = -340864.8809537396 ev
CRYSTAL
PRIMVEC
9.26413974600346 0.00000000000000 0.00000000000000

0.00000000000000 9.26413974600346 0.00000000000000

0.00000000000000 0.00000000000000 13.55900495187074

PRIMCOORD
 96 1
Ni 2.331589429192075 1.0928349819619991 4.630034545585623 -0.4254720646668608 0.8659881681510377 -1.4903386618877883
Ni 1.3697401192144165 5.158263750987243 8.365757212829505 -0.0445531040200265 0.7140375139809381 0.21270839297444658
Ni 6.820083668371422 1.6193901573100384 4.071959061137965 0.9650304043578799 -0.14074090149720925 1.197208476021164
Ni 8.665963514391635 6.189751599497066 10.552146073998427 0.18302886363214282 -0.16101302148268398 1.084790332728048
Ni 6.029815490780917 7.962240930384672 11.314270721429711 -2.128492894276851 -0.21765776655992194 -1.3824806271615289
Ni 2.353378685893905 6.563967260727383 13.289967104997286 -0.017898477546975627 0.4624090469025262 -0.13915170263321844
Ni 6.162894858349701 6.913836762683716 7.054763783038267 1.7908869945953543 -1.4415532649539688 -0.2037514408914749
Ni 5.949282323897837 7.983316848325429 4.6228752183835935 0.8507289279991219 0.3096981175276343 0.9786937607775854
Ni 7.074764134353563 6.614882972816352 1.4955443578342442 -0.030362671452257385 -0.5965946637797209 1.3419297023223598
Ni 4.365003256256137 7.974525179698713 6.766255310743738 -1.8297949845144617 1.5446573299350106 -1.3455436449258633
Ni 1.3524810268523806 2.4089449961394718 2.6082509195689574 -0.9173562382103685 0.9247635864180331 1.147647377263585
Ni 6.946780043649577 2.2100902363160144 6.568904120802385 0.19865062932979982 1.2821903774801982 -0.4413596824313947
Ni 7.414248535645461 6.891121092006468 12.678022500707026 0.9794159836555905 -2.3296079259867426 -0.46053471269794877
Ni 8.216791698410255 1.69454085899594 10.169104466824306 -2.8932670153807076 0.9137047575007102 0.9261504394632307
Ni 6.089949021925293 2.89533086151339 9.282372507629434 -2.5821460493636175 -2.5698867723802903 -1.6678067436027018
Ni 7.757494177677556 8.912426688411818 0.24721079009834657 0.26885948624471756 1.2966595176306508 -0.09904866396474554
Ni 9.337048534044625 3.259439346271896 8.47963942999968 -1.1593350980141581 -0.08889126381576948 -1.4217259458153968
Ni 4.776006816450299 7.416768381658598 2.609593293419338 -0.8183649098461196 -0.5492331437766218 -0.007132754390039329
Ni 0.8427087670830123 4.941825653910353 3.4910233854328934 1.6926307446249174 0.11879293647120831 1.565548571561723
Ni 7.756475122304596 4.377009581377554 12.035297792083506 1.0838482805297527 -0.051174208880969935 -0.3952937413112676
Ni 8.277444021380866 8.903264454194934 11.388235613227078 0.6856746465675289 -0.44187544572554865 -0.48443028836862384
Ni 5.842448264252641 4.540160346588404 13.169902000955174 3.7299497496994083 1.3058206153046286 2.1838700854955744
Ni 2.7116137060482615 6.891185940984747 4.776431114051041 1.0582565481035775 0.5876875910980782 0.0334564798862327
Ni 9.111726126943475 0.5875159941724648 3.6029666181525184 0.11063662591266107 -0.452809319029233 -0.40813820137410356
P 0.8890498469613677 1.3844423090042988 7.923407509363102 0.22800002902619446 -1.8736796017125539 0.25269547489034544
P 2.477768290373269 1.1782596146352857 1.3973231689185095 -0.9354709455332082 1.0343283194227542 -1.5129939373934589
P 7.072818665005185 -0.045220118968099667 6.404473977891483 -1.5089971575292398 -0.7692486119354429 -2.7631722807434347
P 3.8558090788074306 4.311345358799931 12.90814558502879 -3.349136718502819 -1.3900774656721802 -0.5801108071920849
P 4.022582122662165 1.992049443061652 9.261288251962897 -1.0937192597865615 0.6519584852620062 0.47171721167732955
P 3.2537326361833214 3.4111952195851063 5.1036368245127495 1.0476276076348214 -2.136447630347553 -0.9276193106992733
P 8.921588922628702 4.035996597026216 0.34989173589174294 -0.557896990099207 -0.27992602847152437 1.7318647504248752
P 0.4996697153674357 4.11766925309906 10.361642009749387 -0.12785864621790236 0.0009939884821531268 0.17572178844776834
Ni 3.58599100846696 3.0093261011885653 2.720858391108957 0.2748339586605977 -0.07967900118888213 -0.6083363776966814
Ni 3.4125570481289706 4.956194334669085 3.613515694090602 0.608747497092171 1.5403440472716374 0.4229423562664716
Ni 4.033541599991358 0.8698545493907083 11.26111957241806 -0.5905415156071055 0.3001616387921089 -0.21703401693299398
Ni 4.544106870123685 2.2085523891168206 0.1635704307417148 0.12402204608063158 0.16870833324441267 1.5032453426471273
Ni 2.277097759157993 8.443818707226171 2.8600011381468518 -0.176656898667528 0.5597782662823199 0.02194539392283962
Ni 7.4318040804796315 2.3389451561568935 13.167719369629088 0.34299493190755126 0.35162226856524603 0.6325026905302397
Ni 0.1741306236475037 1.345644091713796 0.6865098123436979 0.8385897215334267 1.016090456258489 -0.3041705028411858
Ni 1.413911537562343 8.853145458124827 0.39513686803717885 1.245543672791442 -1.4913573329602896 0.6034515388005542
Ni 8.188767675653862 6.973451502001859 3.736523088918643 0.21261274793684673 -0.27858391262133314 0.616067684902668
Ni 3.570112272928297 4.111944014730978 8.868917656056315 -0.2777084519949153 0.8284076387941024 0.18574163457761558
Ni -0.15166415832964364 4.198823117345671 6.090880994384564 0.9611866051317576 0.5023727317796575 -0.3316525103115385
Ni 2.4179219475612714 4.895542011698474 6.317913561684334 -0.1447561933041894 1.939773922238466 -0.21378388542681245
Ni 0.8334640820223168 8.275618985849292 4.973036540742183 -0.5095705350796772 0.7836519318449664 0.8058174121984121
Ni 6.924610957217826 4.815314561427282 5.46583782289587 2.180064595706555 0.8437874636842823 -1.3437140479162923
Ni 8.25521935011059 2.3019349178389477 2.18957572524436 -2.6881840001620025 1.9290004857720455 0.531972042703329
Ni 1.9899464833374534 4.313689186157739 1.1373714074162402 0.2977440304895517 0.37837716806158705 -0.2519624533790628
Ni 4.268174467545457 5.279253416176823 10.969654913127973 1.0134111096541127 1.1532372126465364 0.12438868539143093
Ni 5.475106594719926 3.045511831068389 11.78655841892572 -0.41277287193263745 -2.4514180520177202 -3.7574297002872323
Ni 2.764947358613071 0.4814082430839976 6.725483831685596 0.06682014294834299 -0.8707701629207133 0.6768002268960345
Ni 7.946899514951751 0.6012287738366009 8.110928520611298 2.225966243334676 0.21439889330299206 0.4903024308786846
Ni 2.5510291075493186 9.467950828771176 9.107135745695281 0.7533774492311411 -0.023044283413973216 0.09095071744795949
Ni 1.1010337456444477 1.761974532266611 10.083967948897374 1.8359918573537926 0.8646658497951882 1.2028121953611866
Ni 2.5664261078207646 3.656657866511839 11.010928508560793 0.6812667473078202 -0.944246120622677 0.3321340779336473
Ni 4.100428689016533 0.8661109105160444 2.553350700971716 1.0001362469220776 -2.441790299119969 2.2563188874846047
P -0.020106888922470607 1.561739415619781 12.198264200913247 0.2686597115290857 -0.8505898313180964 -1.566398321156528
P 5.877392599405406 7.792262494174991 0.3550453768369929 -3.100942473916937 2.2779639765582056 -1.2218753826402247
P 6.379249578168803 0.5253702918734797 9.529390603620893 -0.4749624580875046 -0.4065410320903127 2.2559607328142373
P 2.6527400979104527 6.423763769687635 2.3105218489770962 -0.8340800065885312 -0.35142352229087864 -1.5500455908301176
P 0.8184793359699319 6.2757413446953585 5.700449382928533 -1.3064610771021048 -0.3456701647468692 0.5800539858122203
P 8.54534441479222 8.31181397986887 2.065619682505491 1.1327601757391073 0.6162520329993322 2.0740762671991826
P 3.8316204099092683 6.131044745874832 7.79273959737233 -0.5759870148316983 -0.21697359600870378 0.9756842845273004
P -0.10850531045684884 7.650335873140965 9.2392414521759 1.544853762216533 1.2943121004443967 -1.669134975495822
Ni 7.534256202021099 4.28483139082347 9.69719659905822 1.3146698381651423 0.44953296227080647 0.837284629568758
Ni 8.210306800582329 4.843153301388591 2.46300681008896 -0.9616604594443825 -1.633500257011348 -0.6926528776575749
Ni 0.41438033913455996 6.469797280126151 1.3783817087771146 0.6154534483574368 0.08143635019962103 0.11594081173439388
Ni 4.695890535856157 5.624527904815084 5.843470098867527 -0.3712775809023284 -0.8545423882079413 -0.943172427942524
Ni 4.571176686485396 5.961177479342203 0.530418321625532 -1.8025034957883603 2.799681174302746 2.0662418587564284
Ni 3.7920347407396604 8.976553063790247 0.44892538986391894 1.4869103529325296 -1.065893752933861 -1.2649498452321957
Ni 5.185870887454697 0.8642571561512331 7.748727522228177 -0.13974485613252707 -0.7865403091363551 -0.08591238369310365
Ni 8.0944216763973 5.571305421927324 7.9878405277673945 2.0731540124952295 0.2523823145253008 0.26560446964252965
Ni 0.10619390758818113 1.6906313920196765 5.873706398197218 0.008864392369165378 -1.1353845007358316 0.40061952439955517
Ni 6.961954704566923 7.692682255957318 9.011721591125061 0.8933210516380357 -0.15670590946689786 1.791988198079333
Ni 2.234760640481394 2.712771723517534 6.962508700124222 -0.9532917757647132 0.5870658983536793 0.2351448676010918
Ni 1.5474448479790823 -0.1719841224664604 11.463257543370396 -0.6534564099637714 0.16538441107750226 0.97443241439807
Ni 4.813026318907999 1.6277278830887996 5.444685939009128 -0.6639210569405211 -2.1606823345252013 -2.421467785512533
Ni 2.0768533783714087 7.5749350396817 7.560704394605305 -0.8011215493846396 -1.0152918716165935 0.02442805113537728
Ni 1.8072669115247932 5.87033332491272 10.611481036295995 1.6498131352387588 2.4714466885338213 -0.9347242971751708
Ni 0.9179502573385052 4.867999724209299 12.38423902723647 -0.6644041672245267 -0.3926665881010657 1.3377922831152187
Ni 4.521872934713655 3.0753145686575842 6.993260085624246 1.2610751927681378 2.400431019446892 0.8584836322438764
Ni 6.244335910928691 0.09038372668369886 2.2779945278861975 1.7096853861143588 -0.8228656259299506 -0.8838457651577487
Ni 4.617200932784159 8.089715493402178 9.268664360035174 -0.09340226431224559 -0.3153856548307149 -0.8500067051211166
Ni 2.303973028584867 2.111936675620486 12.800419388725269 -0.8235407976201042 -0.5730785829356518 0.5004487752840672
Ni 6.043091003048655 0.6466610416050714 12.480941823646495 -0.6459565020423005 0.044806100571097025 0.5822257966525585
Ni 8.393607069758518 7.541074608880176 7.112647054636353 2.155824749322584 1.6654863229996413 -1.7031159604269572
Ni 5.542531003850843 3.6751305611816725 4.170153384048413 -1.6903812864691081 -1.375151440489967 1.284447548945491
Ni 5.806049459158472 4.466362209306613 2.1134282021209083 -0.4208332803432688 -0.5623406276928573 -2.7643233636287428
P 3.976205839052743 8.855720888976487 4.599539776756791 -0.9800849846981572 0.1562600801787309 -0.09264276043840174
P 6.163274688079622 5.799481184072758 3.6604700600206836 0.2733242068842906 1.901686885558757 0.37786628986343956
P 8.894759973900598 2.9288670474235188 4.185773650087934 0.06070348852764384 0.2768137080947877 -0.3078523225681472
P 3.238604295964747 8.086454516208706 10.854946334691727 0.39384363912830234 -1.3570254203132177 0.09177835555557742
P 5.724200784430298 2.2448770810929575 2.3177358346036754 0.6485512593526702 0.8259974866907128 -0.45900259232413854
P 6.569720291514728 4.4524752638150975 7.370485665860694 -2.4489989010532662 -2.389632386169491 1.9903256670440885
P 6.507752460699023 5.808143154742916 10.764873883103768 -1.295650616750162 0.6597327298907865 0.7898657739651622
P 0.18805833135393676 7.5523490669610105 12.984428364592652 -0.105025964594103 -1.475548133842175 -2.0422516664894186
