# total energy = -381166.1530734175 ev
CRYSTAL
PRIMVEC
9.26592644670197 0.00000000000000 0.00000000000000

0.00000000000000 9.26592644670197 0.00000000000000

0.00000000000000 0.00000000000000 13.56161996894529

PRIMCOORD
 96 1
Ni 2.106200633645131 4.483105302872 8.730401121851369 -0.3724219789194167 -1.1159428470714523 -0.1895476385872671
Ni 4.173308324414364 2.68167024972726 7.351713761637577 -0.8532198127417758 0.6804398805311508 0.5012206204530851
Ni 5.238241229066396 3.1821414586898076 5.254517755128449 1.4451029299784404 -2.1809138310807277 -1.6573649794440877
Ni 8.752186241072872 1.3907043399757613 5.4229658083220516 0.34990014366781674 0.08351482999520456 0.5532556346724536
Ni 2.046361281881076 5.708301668055325 6.726292463699634 0.5630355968773529 0.18127254306266846 1.2010173082442928
Ni 1.7947728521663628 4.510791890526226 3.323193874313635 -0.2670915957110174 -0.6254822933483486 -0.4778071266251513
Ni 7.5920830078409995 6.8384296298476315 12.835896764958015 0.2912406821533952 1.8035242237433906 0.2227187260225971
Ni 1.3277701688420573 8.894529400224222 1.785590319246236 -0.6264202317815857 0.49481214582358 -0.5350787066531107
Ni 6.191482658623366 6.259670609944468 10.119409797322204 -1.6933136296245548 1.4750328847686534 0.6648749362133581
Ni 3.007571408018579 7.547754816630216 9.82013149835087 1.530669500296351 -2.836052256732612 0.7106760537078729
Ni 5.909149885589803 3.8200634177403066 10.22914986834766 1.3890798776456013 0.16244332617130733 -0.7609961421186635
Ni 4.980917190998951 8.928044255493745 3.191387926501104 0.49306148168106056 -2.8624137774452767 -0.20383268775137156
Ni 3.2312971974801936 0.44685114690181155 9.890543271973518 -0.9432436475000916 1.7130262775621337 0.29072620441082186
Ni 6.75571270615644 5.711220434826103 7.665502501126484 -0.029312375810872097 0.44193278132604535 0.5366293389696822
Ni 8.379640410006662 5.668745428866606 3.319423568919892 2.8184309441064235 0.46835909383837404 0.6043699368497656
Ni 5.438181385827743 1.3603954951909636 11.14965848681115 1.5830966077478155 -0.08750826742531381 0.13910208034220561
Ni 1.2978597588862864 2.017590580854846 9.070323479753924 0.21211395392355728 -0.5724430062341819 -0.9233859893442162
Ni 5.741696066283516 1.825517195485213 3.0245123009932184 -0.7176751107335253 1.9186751925866377 0.6242882730402475
Ni -0.001295376490649562 4.2924218064408315 5.02451244744285 -0.5805607502453098 -0.27222248917967956 0.5990135576338587
Ni 3.2241253705577133 0.6477234558445554 2.474045860321452 -0.9682802787537453 2.3139869316200343 -0.5613895766334978
Ni 7.873822761594151 2.601853560954332 1.6314766539713383 -2.2181567745925865 -0.5608527302934211 -1.5854501955816567
Ni 7.3973225038570005 0.39390286449466705 10.220158213508416 1.0289732257584279 0.525319827494134 1.2237420035353181
Ni 0.9710598057480933 6.892227597692491 0.04776214348141796 -0.27282181332657535 -0.7950308631058695 -0.21202679352638967
Ni 1.4092917880461693 6.370778331685376 4.803417254445437 -0.43358749468514357 -0.8143375338542815 -0.48220397014126637
P 0.9494053360868054 6.6707534283111904 2.2102727375795275 0.5902008444382351 -1.4627152437435647 0.9828615190020299
Ni 1.0264051832777772 8.65374504052451 9.65014993436183 -1.6173712126599695 0.48457709835913315 -2.6033933887781684
P 8.926747025817845 6.828190781334271 8.492828332192138 -0.5119830011759118 1.2318726030622524 0.36409314733874715
Ni 5.321106407577692 8.803176633262032 9.634446042542425 -2.3521706417786072 -0.762890530927899 1.1223999155507056
P 4.5883754910713535 6.348086078283368 4.319362487031415 -0.8169965687436834 0.4068541924553573 -0.8715805746371506
P 4.852667505683639 4.74067952094837 8.06297923337826 0.10850389584037441 -1.1920387588947663 0.7119734323630578
P 7.360573840323981 9.107719831532268 6.4021286665813975 0.9005134556214167 -0.2501480258781434 1.1089689868567805
Ni 6.113963919562034 7.9565582171378555 1.1564450455458322 -0.544750682525236 -0.6033741485953995 0.048531886162116414
Ni 6.899575477213844 0.15928497871861394 13.051919789922657 -0.4538696419729474 0.4942984394119551 -0.80445344197135
Ni 6.5644547222973735 5.228864111694885 5.395395044746031 0.9200242719608349 -0.6947123312897648 -1.182906714686511
Ni 2.3066967459818635 1.0208826912289422 13.256727337746508 -1.3825114803994643 -0.5669974097385784 1.434851170343445
Ni 2.8368189189650015 5.79626310600766 1.3784575652426316 -1.7155495582046196 -1.0603154875151353 -0.8358044454788057
Ni 0.46686832739358725 8.47694190162548 6.468960086298558 -0.1448857769035182 -1.6619860231558667 0.187392025696845
Ni 4.610845362243207 6.548804572850255 13.07486592970409 0.16783750060368516 -0.7474068334700031 -0.5557066673161074
Ni 4.356412293167769 6.829108108033659 7.883614065869326 -0.031179253816281786 -0.025489145410039975 0.10555226941121822
Ni 2.786819980885281 3.5759155268095104 5.6541515950127215 -2.6060259413050084 -2.263653730583121 -2.028363081432784
Ni 8.505323433748941 7.828076883666133 1.8204172296736711 -2.196556165603675 -0.03874729597152682 -0.45115327148304885
Ni 4.386239309787232 3.82564150534668 11.985474686105574 0.48890349364862895 0.5902514951705125 -0.09471249848323689
Ni 2.395844222495021 3.5668163872256913 13.110953932695027 -2.5742028832571404 0.16474754882445175 -0.7169711426879651
Ni 3.3107710469816336 7.9957716170550865 0.9398447533754162 0.8506926754445479 1.0398093971419835 -0.7449015505496461
Ni 4.395153130845922 9.108563030821605 7.11395102049009 0.47231216494885114 0.8643064095732406 2.007542545143007
Ni 1.7734241580715375 0.44283251468439583 4.499121456406247 -1.4381252131090263 -2.7043043027626332 0.7225830895581039
Ni 0.14876629923230933 4.709536742800493 1.1119880579600845 1.2334445755350627 0.8899503353935899 0.39526417362491284
Ni 3.8514656418233635 5.257356834933421 9.958812763445676 0.2920636922753228 0.28588661693033346 0.8723657895426074
Ni 8.615995656955796 0.5626279688833365 8.213499572450912 -0.04706687158081572 1.323044435382083 -0.7937625379164072
Ni 0.45228190628070786 0.9873122404018795 11.268933195954476 0.1660184451170754 -0.08884318418665345 0.7593020422456923
Ni 4.327567464731488 4.919613822886379 5.8639219729395196 -0.3366692467998395 4.875312444693875 2.003487658347343
Ni 4.2216949913254656 3.7785057384801974 3.3535990847314996 -1.1857745231526096 0.30245660547387265 1.4867946532902718
Ni 0.8134250884957502 6.028671068371553 10.300592939562648 2.4223908115474346 -0.5487379493077582 0.17776890078478416
Ni 9.095794584440238 9.020805443246912 13.500674158077539 0.9898742028744373 1.17003602937143 -1.2974655584717139
Ni 0.8403713286420879 3.4370285581518116 10.790384241922029 1.623516920546391 0.7976533883303811 -0.42103176950732
Ni 1.593313083498961 7.803883550210582 11.585718535994715 0.2000894186588554 0.7001206467895297 2.371739822159786
P 5.3951318924403475 3.198338297786055 1.270239885901106 1.274125855304509 1.437998200612859 0.0480523754225366
Ni 7.114535700436871 3.28853282396619 7.158894469204301 1.3185470617323616 1.1493306785032786 0.3032567327776648
P 5.98540845868026 8.074930425063808 11.61947337875428 0.2187299165781781 -0.6752812191483467 0.09681951752391067
Ni 3.830181809212333 8.684470851990847 12.173953818680337 0.8680599630784018 0.2718504505522415 -0.1406056614709256
P 0.25385116890653453 2.339618581970976 13.173594373966402 -0.07936712637541815 0.042804496760035955 -0.4820021385431054
P 8.52291942770991 2.954866819471979 8.998459735486893 0.02269178517056092 0.010642053094878447 -0.6381349491153526
P 3.6142579296586366 1.7867114963232646 11.895100400956062 -1.203368839195605 0.31542833514319224 -0.26804238966006094
Ni 9.117300799281422 1.0614211186008438 2.890862433855657 -1.0364834180925442 -1.305017659787359 1.4282596331688564
Ni 4.03503290688959 2.566680104884907 9.632479812990809 -1.0734628235303705 0.9755351605439457 0.44766171339002253
Ni 7.40088061953947 5.626270422907109 1.2371827673886497 -1.8254572763710561 0.12015227871258016 -0.6135168934563563
Ni 8.010411780540254 2.721319148178544 11.116839502603483 -1.257290271804409 -0.19377967439074367 -0.0023530736132088507
Ni 6.457322082920475 6.743805990916921 3.381440413354209 -0.4448203872864855 0.8581730429819929 -0.646625503084867
Ni 9.011372730317861 4.663457291527243 12.34822087356298 -0.24438361259054042 0.6021058234059372 0.8020610304797736
Ni 4.891482470771844 5.3594488104268185 1.9602511759947776 1.8879548806846453 1.1743251436650874 -0.8063951390787532
Ni 9.12778056187745 4.93832172799812 7.551950428039129 -0.25158758653814733 -0.356230970981851 -0.43011316298329794
Ni 3.275866302773644 3.0127139970909007 1.4922931756734337 -0.6190229108762499 -0.6614281153153383 0.4929617228784026
Ni 8.103951306098962 5.21759674536706 9.79025537232225 -0.3935207085712449 -2.5542956028102526 0.3733591460217054
Ni 6.130336811257154 1.5788860363176922 8.55475066417864 0.12015356426416081 0.036346142729201926 2.5208679192794263
Ni 5.702510464145053 7.930317113979633 5.360989733963263 -0.8625503461140822 -0.15079468618878544 1.5565993327882353
Ni 0.7631759704071053 2.692437256037237 1.7558911724091117 3.6514902227399246 -0.35379587917779715 -0.5678633572832994
Ni 7.053399118996915 9.366461556316949 4.203234486444771 1.3054195232114678 -0.3879666115222351 4.0477728103270225
Ni 1.914998245343602 0.8282867076184458 6.862396874702526 1.5168264237656714 0.743057555362372 0.7228810804144971
Ni 8.315547998090903 7.562302320852819 10.709475100443468 -0.04874863015861282 0.1115380546810079 -0.18604605319191184
Ni 6.464521707621725 2.7112470863377993 12.84958068485352 -0.34964766133737846 -0.3918500057370413 1.324290134863726
Ni 3.2696025366242942 7.906855788698341 5.552194902042669 -0.9219096619090058 -1.6692321631953189 -0.010426594649962689
Ni 6.734382543914128 4.110476078469481 2.97544644168752 -0.5687046222376722 -0.46006934302575603 0.9592994154113738
Ni 0.9444573314658694 2.988594791045401 6.740273819827968 -0.6022973705914532 -0.31101015147083855 1.2749501509780172
Ni 4.022153269393146 0.7946458357518342 5.006502266578218 0.21829128637886278 1.8503789793134005 -0.3636437185061544
Ni 5.871354172389807 1.5166375437269644 6.459195653209527 1.552257253769456 -3.1192122187604023 -2.3164500484485457
Ni 6.602713731810192 4.898376319906631 12.391048911312845 -0.378522949610832 0.09914302345076474 -0.8106202329036942
Ni 0.17526777491833803 8.008502999731428 4.018524732671126 -1.0926159994200537 0.9052663969253699 -0.2739980930228636
Ni 2.6463856025427575 7.652042816646388 3.227041357550613 1.4210780278187527 -0.9342962084988167 0.5728962917215166
P 6.978465573361129 0.3439956590848845 2.326617560840572 1.3948859428044171 -0.5121336678211631 -5.6845633080538684
Ni 4.849137187779936 1.295357958797049 0.5497789089435388 -0.5823852050485583 -1.2944049172685193 -0.47353318184014576
P 2.1357126087718754 2.2429101096325677 3.897812878365424 0.8096149315676314 3.6887390797890536 -1.8041495160322156
Ni 6.8800521705915365 8.12277040232578 8.420654179395518 2.1478880109740106 -1.5683405324845634 -2.3564016491408193
P 2.518895723180473 8.193423090031095 7.927119442828538 -0.2587607072478189 0.689070302512639 -1.6703811891980975
P 2.7701876432549803 5.449013253621515 12.06183981734798 -0.08534879788014979 1.006137458810835 -0.22558704870932758
P 7.347601543564971 2.966161983578573 4.830730425271529 0.5857006425750365 0.6067878022626388 -0.004869155166843228
Ni 7.943910227797822 7.069892467733369 5.720819934427769 0.667246007548696 -0.28362893124440836 0.060516569327818355
