# total energy = -340860.3832140329 ev
CRYSTAL
PRIMVEC
9.36722468995095 0.00000000000000 0.00000000000000

0.00000000000000 9.36722468995095 0.00000000000000

0.00000000000000 0.00000000000000 13.70988018732629

PRIMCOORD
 96 1
Ni 0.25871993142639194 7.901572378984207 3.241618911626041 -0.2607947069587121 0.8794622913780725 -1.013865680693028
Ni 5.689343062765106 1.724908827128828 0.39691740512498347 -0.5519490000458881 0.7966606853998086 -0.1969508730298737
Ni 2.113517504093288 5.213385017033024 10.76889104911952 -0.7201112309788437 -2.568977116081827 -0.4459419024854384
Ni 3.410063153340788 1.0699712222500468 12.41820356410193 2.5953283523818467 -0.26956859649660025 -0.5148441247737908
Ni 8.883894481281583 9.222585218711174 12.388974076670028 -0.5920445825151933 0.45262239982940755 -0.006982087744787976
Ni 4.715058039116804 7.313554226167184 12.900284027788597 -0.6820015685913158 -1.7130363048644628 0.024956412835021535
Ni 0.5745227924327319 6.724824164285675 8.651263206901273 0.802609961004708 -1.7261396750156401 0.5412460118060872
Ni 0.1008409822621005 7.5189399912716235 0.5379597049141623 0.19729437241222147 -1.5823407034183976 0.3347445189733009
Ni 5.035969784383289 9.00936845389738 10.070057693357954 -0.9891666352844514 0.9027991663318 -0.15111555986331396
Ni 0.3245443549402751 0.48863002707994746 6.631715825875335 1.17702197377096 -0.11995121844536762 0.633864860985089
Ni 8.170065135765586 5.995510796617089 10.1675620702415 0.671750837397585 -0.4117596001767747 0.7884272417464229
Ni 7.588163780568431 2.0029748873826483 12.144101713270357 -0.7840453106286431 -0.7611061853339667 -0.13926791649610856
Ni 7.541280821782162 6.861510704667138 2.653382502477406 -0.28879839126048973 -0.34903779566752147 -0.1659860492172432
Ni 0.5426423804580696 5.57451025721848 3.789164097404537 -0.8461001709778591 -0.27928710933594486 -0.04831282817277486
Ni 0.9346719678218792 0.7236358928793031 4.406971897680519 -0.3100974098485821 -0.07041660205034969 -1.1449590317981442
Ni 7.728578476313917 5.203558798498199 5.834459168503565 0.6398984687736787 -0.042066847263063034 -0.28752466675438876
Ni 2.4240597318020516 4.217124484630958 6.147455609039902 0.697046121629264 1.0760704363565468 0.4752699620255944
Ni 2.4477400754207705 4.534870108005384 3.1760305421703827 0.9413726557296239 -0.8494842569587434 -0.4008254697627742
Ni 1.096218185390731 4.5765261555023935 1.1266560447873544 -2.7692907349363467 -0.9268456657580425 0.7711478858406848
Ni 8.681197109618036 7.81286476265934 7.056393000903037 0.6115145183143469 -0.9514176986704517 -0.8338943729402865
Ni 4.419297291720673 7.745373909901086 8.249700595130514 -0.7014036272670114 -3.0631261744001117 0.3846923116463375
Ni 7.5622259358373265 9.0294705177446 5.340889803927514 1.4072025553882408 0.4780048444582542 -2.8224081835866164
Ni 7.516982241344285 8.057068306227373 9.082192067582113 -0.6798868362411582 -0.39903263952840956 0.3700082272716015
Ni 6.1665656838091065 2.30407495276243 2.713047975861025 0.2852561824351862 0.2283342724371616 1.6135731790701178
P 8.058332881539291 1.008878183847641 0.35785514210108393 0.6410261546202186 0.7623110042753453 1.2711893983840044
P 0.6524674677695027 8.892428022830893 8.679587820443315 -1.1566187275242596 2.0094585312187974 -1.7260090629750469
P 5.7006493027761 3.502030563803043 5.098073546312775 -0.2376303530271069 0.15276877919602075 -1.066341124883925
P 2.2752801045488456 6.708234809638226 3.092372796591105 0.3764498691318871 1.302778228933879 0.15457806449061767
P 0.9658264198952557 4.263351737699935 12.541126841477467 0.9977926863905655 -0.5807538400927224 0.008504695036901481
P 8.480213940043976 1.6429549796920526 3.8755224138165976 -1.747229920027036 0.0559744584830907 -0.5835992799613174
P 4.832401260838198 4.612767947219491 0.17372360946138887 1.8141793894643916 0.06530396341413269 -1.312372300380217
P 1.299149737667597 2.425427346583829 6.988310139554315 0.9161951280227316 0.8539854872632067 0.12260485401813079
Ni 6.0501123484183195 5.580449077572225 12.120781071073694 0.05805756626436453 -1.0998240871327185 1.4969883059938218
Ni 7.5788246577093075 0.580241483009958 7.51005330535743 -1.1088131780052064 1.3470017175286284 0.8276741030621876
Ni 8.988095486983571 4.462470829591983 7.9609437215174985 -1.2989148893237308 -0.23630572067841238 -0.7734004293202874
Ni 4.515573625467979 4.572741796791174 8.444710285620058 -0.6810561739589109 1.5505662392202781 -0.2310277601089247
Ni 2.5512853754054676 6.868967015395184 12.13166672270317 -0.5742538341906755 2.000004070674117 1.0639114323965095
Ni 2.097256002304485 2.602336749108796 11.144829618181022 -0.5844199760903999 -0.12904829565062936 2.0081115302725996
Ni 2.2344109039125843 9.15575007167021 2.6539314218350234 -0.94553167220332 0.0176994741622921 -1.2469631788467879
Ni 5.543308032299987 5.602583829143045 6.474765168662236 -1.4857528422893187 -1.1848373560503207 1.6981537313256756
Ni 1.8985959044145393 7.978880083052752 4.971490494312305 0.5541274957544456 -0.44130928880943354 0.04770810470924042
Ni 2.1522697119851544 8.376331419976102 7.461259432766487 2.0899836824580587 -1.0401901775201698 -1.3320091007745383
Ni 6.516169237819316 3.2659296694558115 7.070130035680273 1.8769826979438575 0.7644280506183481 -0.0003704959655412974
Ni 2.647496138581044 7.25284524397062 9.865643309437559 0.993172928230367 0.018697062188871027 -0.7763736530159985
Ni 8.194822710205568 4.00447912051366 3.8524762312987444 -0.857307352547588 -1.044530970987369 -1.0411373719247876
Ni 0.2780613766415541 3.6040209045153078 9.990335118804875 -1.3276500524748942 1.4781205225550413 0.988365993760027
Ni 0.8561268533925611 0.28191505281431545 0.5641176794217855 1.8115015855219123 -0.8285061120451795 2.160905763389917
Ni 0.987099386809065 3.1263205550201394 4.770819253315184 0.7740236647265831 0.7589382311483703 -1.5572151119953632
Ni 0.6984923887885737 5.792747854381813 6.240202372583278 1.0349955206931079 0.28160932971121827 0.9608459339628872
Ni 2.284965814715679 0.20210067946081361 10.083794728135189 1.1968390084968872 -0.2577698040894593 0.07523382093333494
Ni 7.097293113380257 0.8521326688518088 9.98190274328052 0.7364667895187317 0.5870777254282212 0.6499831067031903
Ni 4.2916501230132855 8.970072946982617 0.47525550389212856 -2.14205237812884 2.033593733704104 1.2918379278722913
Ni 2.973353778400807 2.733159406932777 0.07798308095735491 -0.5955073442528132 0.651972112108761 1.1565775898736792
Ni 4.263651488884982 7.910621117882815 5.693685708058475 -0.8726779214663875 0.5864917710177641 -0.573920876331289
Ni 4.329034716123374 8.923658349422984 3.09903570340123 2.416276985340213 -0.09481585683032058 0.9196933709839773
Ni 2.862998506180822 5.13839101742406 13.752106641508375 -0.460637042603768 1.143064900099225 -1.6227777283875213
P 7.229399080965219 6.0274717667227335 7.904225176971874 0.7777707904738412 -0.013922009397730861 0.7692954060129783
P 3.355714516601942 6.2438827551021845 6.8303028594139255 -0.9682252571460936 -0.6706354928462192 0.2262920451961522
P 1.4307967112504565 2.8121438441926796 2.5876573715435693 -0.5333429549089266 -1.011500008674329 -0.8983293034859043
P 1.679899313249104 0.14399297551698595 12.121604450110121 -2.4176252718379914 -0.6699302392490785 0.060357160931818636
P 5.69162866555109 7.947668490909726 1.6052762557316362 1.8705737090937204 -0.9469784319521757 1.1588411890968753
P 8.774560236535665 7.0601239664344195 12.153849247119107 -1.3685061672593077 -0.676505578473751 0.2983893773830345
P 5.499544359283115 0.8024067574198599 11.828760656433479 0.4075103379821175 1.0406537474201496 -0.6710219296513604
P 5.0982430930768174 6.779659896700222 10.138154605543477 -0.7469262942891587 -0.30119367960104904 0.8690755488271096
Ni 5.453345207887736 0.8197183250787813 5.071983952544241 -0.5571719390077242 0.4477406462570741 0.7168001643277396
Ni 0.2744999578742136 1.4099078005424892 10.18472750919771 -1.4227854974281624 -1.3918114176441516 -0.2102622454267992
Ni 6.496376292381677 7.756595844891286 11.541991507866308 2.2013749271485574 -0.31177428333037277 -2.0738824060208216
Ni 0.24193948539847568 8.310667176001727 10.491828218613154 -0.2694912062914456 -1.9512667533694137 2.1630392647931522
Ni 6.645596179187921 9.103406020981367 13.272247146758414 -0.9535085197612095 -0.31761865792629174 1.6195016287394108
Ni 3.0679440117322225 1.4393770889224289 8.372555491766962 0.24214083930295074 0.6712880388285536 -0.4241692866950373
Ni 6.162247393299522 4.76217517851639 10.058349599414507 -1.5365426712476764 -0.05680363925260539 -3.5763368773355375
Ni 4.112108530394623 6.137124497102764 1.824429030731815 0.13067580395172332 1.1929571569439779 0.49844537170079317
Ni 7.059496362390727 6.862231980956158 0.18423925572182137 0.6767534328184991 -0.8439340165644756 0.34830528837687114
Ni 5.1376041705633115 3.273507754102783 12.153945729531792 0.11912126634490453 -0.9020170367501368 -0.4301167625277238
Ni 2.728822381974127 1.0578312992556407 5.895974668732397 0.6787041287869666 -1.0173238144449577 0.6315331275281189
Ni 0.43741285350238923 2.0957197774811185 13.223700568895135 0.647249509822111 2.887225437172318 -1.8386478069194012
Ni 7.22382558236825 0.18136632795763585 2.2787328635116064 0.424976613087681 -0.5284097792733674 0.2371477569637335
Ni 8.583150370434046 2.5691299381403008 1.7339163502394925 -0.00393173095423839 0.75595832258444 0.6462447227066807
Ni 8.578972588292453 2.467355043592288 5.918102863246043 -1.514801937136475 0.11242071439627735 1.0894805391148659
Ni 6.112198312621194 6.770779767843203 4.765512720617398 1.1629662670088423 1.7312777675731537 -2.3895228571748204
Ni 3.5675261977358272 2.8868006237184654 4.7242191847098045 1.190502010535266 0.0448778343492969 -2.1732629994036894
Ni 3.7000817920983606 5.750211287778726 4.61175722369241 0.9617386209804856 0.5070541964157267 0.3692281545724673
Ni 4.366765896541174 2.8496970473443577 6.9275477641779135 -1.3037673323200256 -1.0036375752071167 -1.1996430536045857
Ni 5.4295711920236895 2.3533840227026728 8.954375352110683 -0.03468443875606285 -0.11905158944923369 1.3675702857085996
Ni 5.947222754150913 4.9959623684040375 3.2032863553932405 0.372448718392294 -0.7868149029539805 0.5230266605845831
Ni 2.02140021803851 4.290863276152536 8.423323038566949 -0.3242168799690997 -0.05957554557078773 0.17847569704382166
Ni 4.3582136205428 3.6762609401116513 1.9892903090627965 -0.3902204405534183 -0.3145981259324131 0.18137615852006828
Ni 6.357966182686192 7.934994636116955 6.880001605894729 -0.7446922627523175 -0.2727511079896399 0.74041446131257
P 4.06992791832378 1.5161227595190114 1.9598275777400296 0.05729137752230133 -0.6321039124299244 0.036737464630349624
P 2.4735842479065475 7.484403034419481 0.5945976913288061 -0.32023501250321623 0.19080876468787783 0.055585964795420405
P 4.595560355752882 0.04869832690070951 7.161917595431498 -0.11800515046259032 3.803738610656101 -0.9044500716716618
P 3.430043443269082 3.335687390550984 9.840115749140988 1.5796024785516278 0.035880515946693045 -1.0788246020629162
P 7.341487289723759 3.8941238482936744 11.39522677061009 1.3033209888112263 0.25734531495753094 0.9076986605159465
P 8.834248191258164 7.014018487284367 5.012976058322819 -1.507017922315682 0.8040209824196216 -0.34027110521848497
P 7.906255991250567 2.4994752565149883 8.580520053785259 0.04227047863343687 -0.3173828877664018 0.7971705351566917
P 7.703849003547534 4.806978613456394 1.6120628099055925 0.1260820139334538 0.41997967409372183 0.8943060412591244
