# total energy = -340892.47376800823 ev
CRYSTAL
PRIMVEC
9.07068001650411 0.00000000000000 0.00000000000000

0.00000000000000 9.07068001650411 0.00000000000000

0.00000000000000 0.00000000000000 13.27585708254405

PRIMCOORD
 96 1
Ni 6.377504383823901 1.7481740102769388 11.362116057710866 1.1544672283988955 0.4516842042858543 1.8902274787689057
Ni 4.7913690006254726 0.5504950323601255 5.949468973538123 -0.37850726588154815 -1.2712050821132883 -0.1644762974409361
Ni 3.0966575781228705 1.716290570163808 4.798319862690534 -1.6190450008179667 -0.37118270719567686 0.6254000180471874
Ni 3.546100700218321 4.36942818021509 5.085701681007537 -0.5172763883643673 0.27176714680981584 -0.2818996072581274
Ni 5.157434432388094 4.561490758011797 2.596678069613111 -0.5197366769794016 0.42185426540861537 0.5983494416872985
Ni 7.174046145853649 6.252909523683371 2.680726990264112 0.6599564158658182 -1.3897468218056386 -0.5880516593057163
Ni 5.027360881542492 4.536473822639959 11.618260268328978 -0.19323331496897045 -0.7404841382082408 0.02776431459746186
Ni 5.68216419827842 7.918712689104737 12.461369994283848 -0.05258703006809653 0.20713218443824974 0.2499845037170856
Ni 1.850781542157375 6.62923389449804 0.16960266710990188 -0.05455906619280282 -0.20443355456016404 0.9752441116660882
Ni 2.561106491022029 1.3538261983513755 0.451384247610162 0.4130783189881983 1.0080701570571735 -0.050307747115616586
Ni 0.6210241045079625 -0.11284016596055657 4.362420172866184 -0.0024047527867506967 0.08051949481230648 1.708470025650019
Ni 8.722583560554517 2.3102477656255167 1.178300377217612 -0.024314408375648446 0.5366905312249208 0.5067124968055918
Ni 7.008107126385766 0.8023361123979612 4.934277563636106 0.3756607975716885 -0.10132409026248357 -1.265298743931182
Ni 0.5879714537460176 7.424923012610113 2.521948365568719 0.5195860103341503 -1.2327184960023156 -1.0316194051320233
Ni 7.492508649105969 3.8467483879991793 3.96583008885073 0.9631658403453155 0.24856679743395257 -0.0015568029641586092
Ni 7.290522747416298 3.8243982325400743 12.701689496617076 1.0521560916327943 -1.1915651616924574 0.26807735666305443
Ni 7.966723798213926 8.870526350951433 7.051630970111181 0.3899023950923672 -0.6330379942084194 -0.3649302985280618
Ni 6.859765226069936 0.817339924145082 0.6818294077222928 -0.1661706544242235 -0.02707474472960499 -2.0042075672325033
Ni 1.6776948268689658 6.75854550822572 9.157301340778087 1.7265389673365878 -0.4956382412693013 -1.4804442855922115
Ni 0.1388811811016054 4.868061599816516 1.2997431760667297 -1.1816173064511264 -0.4693158013246885 -0.12851479174466254
Ni 6.5085847801467605 1.799423352137305 7.018268102094081 -0.01771412945031143 1.2439177071522447 1.6602723828988697
Ni 3.5421821664689976 4.583178753832707 0.4989137036126636 -0.20644415723228962 -1.7422993154946382 0.9550141577724586
Ni 5.945095998722037 5.682654014997085 4.795557840638061 -0.0800304709910299 0.15429678580477296 -0.2619198217020909
Ni 5.190896170816925 2.631494967630249 9.616990702973622 -0.8198700336367364 0.3043769624250371 -1.4009452616246194
P 0.18151519112144512 5.591774872324693 12.437778969804123 0.2504097641799623 -0.8872190525053559 0.13789366185640123
P 4.151223902729607 6.242215191992509 12.691971170091554 -0.9833582561327903 1.5484944442929136 -1.4115479768411303
P 2.2196226019924334 8.538430615696258 1.3871809027564976 0.5260651903005907 -1.275641263507771 0.36147704987213874
P 6.444237376402081 7.8288676039495275 5.763965404431544 -0.035120754962533064 0.026431711828967384 0.029544803536652342
P 4.713642343917247 0.944466411066714 12.763687594248156 0.24139213406238424 0.3314244534611325 -0.5208340238086384
P 3.9507800166357354 6.301292530671547 8.169948754788221 0.020361080154855257 -0.2767347752277363 0.3963928879127173
P 4.8098822584550325 1.150135008826351 3.5913452519350484 -0.9090232928646409 -1.6966892309650068 2.3635061213960844
P 0.10194537224224043 5.327210349485524 3.5366617506360387 0.5020917102041288 1.0211940960336412 -0.00805655175588935
Ni 1.5548596786436415 1.1384519730181826 2.6564992040501227 -0.2379903074696869 0.9003882428974622 -0.5543444968612583
Ni 1.8217281541965336 6.583989342781313 4.505241657349053 0.14168346791613662 -0.7073055945737431 0.8536972665988264
Ni 6.064357299037099 5.794613417932041 9.13799802672268 -0.3197922685388428 1.5412472758121973 1.5778428155480437
Ni 8.4700014059627 2.4310420108564017 10.121924616885883 0.5892515931510884 1.33912642854561 -0.021882144785071993
Ni 2.2968775833419453 5.475425260281698 6.951358231256384 0.017377829156815232 -0.7264911663632585 0.5014610185986654
Ni 0.5552136000832694 -0.09047821861748376 9.253989346906652 0.643358145187505 0.7892075715558731 0.26635446043467675
Ni 1.4295935881849404 1.0184831596650485 11.547698541733231 -0.1783949644045573 0.6880279772910538 -1.0208508537616097
Ni 3.9632431309217786 6.825060804484492 1.607892316187149 0.31561448301206935 1.166554498580733 0.21010026592763814
Ni 5.682708439076937 8.045693138078766 7.884664077681505 0.32879215804460793 -0.2835057754029827 0.5351139307664203
Ni 5.369942322849096 2.8882768470506233 5.036568528785404 0.17241740666488373 -0.1278614744313798 -0.1928795311739775
Ni 0.7778334845807209 7.400196338997483 6.710706742036061 -0.30353775435319336 -0.09791737857377975 0.5580566556055228
Ni 5.155230257154099 4.614953345786134 7.4903443848638664 -0.16303802233251277 -0.3890616443586268 -1.7208935961253524
Ni 8.23330201200761 7.098269685340109 8.919145195618967 -0.49041555941778125 1.5200672993004725 1.904901021620681
Ni 4.698648509918099 0.34393387969092043 10.605391859568632 -0.7248957968516807 -0.947645119001897 -1.0032511384019756
Ni 8.308897058921643 7.08972510480339 4.672053276230559 -0.7380498177351354 0.11912049501395613 0.49498929483139276
Ni 7.361482676862961 6.249381029172985 6.989592961488209 -0.6932594008933223 -0.7297286994639497 -1.1285083424412887
Ni 2.1784507855846096 5.322838281737436 2.3629030628820527 0.17310646231210833 -0.6093074833606991 1.1673039751522478
Ni 2.6418899668819273 4.986896578172741 11.56621905610677 -1.2232069569674546 0.6202549835111383 -0.7030825576313311
Ni 1.1526385164995299 3.24470921667949 3.8775061567273768 -0.010931816421155366 0.9256377614928702 0.08095941056320251
Ni 3.6482002740201422 2.716142553159619 2.670837227887058 0.18630084951519527 0.5996244517449802 -0.38240685804627045
Ni 1.1716960151276061 3.3797172174316485 8.200948710671758 -0.8254614116815849 0.04862161766244529 0.2391753289167236
Ni 3.781403209457218 2.815121813049941 7.2076484798220966 -0.8246175756240508 -0.9650448025355832 -0.5330447069422174
Ni 4.332002554637059 6.94421325663985 5.974348034574337 -0.9052337439152217 0.17580097842513595 -0.6370049492759675
Ni 1.0146190499955767 7.237341350721196 11.230312728193978 -0.7929888929751762 0.11386053216659747 1.1911406725605291
P 9.279033494318417 5.52017999527976 8.1371446406576 0.8459027102550722 -0.9818433621501607 -1.7717201918589165
P 8.484750331602514 1.557698801475906 8.166325018138094 1.0390149262651462 0.9471985183827816 -1.6739575936954463
P 1.7645193755924042 3.224372752174899 10.435341100867952 0.396504216679601 -0.33995691641217585 0.019653255454553247
P 3.8352467657905165 6.111914874147525 3.7262806872474044 0.7766179078163206 -0.04413864219042721 0.3311781417782812
P 6.649506864242805 4.080481669602351 10.343790727877387 1.3309348938737529 -1.180127352169161 -0.09932994265059022
P 6.508058680708194 7.619289543120543 10.337564613142352 -1.5797996821640987 -0.030687916002160052 -0.7837182663065277
P 2.3289242956946308 8.430906775269216 5.609328452212868 0.8947927510875557 0.9804565091049631 0.8564861421978734
P 6.985883960446315 3.958027489935989 1.6697579818905903 0.6441330756803164 0.6182088996153868 -1.0273637151794628
Ni 5.2700197122413455 2.7765532817950245 0.5184755320473656 -0.3756872799342498 0.4644204209056001 0.0312818408324171
Ni 1.4432268201877954 0.8736126085757618 7.111013990705386 -0.4108010929182474 0.9197489068122611 -0.8630188011100686
Ni 7.0815614928256325 0.4797537063008668 9.350212934220481 -1.4549109172077976 -0.24770162122017986 0.042178176029946716
Ni 2.750946752224792 1.5776996508214118 9.205425833386967 0.05650179174147043 -0.8035445570038355 0.5163335648351237
Ni 6.323960159929787 2.1405534846478647 2.7330611854495226 2.0022630419116223 0.09350382288711638 -0.8757370200076854
Ni 3.998237814266432 6.844798604110715 10.36917411872023 0.39458334550780433 0.11296630248710221 0.2373094793525784
Ni 7.995913246374396 7.021631510228917 0.23545036132249375 0.8058462085538186 0.8057685612383477 0.4017922045514177
Ni 7.476861726148601 4.02479676523407 8.228084556885825 1.2010684731972023 -0.9469216105723111 0.1814160106190682
Ni 3.011447610435033 8.462064560984325 12.38135661915385 1.5193191082805384 -0.9349292140971253 0.8562740261870673
Ni 0.1887336382457778 4.953144577984701 10.283279314694257 0.29254294590458646 -0.8633553585138809 0.10439964386401374
Ni 8.648439822436528 2.46776012339636 5.849847509505551 0.5632813943395718 0.14089619612815088 0.6700996749474072
Ni 3.450713429598213 2.578894094453565 11.893282378111655 0.6052952768775123 0.5348665906423046 -1.012739537508385
Ni 1.1414997214898788 3.399010553739082 12.686820838001585 -0.6993685991148536 0.07348572789397667 -0.34138670688016687
Ni 3.291459501272115 8.33984621899732 7.685658801431714 -1.3567204874782892 0.3927858872877493 0.7296549088032208
Ni 5.764326417494561 8.062827652552082 3.7133368269226716 -0.8892988178525201 0.14977884332976138 -0.5898084940958229
Ni 3.158038869515632 8.424158189367605 3.502914285787987 0.4081333162780971 -0.10790842834822062 0.15028329377000568
Ni 3.381848827225841 4.324791364056707 9.237580486831359 -0.08934840595784613 0.36062344362259185 0.1191158670282658
Ni 7.240561442112423 5.826034253366433 11.522355061882282 -0.19519866622545737 1.3290363912994594 -0.7693316585675525
Ni 0.34412527103839896 9.139435729498764 0.412672399611636 -0.30805441127662425 -0.49186154783568836 -0.47941715142474856
Ni 4.619615675293431 0.30541977251585567 1.6089944038041462 -0.23591902676295498 -0.8758920575283109 -0.23865905140193736
Ni 5.907661302464032 5.704741120736906 0.46190170104150624 1.0064938137089894 -0.27589582426620873 0.577835895114979
Ni 8.077177468272986 8.510746900411686 11.377409224149199 0.5863737573826611 0.6093643047405635 1.1439118214805524
Ni 0.10677460226108273 5.04396929657724 5.830888881289205 0.1425041640452191 -1.111571971697266 -0.16467607215656802
Ni 7.967304321732344 8.96158690722333 2.5645633271606108 0.11723819038957874 0.7238038493390826 0.58116110283347
P 8.659315567726896 1.6839989494517895 3.668105881225907 -0.7275651161537277 0.4628283938281319 0.02012505288464921
P 1.9494251868886112 3.2186672944704444 1.5347554235464174 -1.352966676862812 0.12598714022680235 -0.48709986478098694
P 4.6947934709286026 0.9672701005245833 8.155677853983104 0.37958610076802374 0.6965295870041617 0.43961158939203643
P 8.485095017441576 1.5309040128289109 12.051504063056564 -0.8034694807915259 -0.3115259147649925 2.735821656644624
P 6.440881224811225 7.8783390925347385 1.4877058065146083 -1.3873266423999204 -0.2051370083850919 -0.31991182483584263
P 1.8288667793370836 3.1467640143063513 6.103681417933957 0.2721780090949893 0.2623731071894256 -0.6095195993715052
P 6.813677101115508 4.207425835856481 6.123489061795989 0.7029928261310021 -0.9799654284011573 -0.3631037868422843
P 2.5272365719943104 8.525622815571154 10.329081713229463 -0.28757506037634983 1.1145503375993 -1.7480899540344863
