# total energy = -340858.68323071796 ev
CRYSTAL
PRIMVEC
9.35235229870443 0.00000000000000 0.00000000000000
0.00000000000000 9.35235229870443 0.00000000000000
0.00000000000000 0.00000000000000 13.68811293941202
PRIMCOORD
 96 1
Ni 7.855582887331014 1.0490159152485845 12.60627282035389 -1.213482273480523 1.5523593265649587 -0.44736886473995213
Ni 5.462493703356164 9.32286404140119 5.207026726395701 -2.1159088869642524 -2.3799917777559334 0.39639623034682697
Ni 3.8654112557769484 8.125791041525352 1.1389125932129627 1.6397922606676467 -0.6448977217604829 -2.419372850656717
Ni 2.0527477420779183 4.521329111455534 2.2496138165959647 0.0445135090313427 -0.8861705566361835 0.9163205978570026
Ni 2.9095821759289033 7.585608541936858 9.313555645448343 0.9388830565385508 0.4604922894957876 -0.017596630035840662
Ni 8.515578368484773 8.519010681671446 0.19776764125154808 -1.4865151743766398 0.7212576858784611 1.1160251223726134
Ni 7.3523515305232845 8.202330690352932 2.957371759450904 0.2904310417679063 0.5778986300321144 -0.493530450897679
Ni 6.529999218523141 1.1296144848473249 3.807238691056465 1.8645352162091242 1.74457448468206 -2.300259811841929
Ni 1.8392990122157638 8.974750794986207 0.5807090465416408 -1.246427618058292 1.6547565952869632 -1.2262961374157397
Ni 0.43885818270641996 1.6306199818773222 6.978596940609942 -0.17497514008973092 0.017280127236686368 -1.4301023428045498
Ni 0.7716064500086408 2.5980459782143943 4.440916653661739 1.1850656700110431 2.0963240228537896 0.8194812828387499
Ni 5.994745408442484 9.269349883215531 11.977427218030778 1.1068946208262551 -1.1663431539008753 1.1570167342936266
Ni 0.7545075448337306 8.501923934554144 9.539012795287846 -1.2975630032815266 -0.8356568641573479 0.37803803955461346
Ni 3.532822913694052 2.896030617870354 10.467395527700125 -0.09305979337116232 0.1771361522967917 -0.19685651354385453
Ni 8.026338130279935 2.7887030262348076 7.84969464650723 -0.8232854870761886 1.1472807379527854 0.5587526532312829
Ni 3.3625726977535244 5.2975369186517565 9.898407783929208 -0.7555664864626601 1.0005764197832898 0.3429396531895835
Ni 7.316681659967518 5.760020077763768 3.11668720542452 -0.4934569173472663 0.6230032356802367 -1.285999209703327
Ni 9.298108365637917 1.3799488910261921 0.7455816600779823 2.063503376779343 0.8928492542079398 0.920278554063486
Ni 7.21853807800312 1.0464533707985897 1.210350534020572 -0.20035321384320334 4.15503254934765 2.524622501225852
Ni 3.910274488355871 2.6164794640207436 1.3566278660608386 1.9449582946528825 0.44864721723174344 -0.8436370541493472
Ni 6.745383885250802 6.857209958201852 12.550904090765188 -0.04783280321256278 0.12627073290549223 -0.19041898544862693
Ni 2.3190279084291987 0.8538257822102427 9.653513640912976 0.8239303197490391 0.5081893384614344 0.9840390842498987
Ni 0.4591986130870535 7.356737783614698 12.543061208371883 -0.17530115597058196 -0.5065399757834695 -0.33879452067295845
Ni 2.4637555557418587 6.574179729405532 12.532370534792362 2.4850735352886364 -0.007908199103483156 -0.6131901062445568
P 4.220276900341187 6.234979274453489 13.700431603506413 0.8861623291060673 -0.8011855698533558 0.550679132194529
P 1.9486934736449195 2.301950513663905 1.743304600742639 -2.378237256958672 1.6160252401550361 -1.489176780369203
P 6.442105814358722 3.236820972663635 1.941412667607252 -1.9714833375266045 -1.9328687104782003 2.404789039305271
P 5.757485590369794 6.959206709193249 3.954536364700726 -0.8732808451577089 0.9065923148256451 0.3935214799021932
P 2.4766524491598982 1.8825910496574636 7.790109876633648 -0.013399047014725312 -0.38444342886032506 -0.6279402679705378
P 2.3003606138226673 8.689522763468178 11.371865231264989 0.8300639434506027 -0.7390242658332628 0.7854861568402278
P 5.480300581578025 8.104523793060796 8.849570498603963 -1.6584103899894664 2.04259156632734 0.7282531433596876
P 8.937967994541573 9.00142370291097 7.321292369507106 -0.4353206753261664 -0.200776417423551 0.21444131650515325
Ni 4.54606608251479 7.551341524182184 11.166830812503786 -0.7157994909773673 0.027929379420416414 0.0742046083378722
Ni 6.745561579938942 0.6550845611147368 7.284704097984225 3.4222853747723514 -1.4712327942962726 0.5361398009277735
Ni 2.3505453346937326 0.7807970063261951 5.329110459028334 0.7495794156412897 2.5294122093050118 -0.0313898271651911
Ni 3.8403656571014526 0.7187441507578913 12.676793295429583 -0.1742601163005773 0.23781315846187429 -0.25751500776617586
Ni 8.981026223183092 1.067224944606759 3.3403103590353944 -0.6291294031826327 -2.090528242107619 -1.5046501934144538
Ni 1.6423291265904367 6.083564695455624 6.544683346409771 0.05874379369811174 0.45726015571173506 0.6506469655394342
Ni 1.818143991975296 9.072183598198052 7.506424047961619 0.11650542598861226 -0.5299177312774616 -0.771472101949323
Ni 4.608642669795501 0.8216237637787758 7.160073719900009 -3.700234996243795 0.9945872920793903 1.1084036012716139
Ni 6.592444872875751 2.899472283409034 11.046744742259907 -1.2488058884824815 0.3128400055907257 0.8995626616723733
Ni 7.789227949839361 4.919468088757457 11.449763776839228 -1.2257202103076117 -1.9214496700079808 1.5181885942205209
Ni 8.821596678514988 6.434240486320599 10.422511719946785 1.6819287848263806 1.0958208795105966 -1.4920013943021917
Ni 4.043321048011438 5.7635833238785406 7.634777597379933 1.0429849666564879 0.4619549900842432 -0.33697417963476806
Ni 6.171345871395955 6.405145319225951 9.764264193383188 0.6923854829288011 -1.887637863664859 0.94629940360728
Ni 1.9785742383081797 6.950312622434325 1.4607129972554616 -1.1562878265474024 -2.0335610806939557 1.075207059914987
Ni 0.12300587454055134 5.632425939328444 3.4883608970162414 1.8864662119542606 -0.02977388882832292 0.9171145545132076
Ni 6.847287112722126 5.24605222085168 7.5597670581055425 -0.27497691199636515 -1.423913697495335 0.8687523611597361
Ni 8.246838533555579 4.063821403611397 1.6133901437743097 3.7594642142187578 -0.31460172547683884 1.2431566606165043
Ni 7.593642212311111 8.342634675166149 5.642554536552328 1.779139624251439 0.15349331606687114 -1.3324970961545501
Ni 8.637327286915546 6.479571336499887 1.478959436021665 1.644953236043296 2.0007967417787413 0.16765392383796932
Ni 3.653664653980119 3.6151703731181537 7.769975197997175 0.7831379683230254 -1.3608051990706242 0.0721945198863789
Ni 6.24663230505456 6.357317391060721 1.1657809652946778 -1.0367402712983564 1.6693913144810024 -0.512797012436775
Ni 5.89538602071714 2.3977653599784903 8.518728240640826 -1.4324952685167587 1.5668384940177402 1.159926965961886
Ni 5.945047009875797 2.2956657331150128 5.789770844734126 -0.5852540419559211 1.718025530548938 0.5623318859421089
Ni 3.521833900085498 5.9021010094583675 4.864111517226365 0.8214576898388304 0.9476137515433294 0.4784434746575696
P 4.215815828433714 1.5506854292710988 3.9963264144100563 -0.2527828923978292 -0.16262407472354573 0.8188978995314542
P 8.329092469459608 4.513145803449164 9.282018579244593 -0.31425694054291037 -0.22342757916416361 -0.38051889699493824
P 5.317242324331096 4.490176426919284 6.13914572343489 -1.0344707585378894 0.1124176290724838 0.8046635010996271
P 5.166744275829944 4.4206978038572 9.629408888849412 1.5471304740658516 -1.6639984256002052 -0.9118301661858167
P 2.7629372964547505 8.152968976458508 5.3285081675590655 0.08210637968345214 -2.25219895177896 1.0658485015182224
P 0.4989554614700014 8.258641201788766 2.7038397841207473 -0.44365644888537137 -0.5555038072766819 -2.5159817948317187
P 1.7170357144245905 4.752500548371485 4.759247335109536 -0.25613278270666856 -0.9027387454075099 -0.5408714020754879
P 8.132964295514935 8.205360852403292 11.531947570103204 -0.36521569097896456 1.2464227329622857 0.7180322369626279
Ni 4.269788251867727 5.56057181885651 2.4376335013503247 -1.11566208260624 1.1344517045089173 -1.4300028411122083
Ni 7.523209649344285 3.7361523986843297 4.198869366596521 1.7399056184514812 -2.5484684546055143 -1.446527835350425
Ni 6.070284355605286 7.449054850278561 6.975722027602905 0.5557380347746751 -1.0810799737559962 -0.12640057361513715
Ni 0.1728632630913618 1.9969890194105142 9.432026564500564 -1.0262352580019745 -1.1055396494602574 -0.19535961728335385
Ni 0.42280112954512067 0.6619276770784637 11.63656578536224 1.0202034499855979 -1.2738232364624256 -0.9306159314337521
Ni 3.7001271387522863 3.4823950316707974 4.870942475132483 -0.7427279399370951 -0.3999350967380209 0.1254343530471259
Ni 3.870779505829127 7.928344185947654 7.119104806696918 -0.4351412123255087 0.6526007468316953 -0.5393426241357873
Ni 8.616406075475261 6.91034066995521 7.60630623216417 0.8058912028591411 -0.6136233371272336 -0.11034480570385512
Ni 2.789189348539186 3.911639931748934 12.521898706249809 1.1927082741579653 -0.11740891163948812 0.2968534003544823
Ni 4.895769228771009 0.9348695237645297 10.350786661932553 -0.013569511154318566 -0.6332287700629868 -1.095089657771527
Ni 0.6926941094768132 8.373263627989992 4.712584710004413 -0.500880206394531 -0.10527613293169613 1.7540096619530308
Ni 1.3653966313028645 4.942998606407774 10.874795203959655 -1.4057275135046112 -0.4008599225451354 0.6066353358451746
Ni 1.0894554853280638 3.796624706763403 8.07214033900039 -0.12536827569588085 0.9729784555603632 0.14586613853891653
Ni 4.857293652613058 0.3340809774632583 2.3499477194004674 -0.03153046650811344 0.9705978711433285 -0.11667074792188294
Ni 5.118981814128764 4.94803017178769 11.9087267106557 -0.21894588924372616 0.5099027216081153 -0.3317895501100351
Ni 1.1948284353940892 4.979510188644195 0.09675288722091525 1.9853660090459677 1.538143182965577 1.3595484438453875
Ni 9.332637249248796 3.4307139344785678 12.807816006110777 -1.38321442000376 -2.432771126340494 -0.9433513767225494
Ni 3.4200616055422755 7.940399367685037 3.3495083972345547 0.6891186392520712 -0.8543384997272512 0.6613640948466223
Ni 7.752548025266809 8.183251892258081 9.45202469879773 -1.7665095941922546 2.649301207053876 -1.381557086905995
Ni 2.0728365941895563 0.633651776019653 2.852547792447706 0.41610090786460596 -1.4354633500061473 1.0913368755973138
Ni 7.650916016003695 5.75279070966214 5.336269684489908 0.2705127055774244 1.0867667397281284 1.5707136607024303
Ni 6.559842573778372 4.224709915192637 0.1601711861822819 -1.3161176263552623 0.09673569956085275 -3.106230204678438
Ni 1.7441481828936956 1.8310782948013644 13.112076073963621 1.575231603177442 0.7420147159201543 0.5381920554711118
Ni 5.622091590360399 4.745626569646134 4.0407715968542535 -2.404900368072155 -0.8019373604177157 0.9769834629546981
P 4.977882879394929 2.894001157484775 12.738663780133747 -1.12606759421028 -0.6806008315890472 -0.03343359706809726
P 8.58130669839194 5.314343095208839 13.529987793879334 -2.461959317868676 0.21062091431779859 -2.513044309469949
P 7.238589520706728 1.2378773116835997 9.95381766386674 0.20104046971821504 -0.7588333301393899 -1.0414515607310968
P 8.531954336849521 3.809876989557719 6.082244143352196 1.3801231826729456 1.835710578667948 0.616769596065699
P 1.226074643450412 6.243396391260041 9.036235027552468 0.16562429500245024 -0.1306521498026395 -1.0890640204027373
P 1.1498810316471009 2.7367039490743297 11.060282271790445 1.9957820621729694 0.37848104062930304 1.279032805687823
P 6.24931643008065 8.807568150504066 0.8671210858237923 -2.207809112809675 -4.510949074412876 -1.3989655121904294
P 8.074025773165056 1.809128324640278 5.165304948856023 0.4170223912376108 -1.5855517541565274 0.43879217881453464
