# total energy = -381171.0023723667 ev
CRYSTAL
PRIMVEC
9.18254457963668 0.00000000000000 0.00000000000000

0.00000000000000 9.18254457963668 0.00000000000000

0.00000000000000 0.00000000000000 13.43958217812380

PRIMCOORD
 96 1
Ni 3.8061095307175603 3.6463975371355772 3.970173132058901 0.3778385219492976 -0.4256952364212604 -2.249819652913506
Ni 4.317659892958617 1.922209552837192 10.184904444488987 0.16252097348677816 0.5825119604344098 -0.003806775340599895
Ni 4.259727220762405 6.674093602209587 10.420231935889033 -1.7903439776076908 0.5465147164041942 0.9463788506949636
Ni 8.729422500240707 4.959409551295744 3.736580223283339 -0.23787820737185483 0.11545641589880762 1.3484032258618455
Ni 8.835205410955618 5.910326294776997 11.688336716989193 0.728023543847385 -1.6307620321445786 -0.06506330815823633
Ni 7.44130436376701 2.9810579224072526 2.1892544706174784 0.5726101279396655 0.12214205544909931 1.6346549394410816
Ni 8.059381422813942 4.454039041390724 13.764551312105475 0.9238906968947767 -0.3770620487945893 -1.3865830793656764
Ni 2.6658303580034177 9.542224594410937 1.1514681029837712 -0.1314957287498574 -2.0957797203145456 3.716356070175374
Ni 5.7707699860057105 4.906022238544312 0.23170405940628644 0.04855348342867122 -0.14549435702179458 -0.07196774858755348
Ni 8.21574178771442 7.920201598360305 11.026693076354857 -1.1879923567395347 1.1827169672732083 0.8638024733536285
Ni 0.25377705947369117 4.45139446862285 9.836913561905394 1.1297542990332479 0.33568220029622187 1.503870634935952
Ni 6.016770348683877 7.717570392566387 12.165120129877057 -1.1396476468875598 -0.007878374306812238 -0.43025405943653644
Ni 2.546916408892472 1.1111154119128794 4.072072744775433 0.924967217788407 0.22173039396739877 -1.8129128640471424
Ni 3.894170130869991 5.8550749255259875 12.619135424091512 0.04166652650085082 1.2375773667565138 0.4700997306785646
Ni 8.266245781545324 3.2935307235112203 11.582365564115458 1.2435639233572517 -0.7430115326157848 2.519922267536705
Ni 7.4581635151622 7.87636413171508 2.4928541791325727 -0.24282500985416894 -0.010218592404214659 0.8500478427716973
Ni 6.264074632657312 4.513881682808178 7.8093508414280715 -1.783193739716155 0.1744712038701189 -0.5199958441780592
Ni 1.3079891624100746 6.641624125448482 4.34443894699663 0.2539491447917885 -0.7074516332333042 -0.016065280992978784
Ni 1.4182531547594368 0.7398596350074732 5.947659765271234 0.6906512738465138 0.739910525092958 1.622757673782863
Ni 5.0385447183566034 6.667417892479574 6.4874207402118005 1.4548453540771848 -0.021793698836323757 -1.647148958143034
Ni 7.22507380981608 9.327536707907933 13.39164267722015 1.1709587982960157 -0.3889860539256849 -2.0392568455271523
Ni 2.712468500670174 0.4302793353683666 10.55731538547147 0.09628138563225354 -2.1824433803513763 0.7486234794859237
Ni 8.031925615258597 0.889354211510248 5.203349351025608 0.15472744558428836 0.17742797250559764 0.739668841395797
Ni 8.102236357215547 7.2781764636931925 4.999846721774499 0.6143303904965871 0.2779107978137085 -0.09764278475615443
P 7.107298496202413 7.1121376970658465 7.231113169223823 0.4579394411669468 1.266703851808825 0.7195607577920125
Ni 6.161762723700234 1.472769920463814 6.293272368872607 -0.548573912926068 1.7696093161635007 0.6848608924169818
P 2.8925473775825106 6.479295106731624 6.139630955349099 -1.483214392138181 -1.4913668460419862 0.31810691041661987
Ni 0.12664748794810718 2.0418672880391022 3.151151700612003 1.9289876302562392 0.928098307218221 0.9143531897179865
P 9.276206285087069 1.156449633284365 12.048625781197826 -1.2538341949350083 0.4288592359715388 0.24851897491515262
P 7.645413959198525 0.7375327782735185 3.129244904597024 -0.9971267706717923 0.32944264714441324 0.967895898831133
P 1.7383841978370358 8.447619397208598 8.595768730966604 0.6390651742391059 -0.6413403434265278 -0.09450166802401144
Ni 1.6408196643000625 5.901152932988438 8.564010901391299 1.3588802141337692 -0.03522282775803611 0.20850592485732478
Ni 6.116997820077388 4.488308296841075 3.5244900785721094 -1.009560882670087 0.3636635160004963 3.1603894643296604
Ni 0.07392499140637691 2.467790424375945 0.6949028162080693 0.1286811421191977 -0.9474481724997424 -0.7072549438414658
Ni 7.121779368615383 4.502210668961072 10.007852134188772 0.18914448961157748 0.8713170365631189 0.11280895097363154
Ni 5.369648901912008 3.906447192643067 5.75223502026977 -0.7661458046404032 -0.5869846514937826 0.40881800104994753
Ni 2.675031267424975 2.3423017735226486 1.8011992288550471 -0.6277088686860222 2.259271285244709 1.1806901666511664
Ni 3.942598869681661 5.3151964140179615 7.842801932178363 -0.8693033485671995 -0.7316876229625334 0.6316441991846863
Ni 2.373623432242142 1.2714977312311637 8.236031537672378 -0.12905626607042936 0.015493467649908802 0.027386619543068966
Ni 3.7683784560537092 6.063931896377607 3.944504247630736 0.2192927310601836 0.790071205107749 -0.04024959154866617
Ni 8.241287626048525 5.424431961402039 8.205025758477936 1.0796139307334311 0.43368442527432405 -1.5906322540032283
Ni 3.4441887283809725 8.395921672614419 5.620325934418915 0.4789538386350849 1.2881036576408396 -0.3975655680645798
Ni 0.964534456726931 7.860900727058491 6.5738909236857745 -0.1148087550124797 -0.877989820597604 0.5872034523728081
Ni 0.8476865800908857 4.4656733250604965 1.8020063745019081 -0.6517026604974583 0.341510891162857 -2.6268945572239017
Ni 3.5510735444158303 3.6086756450160586 12.40310780437034 0.3791996639628824 -1.1513482231539398 -0.13764889283544682
Ni 5.978433226094054 0.6854613241249902 1.6587807210151986 -0.6990898915321702 1.2852739015015284 1.2854376807729024
Ni 2.180119675515118 5.177384788669924 11.208651620092136 0.7637631633408394 0.09526862809702302 -2.1078914159764146
Ni 5.519186636373147 7.149042342739738 1.4309388397553267 -0.8252678076135399 -0.3107144746072907 -0.4938405259389302
Ni 9.103794832692698 7.3821228655415245 9.032917527750408 -1.5752544859955775 0.7491788377687614 -1.2876138624886146
Ni 5.228072433387486 1.9307217714337828 4.016028921948495 1.169678388921695 -0.8900171840757833 -0.10911684683402498
Ni 7.823481858901958 6.824604686370012 0.12814791569210168 -1.0312774484115723 1.0358928356963966 0.45079974479837204
Ni 0.7938630964836418 5.472080183945413 6.434925970769526 -0.6352455433826995 -0.8682121723855499 -1.1395507162983793
Ni 1.6711036955099392 2.5182485054851846 10.696105870045393 0.1786201930414859 1.3001898993814125 -0.9604242730444362
Ni 1.6680459082470864 4.185036405158664 3.6874177991794705 0.9197134255886356 -0.6352038915114867 1.863230895575404
Ni 8.472347989097075 2.2868483882963164 9.656473811000776 -0.16218955828928844 -0.7807252451164748 -0.6090110351662028
Ni 7.145185674119923 5.509884718963928 5.839914544832384 -0.21374711865160606 -1.6678612509897208 -0.7254233872203765
P 5.280945523656276 3.2980209876900037 2.0679080655127495 -1.3304294149922444 -1.392186541595383 -1.2182665822430436
Ni 6.058247901435547 3.1766002039761787 11.444046144065812 -2.0802991081804434 -0.8044855807608661 1.5714739359072227
P 2.635078017032564 3.8732798425126624 9.125113027615939 -0.038278840975540525 0.7599147361290268 1.356380073419735
Ni 6.212569741494123 2.500994504683681 8.935279533858772 -0.23110823563787297 -1.3082027423835598 0.5786447641695196
P 7.852930278577541 2.958624966601999 7.700450456912144 0.9408507217878828 0.11173551540379467 -1.8722518681270919
P 3.602330506882031 1.7790812343204112 5.917179227612634 0.47242169394352185 0.08089024788816392 0.03597153299860257
P 5.978121019586736 5.612444556617994 11.542382929581182 -0.31980718093717825 -0.5815264565926888 0.11862632898635701
Ni 2.738758125095243 8.413588887910903 12.827865675831339 2.178899885974493 -2.2120627458797064 -3.668591144086269
Ni 4.685971746150899 8.899510768918859 3.21794644634389 -1.5151552067108358 -1.911399999081463 0.9416634474971654
Ni 4.040576617713614 7.646626055050466 8.32438322448016 -1.2556542788628826 1.05586619349453 0.17673891685837304
Ni 0.4495984903903372 0.37338061766403724 10.034287761068734 -0.523972055216988 -0.20564685814197484 0.04668043477567445
Ni 7.300737975119106 5.517662334013887 2.1116812543476438 0.65630493515616 1.6946179502582752 -1.1817553746908873
Ni 7.69989399472557 3.237039710775271 5.070458651185568 -1.4969430545781832 0.05592560752302627 0.2884813742407032
Ni 0.9999148000415624 3.3158626713288126 7.92564409238641 -0.6338085538258568 -0.46473383838096094 -1.4198395274259612
Ni 4.860109516879854 0.6447321487364497 7.990920045285637 -1.7463768279981216 0.08698119127725021 0.23869067597082116
Ni 6.865163984688394 -0.18815951592528127 8.525667351020443 1.0822683376371425 -0.7316462282016367 0.24014309214663157
Ni 8.971905948439375 0.9725967306512099 7.700302617948384 -0.11947530725021359 0.020902811590938195 -0.6076347236439664
Ni 0.39115526872921547 8.810733930308462 4.26334422497513 1.5337591949652682 0.1474548231822751 -2.556505723087694
Ni 4.088711515106632 2.931931310226283 7.82973884461039 0.2977507153577711 -0.1998611046981332 -1.1149090064902991
Ni 1.5336869195682168 7.320829382119474 10.697476823914293 0.6444606342230643 0.7503504894793593 0.6383079843581072
Ni 0.4775887220258573 7.159923657774214 1.813348653261896 -0.19209894425421112 1.2046397354882286 3.005807543184301
Ni 6.267922118732793 6.651017868301031 9.395894322685278 1.12783882717809 0.586861238542041 -0.7494454611665867
Ni 4.676532090576686 4.3578151593263525 9.932267857021442 -0.4581073342033788 0.07698808462028031 0.007519191195180598
Ni 1.0820342940106116 3.9372821765129173 12.626486969084427 0.2157862605688219 0.5105341845445271 1.5552399905468637
Ni 2.7719254752256473 4.253014780855061 5.775606432105845 -0.34603423295450725 -0.055333482464982126 1.9205945210965374
Ni 0.5995990250858543 8.371468557055929 13.011249350449082 -1.8418740271661829 -0.22848828151652262 -0.42763384820487
Ni 0.6244993305533563 2.762146065511118 5.484962375390028 1.0177079372572537 1.2202936399754016 0.1382962966114586
Ni 2.914952785754766 6.570009462196261 1.331828884007128 -0.6868041321862817 1.4400293721102748 0.13378761010782764
Ni 8.88741735803244 0.3209391069788935 1.4783538256726454 1.6216703542559552 -0.23106401266349885 0.1653972665933087
Ni 6.148870431456855 8.49138340349916 5.417428434839342 -0.6378881232118692 -0.3105265269662007 -0.3561384112680447
Ni 6.560863648040701 2.452060725933702 13.695606014490826 -0.7739295623508801 0.3116513845992632 -1.8722503254651948
Ni 4.425444598338099 1.2808547439063802 12.579730371595776 0.7565753873431487 0.5208643628259416 -0.7338118683943877
P 5.939168666526609 6.736902205446565 3.783578321687945 0.07787305832839492 0.6860145464054508 0.15670693790816237
Ni 2.0248061206685897 1.6425276175459806 12.845216093348338 -0.03893267250945553 0.23961678732951636 -0.013062232500596857
P 0.7304548731017256 6.071746241604898 13.653539860647417 1.066895197615182 -2.23669160017198 -2.767119695426957
Ni 3.578777280668164 4.386235134036652 1.2995256112984483 0.04161896109236703 0.05169151483702065 0.20357480610429454
P 4.754666360305261 8.811156327347776 10.312097375570467 1.06264824941337 0.6423045071120099 -0.4826030053518979
P 2.2131309223918634 8.071043254116715 2.967204217772219 1.047786758920505 0.7043745369698773 0.0026243249967245127
P 4.609049572274267 8.787401085158585 0.3445410006777247 0.5197060808517824 -1.3381769201481468 0.9169857422448272
Ni 6.690539539109795 0.7275302327316997 11.062280945171413 -0.47002748267973243 0.3385446094456815 -0.7631784944819632
