# total energy = -340863.7495986858 ev
CRYSTAL
PRIMVEC
9.32266034913257 0.00000000000000 0.00000000000000

0.00000000000000 9.32266034913257 0.00000000000000

0.00000000000000 0.00000000000000 13.64465576990810

PRIMCOORD
 96 1
Ni 3.5328780957916797 0.01260050780109573 10.529676432903933 -0.4284342326189783 -0.3888245886471562 -0.3963296387749497
Ni 6.049921823398544 7.118969937165375 0.46904728380690225 -0.330631782356508 1.755497302242151 -1.2884967793142004
Ni 0.5037163933146818 7.587592107657888 10.839942029253969 -0.14104583433213772 -1.6321473425278794 1.6963202776613624
Ni 4.530701084077324 5.350368032055972 8.904856986928532 -0.16171210443223763 0.9869084353778939 -0.17923597224861387
Ni 6.178015177339841 1.3494737386979943 8.633191865978347 -0.16564100717299862 0.25838738306880016 -0.223700373209576
Ni 0.8404686001365225 8.498248221172709 7.662074570683985 0.17749687807032014 1.5939363786757967 0.46050823033538757
Ni 5.916505230366966 4.533041071838552 3.8657352950970223 2.303737228867568 2.024628039870384 -0.5947306139877887
Ni 7.143134272930721 3.521485804778851 7.721742394063205 -0.10290866114078406 -1.0263928666257611 -0.7840301411199917
Ni 6.255346645385186 3.9133265441898115 9.902294949339522 -0.17916500980136243 -0.42474547091348136 0.8352310894738388
Ni 7.905056662371348 0.8900120143177618 12.381665806256665 1.390348974166012 1.7204043151937596 0.7284002104605133
Ni 1.3591972734986328 1.4313733103409554 7.138706941505195 0.4322847167133201 1.0984369769772049 0.7102312528609703
Ni 8.580324923363333 0.04534542020163483 10.363907411474795 -1.0736528280539899 0.5380537301210346 -2.2761580336977185
Ni 0.6850309509663173 4.40739025492292 2.2115802336305683 -0.2782643244983853 2.5366879170308185 -0.7821619775630013
Ni 8.919315500948006 2.0426974436267287 8.669363788343139 -1.167318630440267 -1.7421401642089547 -2.2865725441628233
Ni 2.600006082535802 5.150499515669695 10.468207471534798 -1.1253003770269523 2.9213696871541943 0.5213436164552054
Ni 3.3487369075057645 0.20596273949191155 7.914228295676112 -0.4404412843821834 0.4569251409698195 -0.18545444235449993
Ni 2.910627804513242 3.3808255046139113 6.5357769316465495 -1.0079819682187414 0.8887177485380694 -0.9467706868167436
Ni 4.682063798385249 1.8741623888559322 6.546760890133713 0.94384811385331 -0.04781634815233055 0.49034176875705227
Ni 2.4393020625037747 6.667613333739769 7.196477603492343 -0.9517311161458126 -0.3725384498926229 2.1739764805309463
Ni 4.7469868054338065 7.778799872529502 8.438278343596423 -0.08658061340472187 -0.6871975109699585 0.16124467787751584
Ni 5.641449457828102 4.994550052443349 0.7848831697479066 0.4370101472134474 -4.326538242831542 -0.6687524168908935
Ni 5.742255384768948 1.1468923281343586 4.419818293506555 3.4167148226631094 0.14535114657571097 0.7259952005634465
Ni 1.169565038235176 0.2863529724155788 11.576439659242725 1.0139600401790474 1.249852584579441 0.7191596656988518
Ni 6.971587998849659 7.104118939142924 5.896319806061748 0.3571995055427074 -1.1872544501322455 0.3677070899422506
P 3.056126565427493 8.719018142183177 0.14309724359436135 -0.5264547124295256 -0.09976085954042174 1.2117904876003969
P 7.1701606654398775 0.6631497347337398 2.745959789277733 -0.4723234778027608 0.7641254317762647 -1.6216441290037105
P 4.472742104350029 3.4609071574782293 8.143185377052754 0.47653803010474055 -1.8350338643158977 -0.932095344192756
P 0.5032838218719687 4.641817873424217 11.310778331592262 0.059848339616200154 0.5618703729246581 0.41759189058783563
P 4.2555427622740245 6.487602084012514 6.304717590348964 1.5746489912010946 0.3379134036195858 -1.3033238170247037
P 8.165177532944131 8.742986702080053 6.722517277652904 0.16920301349264408 -0.07639390267970714 -0.34627128866597784
P 5.955651081400409 5.615802819058633 12.380710233565326 -0.5487803725099194 0.19381824093816297 -1.0327892570704085
P 7.48480045405114 3.7354128930532986 0.8319020074919332 -0.7454610225975419 0.2524113679910233 0.44710172712149454
Ni 4.720482481907235 7.9563872305519 4.260639460716506 0.7930552274367375 -0.5492305726734605 0.8625490605625016
Ni 4.17869607256965 2.5535792337273846 10.094520748727176 -0.36989741272535004 -1.2765689175283628 -0.721051740515242
Ni 1.2178004831618328 7.394827458498923 0.7143647019252902 0.3999970603242079 -1.3024694394442087 0.08762216729535877
Ni 7.699436064516237 2.934363297900035 3.826180179271875 0.477752619238132 -0.9651450755588733 -0.7786130838694785
Ni 8.424002553720856 1.728607691979262 1.0034743850221237 -1.1081050961945884 1.0746519587424652 1.5242314579804912
Ni 5.986658249901773 5.260572167051418 6.687272959998241 -1.1262118330976283 -0.8196828573265948 0.6287905317859752
Ni 4.475809259622714 6.858457514855655 10.883564621813074 -0.558019117499368 -1.3112189035020643 -0.4940138182920008
Ni 4.082020084187464 2.9959115018825995 0.37079483355051873 -0.4720607110596773 0.4925390335186872 -2.537757238835597
Ni 6.87914449829057 7.257644510664414 2.623662333309167 0.505115327521801 -0.09706891453055541 0.591340100249001
Ni 0.5528542717683776 9.443948215143523 5.370086391074984 -0.3265910366282311 -0.7091583315117658 -0.12830781794017904
Ni 0.813584844331536 2.346634818095006 2.850477999591172 -0.15740987751245794 -2.3365051673272084 0.7282978805546941
Ni 2.3079178094401147 3.2336952781290837 11.613170941231713 1.1370251216630483 -1.488446587071398 2.368076000154954
Ni 2.4337177889221997 7.090601081558144 4.927726154938559 -0.9134697586717688 1.9446533618179542 -0.48740351206433474
Ni 5.906567274377052 9.089463375968572 6.679413957278262 -0.7011244054636958 -0.09415585464881848 -0.2300671959678683
Ni 4.788109060472748 8.435227036846424 12.468923110833401 -0.8939360595142153 0.6829850155505076 1.3658869844689057
Ni 7.610218204456689 6.083819016624931 10.938538485679233 0.8080941240477307 -1.0271276879092568 -0.4440449425730417
Ni 3.7498630166784084 1.0608441726119306 3.8491577403678807 -3.1637126151656227 -2.0596778323856655 -0.6966470864186325
Ni 7.677052356887922 1.4916070192066548 6.311895106593462 0.12065004428460513 0.39876010259331324 -0.13290829282666786
Ni 0.9071890161108358 0.33591782871574566 0.5383304991260818 0.9371748155981924 1.0387899547385335 -0.10515657663469632
Ni 5.845662333962315 1.0260426813264243 13.605400162765195 -0.27775756006529584 -0.3518886348527553 -0.4513551030812098
Ni 8.319924372978452 4.553606860688225 5.8561904143557575 -0.5281467554199678 -0.11969230835702614 0.26789660811081606
Ni 5.84459955067634 0.7731664501530434 10.948485764329552 -0.7065879996814283 -0.337366015756548 0.5598201752638488
Ni 0.3271843604499373 2.608732092673287 5.262852489786065 0.559540696350217 -0.335558530234164 0.38868472063518217
Ni 8.795790250604325 4.225738216964685 9.351337838963214 0.1459882659390776 1.9474833750675813 0.6631996053934642
P 4.173149089629689 1.7851216593440462 12.184049644623826 0.4798007600164123 0.07302652886937101 -0.13283861593099705
P 7.154498595962339 5.5102609806329115 8.771726599571336 -0.5810482314046896 0.7284066382184166 -1.1653260254902704
P 0.5791367159773515 4.13409646520028 7.472632517692757 0.5444218384309075 -0.3386603090879393 -1.5007017502896671
P 8.410428760173655 5.7570504468289805 4.128790939164763 0.18072464097899843 1.0339822489372452 -0.7787712067138975
P 6.244112839599213 3.221669046208831 5.475505170383382 1.2414579327578426 -0.9635517629298245 1.914429015715774
P 3.676372484719221 -0.025150673236013662 5.715228059993751 0.3157450950526627 -0.40835520248091606 0.5611918588003948
P 5.247128890749864 5.980151032940273 2.515201569911173 -1.9814774726248392 1.866698028188398 0.820623109752677
P 6.153431321856347 7.993146480522098 10.179813768756938 -2.108711597884865 0.8757519324060208 -1.8330124630104947
Ni 0.1931981528677178 6.898106789550875 6.051868394890752 -0.5994989819107095 -0.3995931400175699 -0.852846231452441
Ni 2.3369578965963838 3.712581697725625 8.80411911540863 -0.8960027122352568 -1.1083089846752785 -0.43488333067843166
Ni 3.0120863176823196 8.213683335022482 2.67330177089256 -2.62105635327557 -0.4975519133522463 -0.8732600192221025
Ni 5.55810487382263 2.1818195048251243 1.9031978146819997 1.0212280345953704 0.7255791960719503 1.968952857795267
Ni 7.077745132861999 8.126302039062384 11.904757655197702 1.3019894144839963 0.021930995745136423 3.3588704008508152
Ni 2.9149255509591616 1.6238955703294342 1.7854852430997747 0.452599259900956 -1.8859378502546167 -0.12637589102478883
Ni 7.833728987625725 8.832950374971865 0.6946015941363417 -0.13712593045244126 -1.2777673087118382 0.5363570591449021
Ni 7.275357565430676 8.596723483012731 4.320962667122078 1.4573328963857288 1.4960398260376233 0.7312533636385923
Ni 3.709402670528101 5.344578659945524 4.336421502602825 0.30982641557538254 0.8288262143887597 0.32290356047431484
Ni 6.5261233167989365 2.9677757127854507 12.229364300046129 -0.08817803979882878 0.7651908969263015 0.7758458055369863
Ni 1.7655627178179298 4.997337527903935 13.188323913908551 -0.8546845702127603 -0.5132616107780192 -0.08930906807947846
Ni 0.6177232073865963 2.592128434495016 10.486791262782729 -0.8917789039618964 -1.643899340857485 1.2121872088181833
Ni 9.082490025986907 3.445245088000691 13.126077442661781 1.068960564784643 -0.14530666649102073 -0.9546745150448525
Ni 2.345264387015721 7.376741497316528 12.17670898182227 1.036391115489054 -0.2201296251391822 0.2549793858285157
Ni 7.4310366715053275 7.686626729122108 8.581123875359895 0.10151126657262517 0.038737525779513934 -1.035515654862636
Ni 4.356283430592048 4.208603167143426 11.642193315333216 2.027600492235147 1.5973443759160812 1.4298521744669568
Ni 4.974366492670211 9.096744373743547 2.030134226467246 1.4021948177610046 0.3749473164444317 -0.7528465164283357
Ni 0.1479394334078336 7.50225247432611 2.931186135234592 -0.016147813404456063 -0.8104181441952172 0.6695769696747178
Ni 1.3138332079761914 4.839187916822411 5.172020877210705 0.23363614426604923 0.14757952168559746 -0.15278651980783364
Ni 3.6046905488782732 4.059561795275923 2.395046461303285 -0.5550674910702118 0.512685169449259 -0.9256984395274767
Ni 8.276835036594415 6.116858525094214 1.1060143267979834 0.42576748442009255 -0.7990682664000367 -0.7331667786112211
Ni 0.21370987028705107 6.748468767417561 8.895278885630185 0.23278459489903136 -2.8076536509852614 -1.3310516219572752
Ni 4.370397938442639 3.1311180457116112 4.349588828156441 -0.35918182608005883 -0.6959947975466142 1.2133745442580652
Ni 3.440882082931948 6.050276084493869 0.6808357537848339 1.1374436972577056 0.963920973343785 0.28518881953236047
P 2.3687947818736417 2.638163731566495 4.44197639275311 -1.5777397143112761 0.6839160120052092 0.21081297572394658
P 2.2544803200084185 6.007988496904516 2.4782101856969327 -0.5219007745102561 0.15993084416209874 0.8041212554429119
P 0.8298901773769018 0.16862362004462786 3.257074645888471 0.9486301086229856 -0.050536318186654904 -0.9753351287179978
P 1.8593673267959006 1.0463194677035945 9.468518086636411 -0.3509887487463052 0.28188186664631454 -0.4803831148824437
P 7.4834766362738705 2.0249284528980454 10.441845784712395 0.9929597837782964 0.7852254469796734 -0.7764322741680757
P 8.886136152572673 7.269391062772566 12.897583697507182 0.15640071952165321 0.4222209047194148 0.30442941292952735
P 1.5842556182946168 2.8029231088739563 0.7345286841115805 -0.9192472845854942 1.098233088496515 -0.712297905582012
P 2.482102396415309 7.183231035325299 9.41357125848542 0.5900578911024676 0.2465263699651561 0.595067171391601
