# total energy = -340875.1178016545 ev
CRYSTAL
PRIMVEC
9.21891553845621 0.00000000000000 0.00000000000000
0.00000000000000 9.21891553845621 0.00000000000000
0.00000000000000 0.00000000000000 13.49281475279308
PRIMCOORD
 96 1
Ni 7.379188915546846 0.9674330178370473 7.4849234258525295 -0.2752491918211453 1.0376872085926578 -0.8407841580815844
Ni 7.775537759990034 7.329167078737395 1.497918008200102 0.12815612285366315 0.9075325672517274 -0.1878136866152959
Ni 8.539278834534633 2.9746951988234565 0.3651686276247352 -1.0018658280186745 0.24718200127128398 1.0038129244427163
Ni 0.9669536342185268 2.0962154989691584 12.437393181773949 0.3723813554894684 -2.4602042828507824 0.7043588532405934
Ni 3.8174055056035434 5.761545770512859 10.774983903794327 -0.7191025872086713 -0.18684463783380725 0.45016699631037954
Ni 1.364998759158018 5.114368666594633 6.597459892608846 -0.1303983819206206 0.07283035369816489 0.01319464431340308
Ni 8.235220555572354 7.0915956200975945 3.977560197418603 0.07079841086980065 0.5804267957706069 -0.1566539731830399
Ni 7.983719315248241 6.497086181806424 12.670144991264474 0.6585808756745303 0.6540932722168218 -1.6050746546808035
Ni 0.27019627955483355 9.370198148082268 8.59883579589477 -0.44796458934242206 0.02574368462300728 0.20794516725784828
Ni 4.193859929878137 1.480788340862166 2.830158272164846 0.10649894959520369 -0.060293140463102614 0.5529329612257122
Ni 4.547239408053567 3.4114597698742073 4.407036293684696 -0.40791374406812325 0.6878667691228412 0.3339199661894765
Ni 6.823970496142864 2.3945672690878963 4.46388197192547 0.3667550104416264 0.6473981195848334 -0.3768676733955961
Ni 5.58517869347607 2.321820804977432 0.30752182560608793 0.9900420959108691 -0.5642748686010927 -1.0972627541634459
Ni 9.25145851334107 3.831095595478596 11.579642213962787 -3.5082342681303453 2.348212171351491 0.8357347685831348
Ni 0.11164383529552117 8.20524986049909 10.868556820454778 1.0851163486088988 -0.4006984572666067 -0.11860164639600865
Ni 4.078909269506399 1.3316262841764082 5.419753547532009 0.19347037068044098 -1.7601908510630784 -0.6448545272273732
Ni 8.425517414293456 0.4998984717183079 1.5997483076895673 0.16939430356784377 0.6106467709974129 0.9493492461771972
Ni 8.678383054147204 0.22938321767884354 5.056149369908484 -0.6230690559211656 0.6451764293431663 1.4822332591718343
Ni 2.1181933940951687 2.858103571449861 5.508091041943274 -0.36522520406066133 -0.726106272220014 0.5310497879993757
Ni 2.381587035724883 4.518937336729384 12.760412004740282 -2.429126073388739 -1.8238755337062331 -0.40814848578674867
Ni 5.26885925657856 0.10911785238254851 9.123665903342433 -0.16647790125199718 -0.007418403951258192 1.745594184195826
Ni 7.531817284551137 1.719844044936232 11.998297146932355 0.10715869466638965 -0.38076932244284745 0.22830753296428424
Ni 7.484109395592619 4.47243712573291 9.231689470426552 0.1071718072925122 0.6813546790359362 0.14006058760073298
Ni 3.2532355190152664 2.122793633049816 12.479625956674019 -0.6747346026162573 0.43949074754345596 0.24152043211013244
P 1.0216863369715148 7.777215602654856 6.958446820053565 1.3318890302569062 0.518393532687946 0.8612995044261168
P 6.4301291967811665 2.9421247695112944 7.908557495213693 1.3863483376470511 0.9917963595978145 0.32386746704948094
P 8.152407035472963 6.173981622923701 10.460399466839231 -1.071194339211168 1.0017118189393135 1.1770934504388437
P 3.853672720127757 0.706802285254843 0.3620719938274085 0.9327990551279999 2.2160883220993317 0.06474089182181109
P 1.2084984455426024 1.2088211075935293 10.33594133866403 0.00960615563119636 -1.0485601467514198 0.693550963991812
P 2.6062243555803755 4.785124309828555 4.729380292018804 -0.09522646200517794 1.0408612354452655 -1.6471769831674923
P 4.968405573670925 6.145421421958777 1.2128931026762304 -0.3943244354194628 -0.23001088880863615 -0.07668392311630019
P 6.057602030612143 4.726823886683887 5.284028982430007 0.6540691038471057 -0.1751530604284919 -0.6878099477429767
Ni 6.114786964952177 2.3557740716507105 10.032015812088419 -0.951157760140846 1.2419158462308677 0.3622149564794278
Ni 8.712115066842705 6.585338862192873 6.289743547880627 -1.4796541855907483 0.09975211778967336 0.1458075173868392
Ni 1.8217130638718082 1.0141452638955597 1.4036306255697402 -0.04392164108361468 1.2970012172407857 0.10589319769040473
Ni 2.36609925728038 0.659291681093179 4.006920600269827 -0.8800790990264649 0.4902934320176201 -0.43464678918759336
Ni 8.212846247069491 4.243761920782958 7.078263224153283 0.12155044461168742 -0.6867737931689785 -0.22921564660085042
Ni 0.3656830431230705 5.50547194798132 0.7429902171036856 0.6851072040998331 -0.32123028653695 0.10199309130505015
Ni 3.0436526885644617 7.186356854997031 5.967844823176799 -1.1867003774009885 0.3346905258069139 1.2820106573692245
Ni 6.427105392418191 5.8220310766880905 7.210385036983791 -0.6872720729616357 0.24753681350754142 -0.4131863053209723
Ni 8.933083258233367 3.1098813792461977 3.0619513144183284 -0.10174780806346348 -0.3973171994991996 -1.1702311761013717
Ni 2.549048640156082 2.748896295584627 8.149134320384988 0.25422630971257504 0.9761555677367639 -0.10928114032603115
Ni 5.372747218061366 3.9627878068355833 2.217423037454161 0.5251233952126118 -0.5795091690523438 0.11533300294706589
Ni 1.9262371305407278 3.353721700589727 10.563336036217589 1.5239483795224336 0.8565326791650926 -1.4509077095856755
Ni 5.054178365723105 6.720045658997093 5.183588895434251 2.5710887631081913 0.2387017317144147 0.04493902660453551
Ni 5.944430620978376 0.3932476011879911 1.9481062424609972 1.8115712624175833 -0.9960019130387298 -0.6230651992664237
Ni 4.611495250766778 2.6560249384120476 6.983246625287826 0.20227537056658065 0.552136690576662 0.42470407615258465
Ni 4.810568517273097 4.225305651469924 8.84933033061999 -0.3341210264566891 0.466065669818507 0.732062746913765
Ni 7.062629786840075 5.111298767652955 0.8301145022034645 -0.8562765972902285 -0.7938905788538392 -0.3745187135474453
Ni 2.314454891300551 8.243019758289051 9.66649594377396 0.5275908829164978 0.5392516070838778 0.5145240224302107
Ni 3.3618343464416096 6.745535961020339 3.516484423667851 -0.3514826576635882 0.4029085775440481 -0.49764730127953005
Ni 1.1605139891118625 5.790447071360192 10.800903807291093 -0.06650415436982095 0.4534348684283739 1.1308812135488395
Ni 4.0282605464265755 8.364202405701553 1.4887968129661782 -0.6381992266943848 -3.4058989629945278 2.2112268802419726
Ni 3.306207408861766 1.4352561160184727 10.08382796233473 0.862027897951709 -0.9009901381475194 -0.23707062386889494
Ni 6.136257819712445 5.187354822514358 11.01948798707119 0.19317803625100277 0.3410936011197803 0.44641832790122465
Ni 1.1563286013655503 5.634407703531815 3.2208568431505125 -0.44387910641913875 0.21713686105944538 0.7950218642448049
P 6.932034626456241 3.842056886294379 12.328614585490662 0.7528138634181873 -1.2156245166345063 1.7190719695355816
P 3.6132710543555375 0.833184401145143 7.950115445481538 -0.6329379782954454 0.28034383273523333 -0.8286351814238762
P 6.9200776927404535 9.179892070445426 13.345864780207716 0.22251689442443615 -0.47268574623818593 -0.1422066874094583
P 4.239539657373682 6.568468246387252 7.633573832714675 0.6416905276770949 0.048723947568264474 1.4642741035902522
P 0.737601760853202 4.43383752552628 8.646546450528009 -0.6806183150905439 -1.1659019525983985 0.2301715827562165
P 1.3480912676894343 3.353445133117503 0.9742743752082772 0.9662663336475101 0.30089697429623663 0.5066793295748113
P 7.10616150696802 8.060042718666127 6.151995430773524 -0.13692872683997062 0.24329912127711004 0.10249162820802347
P 4.281181499774768 7.989822237468635 10.948907046268236 -0.13313429279454492 -0.37936164346204343 -0.8080632708097953
Ni 2.4007347237184753 3.1241430418971787 3.1170970245965033 -1.2516819244786959 0.49381712890016244 0.40566711412579165
Ni 6.199600989767317 6.096957581909517 3.018532065062421 -0.20940915339788452 -0.09917104847522275 0.6830966014277075
Ni 1.3119715558170735 7.893604413882154 4.768846470305066 -1.1999649557203786 -1.059495562717001 -0.8685307320672332
Ni 4.980731264016343 8.681038101880548 6.869826304929058 0.23287638328188925 -0.5632065752375784 -0.7315169017126241
Ni 5.315709786373184 7.67535580263502 12.887473554720676 0.9656389844761563 -0.1804986410111214 0.6541331243158218
Ni 2.5479147135199662 8.953844256481595 12.433157089991061 -0.43747577399595616 -0.5939713672242609 -0.6133022063423889
Ni 0.4453658194368949 2.3259600981450403 7.346675643512277 -1.614040862735156 0.7410266409752722 -0.3142140031201169
Ni 1.466628086284334 7.95983310456389 1.4507070188000135 -0.5660376169284703 -1.5431167249207682 0.12482114494315923
Ni 8.691455476667624 2.448479488339955 9.761066347117564 1.2608540778962671 0.6669927538873093 -1.0651111091315657
Ni 7.098048861116137 8.072405284674508 8.405160204554674 1.5754974552443188 -0.3033778317365614 -0.540501677440895
Ni 5.071860246113915 0.6965010688060997 11.749530237016957 0.43309512842975734 -0.17039394847695172 0.11441151957406101
Ni 3.7785662135876534 4.804852789513816 6.514007501648618 0.8962117429222695 -0.09777982455465097 0.04231367316654648
Ni 3.579188722861888 2.998507658181881 1.180129076133512 -1.5562661178185326 -0.6096568962803178 -0.8632939091483263
Ni 3.3886245155843047 6.382836159030984 13.139721527219795 -0.7504942141460752 2.783942937631883 0.41996321903348965
Ni -0.030483266788450352 6.8651237360096875 8.742480331509674 0.7342188740248193 -0.7896729412280659 -0.7975790834490198
Ni 6.2991652797677 9.295063984794941 4.485173979720367 -0.6223825713771023 -0.7896929958327238 -0.03483844783542388
Ni 5.62057932992065 6.728840504613794 9.382525682210835 -1.410185806386281 0.21861395982560414 0.21467862932693996
Ni 2.367150213674828 5.856841702525261 8.843905920598118 1.3511957010053182 -0.02225932561883263 -1.5185516339868943
Ni 1.7183874562491894 0.5741688226007227 6.65139147158396 1.4975390362909693 -0.7409122268845949 -0.6172966722137626
Ni 7.025818656287157 8.38981255362943 11.140815371460823 -1.0418081727395672 -0.3988925144061195 0.06714770149109081
Ni 8.77418602652535 4.741693997773758 4.914920190217663 -0.7653436204540819 -1.0506820781904291 -1.3570925261057274
Ni 4.670118335962373 4.4351742683086925 13.030052383675947 1.7798109392868506 0.043634448860499046 -0.321768161318291
Ni -0.09137604903942485 9.103845234499763 13.057766288175868 0.3900857147477669 -0.6568677496381654 -0.651600073481323
Ni 2.8682996922591593 5.18452461538194 1.7756138757100572 0.6826579712283921 0.24162481889848064 -1.1124659442664453
P 4.209006608440232 3.2299393189383254 11.078707536115214 1.1938747836622405 2.3089604249397206 -2.0306019980656322
P 4.211753845330983 8.708943759827877 4.228405050941974 -0.04359099721707331 -0.8115792543828539 -0.4594689904375958
P 7.05198193915948 2.2269581620048453 1.8883731998102122 0.06616579719379573 1.4232920047509359 2.007133996850679
P 7.503376929490842 0.7822664857256882 9.783936633287283 -0.3444702309014971 -2.735464530415521 -0.44708141540652035
P 8.249325496655743 5.229125729735815 2.6571809904459416 0.2763794487708466 0.8506980747611865 0.5117770558126927
P 1.2193030147907917 7.125899205569023 12.709098597835547 -0.6377737091211919 -0.19772708907426595 0.4427545058963923
P -0.18405565276459546 2.4024125663832967 5.202613971848491 0.16132283941361894 0.5691990453755874 0.43771180126616227
P 0.46472277681780255 9.193314811763996 3.24700537575765 0.33701223196155505 -0.7701623819989639 -1.5908384564767635
