# total energy = -340867.6439447311 ev
CRYSTAL
PRIMVEC
9.23792913565154 0.00000000000000 0.00000000000000

0.00000000000000 9.23792913565154 0.00000000000000

0.00000000000000 0.00000000000000 13.52064307420897

PRIMCOORD
 96 1
Ni 3.9775104575559204 3.1887668349581078 8.631781437634778 -1.2964494585023736 -0.7897328479317237 1.6135556955686212
Ni 9.007516650811985 2.514019257181239 9.149161817363 -0.8424204081334266 -0.04338248075069303 -0.5770277973913869
Ni 2.9238045531465753 8.467892261657154 3.2772144631212883 -0.7657362279068103 1.8162738100995752 -1.6074976622999992
Ni 2.4150717988281487 5.147235513254264 9.145511911584334 0.9165743657390214 0.12760102168114154 -1.433449919120544
Ni 3.7127791239713344 6.436998219390479 1.3363190973099686 -0.9034874506480763 -0.11067005025375778 0.42153339173408694
Ni 4.883695872520724 7.0990344067561955 6.691081915919909 1.6926626263041173 1.271110465516953 -1.7298816585565757
Ni 2.985938864124344 5.601640006665723 6.392276480931591 -1.373141866259106 -1.5827952744573128 1.9466274548251896
Ni 2.667960107334902 7.665559645385791 7.474900798526308 -0.6143167636498323 0.8513971577107401 0.3607836233495399
Ni 0.9907494177436458 1.6492567162016152 4.239208055231333 -0.8127740460219035 -0.053283799024805005 -0.6651711272975384
Ni 6.736140838790139 3.0009966885212758 1.6293046369792266 1.1440118373935266 1.066729361461279 -1.8415621523527186
Ni 6.155112051508285 6.1800914117348515 1.2606244302387908 1.099234790288152 0.4381861697994195 -0.013293374674796462
Ni 4.160606211879348 4.7123507639843485 4.676303440929583 1.6256496506186777 -1.4237974836324447 -0.8480701502200363
Ni 5.9589631033978225 8.796383781737214 5.054178158481226 0.5335874668195649 -1.1574893030546711 -0.5665320400663856
Ni 2.5741951271944985 0.9586291383398838 7.813944804992023 1.8798949864946466 0.6403088168382198 0.7411572530158655
Ni 0.6938719385538801 1.6568872456199375 6.502118229046216 -0.831995613255677 0.5589871378395921 0.84583046225624
Ni 0.6284572389605586 8.42006750282101 4.1967939514560975 -0.056326185395554604 -0.7260445657441431 -0.17716983374820455
Ni 7.592265916081952 1.6433536795208548 3.164614269384011 3.4082579501450074 -0.40445535320587767 2.071209487174349
Ni 4.8769152325775655 0.534028051719456 11.80494079141582 2.252547079146998 0.729719443492569 -0.6961248953665754
Ni 1.1942055677547048 7.011495790814279 9.767258718862724 0.3931365857589487 0.6597689824453605 -0.7133402308035973
Ni 3.7213334462974443 9.317005750778861 5.792351509720949 -1.6679579244685854 -0.6390482049582413 -0.16054842314143963
Ni 3.627254376568393 7.0687062855935405 4.715824225317628 0.9073029677394246 -0.9903927943820686 0.7458086357449478
Ni 3.004368532634699 2.6797384669091895 6.113237442791197 -1.956688181495301 0.6147106566541413 0.4813526778845646
Ni 1.8150221155749553 4.058610236930561 4.308947953218914 0.3456549952382176 0.6128494350756865 -0.4796750330718255
Ni 2.4116814788565697 4.0812893528167375 0.5089091987638136 1.8748581954016874 -0.9565560483382816 0.35052363618442856
P 2.092852832591964 7.914669640899695 1.1834794083023872 0.33945452285446054 -0.21979666727979563 -0.12302702915721395
P 5.446174898214211 0.4629043119560096 6.931479620520471 1.2546564337259876 0.2544366259511682 1.6003821343011406
P 0.8962343177621189 8.958454009479405 7.544910444042963 -1.5931053981340693 -0.5563203896407064 -0.0319968646215707
P 3.2862824143041274 4.691971892438562 2.6379183619736617 -0.373070411136693 -0.1235492202092711 -0.6923643998828786
P 3.355788592686038 1.4553987745024655 9.981628558286383 1.2330272854919861 -1.2365628094490704 0.217949843879044
P 3.0956762236403885 1.3058828923771026 4.079935072413922 0.14743014059192674 0.5070701372553267 -0.67556789715083
P 4.1004303418660895 4.657107948098672 12.082127624776101 -0.340399146155917 -1.7148461043796919 0.2501729655788078
P 7.792858308078871 1.1581406926346915 10.357015501537354 -0.7113995621374587 -0.05141537835749854 -2.430426280257401
Ni 4.981516303526313 2.0266353569617754 5.3476440704625325 1.3380653342709472 0.5892801323961787 -1.0066485941192984
Ni 0.7126258583748685 -0.040679220694410566 12.960509644595232 -0.14782583336844862 -1.3294601091004394 1.7126537247140634
Ni 8.081349595251744 5.368751814612563 13.19306527120159 0.898234429779253 0.053130818386708495 1.9215003207402583
Ni 6.814663235952053 3.9106648027484368 5.654928076758521 -2.7449369886823307 0.41112479480625325 -1.4215724509566678
Ni 1.0594241825085484 0.4992666483923304 9.584567585832907 1.2157790399344997 0.08127462781077616 -0.05284336905327674
Ni 8.014540892160571 0.7130794406925921 1.0649290644460523 0.45166903477720277 0.8784695884475 -0.07896706272352207
Ni 6.56629227476438 5.579829256112867 7.508080668395302 0.5741450765269531 0.23990809331769003 0.03748848386376124
Ni 7.237668008427825 3.3407030545018728 12.474564089933192 -0.10784697898266588 -1.0395872538288482 -0.4882704880503204
Ni 3.369636248373769 0.7217399992030973 1.1303973440280253 0.38822886404468626 -1.4152333961125176 -0.6502787835667382
Ni 3.61576239279552 2.370378697949403 12.840527421731828 0.31549724070791474 1.0665560691082083 -0.3383816015052559
Ni 7.3397286488801585 4.667325097658799 3.2364502534793607 -0.027311543330759417 1.3586120480740473 0.6417360362030495
Ni 5.901687943115014 1.0864543629904027 9.117104355876968 -1.6153133016896764 -0.45730592134800596 0.4850008161601131
Ni 2.700394476327312 0.4019561510718395 11.871421548024728 -1.590307266563642 -0.09796237287910226 -0.31472590975952897
Ni 7.804812188305638 9.148210310667979 8.447238099824848 1.1326928128362816 -0.21086079824274653 0.0814998564477048
Ni 7.596071942862035 0.8151982800981156 12.325985857609234 -2.0693426091689395 -1.143672708886553 1.277501456644961
Ni 8.836457918077024 8.489047119245482 10.702887261384522 -2.1900942120284155 1.093085997077937 -0.46276025959435785
Ni 4.934975616831992 4.340034508358862 0.75155541530193 -1.0946029479430954 -0.7595874346965951 -0.7633738983222208
Ni 4.434723281407053 6.759697557938713 12.570426079974274 -3.6824231648733545 0.43699497770479573 -1.1826645167687178
Ni 4.3073969049267395 2.6265741850660347 2.5200590152123516 -1.2050593395241505 1.418977436535982 0.9490301722748815
Ni 0.15204153193525308 6.835079059214151 11.899071593547708 2.496575879501281 -1.2813331716862255 2.220903226989472
Ni 5.217822529338286 8.41719450687779 0.21244835017545988 -0.9119404665114359 1.949495520401604 1.5285473117470256
Ni 7.698566765981028 7.632506335145164 13.405014773206844 -2.3507943302563707 1.74234302424838 -3.169166182081026
Ni 0.008505361301997003 3.4010636830966905 2.4822139911590324 -0.06528056637536499 -0.19282322401474533 -0.2384397363022797
Ni 2.0533144961386705 4.939474488292916 11.446941478275221 0.44329263778804945 1.3530425244060698 0.6881408487198343
P 8.023677204018588 9.327167472764522 4.563582230321385 1.0245365301433131 -2.242759917853247 -1.8676102555900225
P 0.5662508721359824 2.1090931119108633 0.3455622892230604 0.17917452288305916 -1.1087409300063744 0.8176442296300112
P 8.123049607109259 6.828021281398657 8.649601402825994 -0.5030731002807916 1.1906989570374202 -0.17063666061537708
P 5.954491945724132 6.152617810657259 4.637445016056421 0.15061008098180514 0.26405383732595816 0.8053098764343743
P 2.2343594302068115 7.399488812084914 11.725953726421288 0.43414388140924587 0.35954486584643236 -0.3768558463210542
P 5.315984763719756 1.9108563918288022 0.6241422022882845 -1.0638371275151484 -1.1440061809665718 -1.8588278814117019
P 1.244450664009252 3.812872085530081 7.86937884600961 0.6088349145996547 -0.3655224235861059 0.06051065579054741
P 6.217846827876115 7.974642276473241 11.881927844764993 0.1826146589128597 -0.4503767983283405 -1.2736550863156773
Ni 1.269762589682622 6.104636007026791 2.82684232575232 1.9655422894518213 0.33418144738097927 1.2355441383765688
Ni 7.394241668368682 1.465117075892387 5.804722944342036 -0.47372755723913906 1.9937102672456053 2.5165456377549886
Ni 6.095619788246787 5.460410546923212 12.33551847662469 0.26124516423256944 -1.205764078900659 -0.8929253588615138
Ni 0.43164593133521323 3.8969280022096404 12.785120170708565 -0.13402260893676918 -1.289642462882869 -0.6693370857497697
Ni 1.258852595441655 5.854916308193747 0.30963505924630735 0.17051324766363538 1.9705438564314706 -0.30399823892937966
Ni 9.094057570413492 7.3916458102978 1.3533353626714093 1.2089537894825502 1.9383811556559971 2.0749180463741874
Ni 7.680663659428112 6.166816507649949 10.751886161006466 -2.00846017186127 0.6265503296015468 -0.09017090185914148
Ni 8.242200416355656 8.108509106740689 6.380445465161561 0.7037626144174911 -0.43520317591169566 -0.16380035441983404
Ni 8.511042628379895 3.8910803931033473 6.979220314202007 1.5465288359261107 -0.43781798782672343 1.3576594543527907
Ni 5.632420786353193 0.8206292586029966 2.6905810242678885 -1.3470238290158156 -2.026685436620045 -0.3961470904504984
Ni 0.30267243210031497 1.7153540987537912 11.583527031070286 0.9000532281555468 1.4303820788284978 -0.31032675225056877
Ni 2.0346538794013687 2.351653415708556 2.068726133219285 -0.596668968661082 0.19135923787470915 0.24984540703606006
Ni 5.218404518870192 3.1007201329169067 10.842798468647622 -0.2578271396899559 -0.7490618525749229 0.14672025900909572
Ni 1.8925283405383035 2.951370533514946 10.194281066694463 0.05612435379739366 0.2834710655103054 -0.26902737928114956
Ni 5.513602542553601 5.131133802871532 9.740527847282994 -0.5467985661932002 1.0813090590476668 0.07378706118447938
Ni 5.193129544913133 7.511960598608009 3.0571522117998455 -0.1889370015864617 0.3409622177482386 -0.7772722535708678
Ni 8.626923210732725 5.653427837076275 5.331825040709584 0.14520330814393703 0.5552744648746953 -0.8028112783822368
Ni 0.8637500639526888 0.1616434354187935 2.0005409786955095 0.5357276530910192 1.7843551070141077 0.6275903408302869
Ni 3.535826592484691 8.349184873006495 9.960535594822877 -0.2359362531541356 -0.1710297822887377 -0.5085297525199887
Ni 6.018723266602578 7.7073150848177745 9.764702583886878 -0.16173473014005693 -0.1048794117139097 -0.9233836753513711
Ni 0.6009586954744562 6.3038611855201845 7.340181307404974 0.24999633079162753 -0.21729858344829028 -0.3576687318696421
Ni 6.319390144300087 3.270393176290187 8.433771046815124 1.4301661061629498 0.30429005913818563 -0.707323592295872
Ni 7.539036968735252 7.137547333081845 3.4166804022028336 0.7659205760034745 0.724982700138532 0.0833929597053596
Ni 8.97414925098271 4.929358955952646 9.340844226764311 3.010978288751963 0.22767092782154985 -1.6893762422433616
P 8.837889797084094 5.415181646157949 1.7869692963441806 -1.9882428163731307 -1.6504970486796606 -0.3400821291361304
P 4.218971447793346 6.6026158118985725 8.531998870493048 -0.051054395473654014 -0.5777775310732178 2.6497658053951203
P 9.048191252541857 3.5236787157472893 4.777275853336542 -1.143742385782224 -0.24307774929492326 0.46624821814295836
P 1.5526095021889155 6.68499042548596 5.03328935325034 -0.9256483030158316 -1.2694662450453105 1.0047647468330243
P 6.0806451052115555 2.995139841485905 3.6960436916538613 -0.5467273466356326 0.26527459710693674 1.107150702701119
P 4.574862665518375 4.0536217552285105 6.897961642447228 1.627300041737907 0.35455461172069264 -1.808471283336021
P 7.522177748168135 3.9592101200526555 10.311329323282736 -2.427104157862704 -1.2118732771221903 1.488663073957578
P 6.684971949627804 8.427716508097486 1.65506183083415 1.0828614911364511 -1.4335489065922538 2.232106809014775
