# total energy = -340857.562043606 ev
CRYSTAL
PRIMVEC
9.40726847591724 0.00000000000000 0.00000000000000
0.00000000000000 9.40726847591724 0.00000000000000
0.00000000000000 0.00000000000000 13.76848831577376
PRIMCOORD
 96 1
Ni 2.1751674210212206 2.7359440994276696 12.81814546994201 0.6439394716122716 -0.6949324177203708 0.5555912247841657
Ni 8.054503230135406 5.073904300637506 -0.010800484884978347 -1.8279188505376711 1.15595589712928 1.4506171749284502
Ni 3.924129138533314 6.566310993514873 7.951288562370399 0.03674466371920123 3.5277273438579506 2.965709903832466
Ni 0.3441498638978459 4.008380634596257 2.255829103451112 -0.09977731460065396 -1.4312847931484254 1.2823474718833527
Ni 1.9675772285668898 5.848000197972419 6.6098515947182825 -0.7236143590360957 -0.5448309009438681 -0.466493501384545
Ni 4.879860574722997 7.673969814856023 5.427111482580172 1.661730712611951 -5.6005198592487035 -0.34617358674584897
Ni 4.277588435269914 4.038568558989512 12.816769186570639 -0.42513242193925493 0.41950402000888404 0.41808785638764767
Ni 9.3711162978533 3.5477631431686123 12.82039004418951 -0.4349422089408252 -0.9874082578324479 -1.6958975883016472
Ni 3.6026733689970407 4.375207659772502 8.465816286992318 -0.1066411316000228 -1.388827652425479 0.785420593709615
Ni 4.080054612767715 2.411205193209176 5.771860589477035 -0.324651396403357 0.14402394312385516 1.1295660942818417
Ni 8.843980011354075 3.6709983596072644 10.213560703969515 1.8799710911482204 -1.5406158128757854 -0.03006442348554822
Ni 2.2849032072622033 8.112649556303904 7.034237932512964 -0.5941117494568671 1.3409423987084261 -0.1687371295998191
Ni 7.518872180243501 4.234258556879347 8.309503233298583 2.161905151188709 -0.8768068560330963 0.7407787866305242
Ni 3.8368673165726315 8.047682960523344 3.295955966910725 0.6780394986197742 -0.336828140975207 3.0707600367962855
Ni 7.404987788624697 3.7237355064282633 2.7684019976931875 0.053696975302823656 -2.126953060593556 0.2934585157403204
Ni 8.417275722618134 0.4452902289739435 13.074459668504918 0.5965776944988564 0.926848751081836 1.3760577543543204
Ni -0.3853819214284269 8.658054758095027 8.322679053462245 2.8475052357645603 -0.7676406440183747 -0.35358247761541034
Ni 2.6510623163798868 5.996315192046601 2.2432167786664325 -1.6361117264922662 -0.7052109168282434 2.1396926196474118
Ni 1.1621457200902099 4.406712601746016 8.324524759528295 -1.5138933092792766 0.3932080624268325 -0.8338257244858801
Ni 7.7523323608815184 5.179689034137708 11.314530957456627 -0.6095579088086083 1.3168712166918355 0.524758041453393
Ni 2.765511144104516 0.7959828480651544 4.13997797194272 1.5014645965976205 0.5163394783723946 -1.6727617736151321
Ni 8.995587549378907 5.61603577301484 6.106999230945371 -0.029659988958277952 0.7320452634122682 0.5655334235985422
Ni 1.029032871799605 2.7298575967531806 4.141781345300834 -1.7677218693328007 -0.4948969922279025 1.8847685125368638
Ni 6.371458242515346 1.6957165781958512 6.394429851295617 -0.5450178201436936 -1.2263987244318753 0.46997348951334544
P 0.18517737541882787 2.032007610046915 0.5417899885333093 1.3474753147309375 -0.4155818021363423 -0.3074707708590124
P 8.726201010605074 5.854180773331212 9.107841661378718 3.223776413226738 -3.4730762321719735 -0.4508105434316494
P 6.050087138394947 4.449976629257571 0.6226699195907867 -0.48268450932211066 0.12352119518481307 -0.059067495586117624
P 2.2169356928523363 3.6451377786920083 5.995474182248921 -0.025858870044632883 0.3073208755447095 -0.17587014110017452
P -0.1105589222286456 7.9691981200082544 5.966147963643894 1.7848572434615069 0.47214221502989007 0.6005179100935271
P 4.333683976920577 1.193565996647851 12.648215395195226 1.2250434959555612 0.5557825148593655 1.9158613772869264
P 8.544687766239898 -0.0026161613505029857 11.00993019076716 -0.1329337467479646 -0.20429754320293203 -1.4373315135631375
P 9.148352181420684 2.670394253004423 8.276513824366745 -0.21595106828146032 -1.2432695320452847 -0.45721130475167066
Ni 7.327161456899738 7.530546600365666 5.218518475311157 -1.8794285883811892 -1.762907478663293 1.7340216488668783
Ni 1.5728388379575557 0.18546053419858383 13.961797441024835 0.0872393300346433 1.3942182273134311 -1.4584055606246173
Ni 0.7509718908060691 0.3193955777500086 4.5244906617681755 -3.248429692999044 -0.4185437129781437 2.122406064652822
Ni 7.96212385414857 3.3934839409095363 6.218647514858261 0.6145263085574771 1.0330381398564208 -0.7338347512125233
Ni 8.927930474827244 1.0128523700992629 6.772319824146049 0.39585064225600214 -0.8886313594718501 1.4811405403282878
Ni 1.8426110747370383 1.3590398483391402 6.602402919575066 0.734845966085857 0.8584445514758249 -0.2698892130608126
Ni 5.131345081673721 9.151578874492323 8.370689988623795 -0.1353575256981088 0.2817314571113793 -0.591622150265794
Ni 4.123440934768865 5.460655920349404 10.704737706893416 -1.2735954367223357 0.23298951182098582 0.05812852871161602
Ni 1.652038630873358 9.044241941701099 9.96991339234818 -0.4591221486211383 0.4347864000892512 0.037396952591219466
Ni 8.921439459610246 1.4639026695331596 2.627206424367156 0.7538613308460952 0.22579119430033373 0.5495388479424987
Ni 6.180584766061892 2.6196890761643976 13.235317373577393 0.41055221013223486 -0.31401782794891075 -0.03562083452740317
Ni 5.849392473700123 5.499912451509594 9.034207208466357 -1.9175855590668847 0.5527781808154029 1.3901337728314125
Ni 5.782685533259934 3.6909888050219313 10.890915074946399 0.2757909232572282 0.5609532604270275 0.5721046490581566
Ni 3.4327498793381577 1.7009282049063104 10.879886934165404 -0.5235264830391371 -0.4299223871287306 -0.12762261894769633
Ni 6.138110949098494 0.2390339871830479 0.0034938594950622397 1.0385806669412048 -0.4883962149949072 0.6431982225708729
Ni 7.646528812844456 0.9842542740707512 8.7381849298586 -1.1584640082631146 0.9422242050966418 1.2641283777721648
Ni 4.019010847922646 -0.02086814355922608 5.725667138576245 -1.0715116133412708 4.164237869996002 2.375905009281069
Ni 7.335590369413405 7.800704535150796 12.220221369957473 -0.33522043016845493 0.07458847403985219 1.0640003925658903
Ni 7.4189575822438885 7.219796302303224 8.677934197742216 -4.23672935229751 2.104034761234486 -1.503818441541778
Ni 4.367926434007348 6.9700427327437 1.151592646364952 2.9461026711245 0.22458431847642613 -0.4368623087816735
Ni 6.483799842111559 5.590400966541915 6.733093396244835 0.2154011093152613 0.6403736086378843 -0.9742205554975802
Ni 5.6948592751934255 3.972604792755327 5.006677138253115 0.19532002229467008 -0.5816308433810371 -0.7977575180084132
Ni 1.5712396023243824 6.8039480013360025 9.026662579185153 -0.21011697809818652 -0.7375237700283362 0.24443709153629514
Ni 1.824746671987649 2.3546769172107136 9.404937309314388 -0.7476050655237383 -0.45838552756542994 -1.0241480364556426
P 6.379454420681213 8.74183589073645 6.625424386878018 -0.3146796299026258 1.2495391671040803 1.2868649001377321
P 6.881783740329392 7.41878825141214 0.8731497302731406 -1.0645907178517213 0.3951191634066163 -0.35512076863680775
P 7.114660670324723 1.6453500630193212 1.5509377763246683 -1.4073167123686021 0.42510388269416466 -1.4958076554221595
P 4.745110861725497 1.7369110066527105 3.739700581681548 0.5110262936895973 0.7473587538408871 -0.11799512316026131
P 3.480661097454345 -0.532277358696457 1.6187058566438102 -1.9677418682063015 3.2137473111255104 -3.900658401203301
P 3.793452772766191 6.065148175152069 4.194542010292909 -0.06327433457861362 -0.9733016432277367 0.587503243001414
P 0.1429660212446389 6.022984798046875 12.556200080496646 -1.9439594210747233 0.14004798919524267 -1.097844851919161
P 5.943587452494033 7.219250680734259 10.531888556752667 -0.24791913654762462 -0.3178821960003235 0.2943771708998479
Ni 1.979910157479185 7.544055437831766 4.632063716997002 -0.6894878496660319 -0.5717894318105831 0.5068209973589981
Ni 5.363168397604842 1.9121025666326354 9.595176735875631 0.5270164984702665 0.06248166347398916 -1.2955068920834463
Ni 7.658033902134873 5.875751639842191 2.4799252890934778 0.239921977274761 0.854548301745212 -0.5661450890406121
Ni 1.0127206683412369 5.098287940409184 0.533280173511141 1.1686273219493615 1.1152805308971052 -1.0761519403267596
Ni 4.184550550492948 5.3151066631937685 6.384434628588283 0.45007932169257975 -2.3501572108930042 -4.127266692088292
Ni 1.1677430448063166 8.89683004539624 2.4128721611750485 2.145650122782427 -0.34386653587922716 0.7190938454579229
Ni 7.363783952899408 1.8399488177712264 11.29266658417062 0.24655773742372378 0.18590412829740888 -0.7532298679096834
Ni 8.674856139511778 8.025030258142865 3.7004600428776895 2.1164621883645616 -0.07294348223726146 -2.8132735682752
Ni 5.698001302849189 5.987481766990426 12.49890981575532 0.18924964773087408 -0.2839546900149432 0.7660331903219387
Ni 2.000841329736895 6.780665011970685 12.01677884215412 1.0181293410653884 -1.6055359105879383 -3.1548587643194184
Ni 4.578216512501212 8.234087984472342 12.836733291633701 -0.6894492831186126 -0.8988136993214908 -0.2037380711550362
Ni 5.573872395909646 0.08886105759385546 11.084982319031983 0.9636486935190048 0.3373477609241029 -0.20315545917868885
Ni 6.151403419390694 7.468204632477197 3.1074785217265015 -0.5131901341101355 0.38661446836971486 -0.27551375833644165
Ni 6.877512840461976 0.33565698195885235 3.1935324504207165 -0.8002327190217831 0.07220146186491436 1.080364178635894
Ni 4.665751145246377 1.6947664440843777 1.254354824518456 -0.768944707541779 -0.14911858403794317 0.5181130253330496
Ni 0.5778678036908569 1.5304496864100317 11.375524863779015 0.45637646755520117 0.41142869919991726 0.32949252654574224
Ni 3.9561326657336418 8.081116392525098 10.125153076714005 -0.93307467738689 -1.0051604396095464 0.17511475099138873
Ni 1.9834378831405972 1.741539382720483 1.9885827182452 -0.21102174930064302 0.28484866258412234 -0.09526888520733916
Ni 8.94851357815303 8.191181433161145 1.1065308898563422 -1.310210002621576 -1.0289459720649183 -0.6828911702851206
Ni 5.083772525221029 4.012256429189596 2.521739656539902 -0.3340464644650118 0.17772647758262292 0.14351100804317865
Ni 8.86719714984038 7.237077454409926 10.552321143783566 1.9544703479083758 1.6202827298798093 1.6293486967368196
Ni 3.039140360940475 3.722775965048359 1.4513637214422375 -0.4045944498869032 0.6824404559009473 -1.2752316867741782
Ni 1.9392707578597215 7.381874130091128 0.3432166628695471 -0.5299835515183905 1.3969150574193039 2.080854723573597
Ni 3.057747937895869 3.326438338805852 3.771698464520818 1.7836724791247862 0.9447852809555988 -0.2881754129645101
P 1.9730428515249705 4.395564988655956 10.348753499310087 1.220424252015995 0.2406560272273081 0.3199056541882555
P 0.31676154258948774 6.172955471364813 2.608343910437297 1.477143760464069 1.1293874026121324 -0.46951557604032046
P 7.377857226471333 5.232115741100502 4.6570531848556005 0.1882224920179404 -0.05994835552917418 -0.14743656834982993
P 8.364698499360454 1.7324895904904078 5.0273985284248255 -0.6226203984195213 0.17415778639475812 -4.296156288105575
P 5.602489306475019 3.4378486188274513 8.046882401979914 -1.3364925904671885 -0.8516516969237073 -0.8361173487335343
P 2.8850963403921606 0.4748986656318835 8.276541105445194 0.9109822163632247 -0.3175965464391046 0.9324694397027231
P 3.0999959804169364 5.693429370392 13.797126970057505 1.206756010500283 -2.472898333378683 -1.063879807827626
P 2.728822797225833 8.756586487635367 11.912895317603708 -1.2395121218853813 1.5379740043775643 -0.0758683691935403
