# total energy = -381162.75306188874 ev
CRYSTAL
PRIMVEC
9.30806105276444 0.00000000000000 0.00000000000000

0.00000000000000 9.30806105276444 0.00000000000000

0.00000000000000 0.00000000000000 13.62328822395576

PRIMCOORD
 96 1
Ni 5.210140567107417 5.451182113036033 0.7867815357025644 1.5584649252420644 0.8925260665405661 1.0787271572531036
Ni 3.595880791689734 4.7564005207920665 12.98499631959224 0.5745785645199459 0.34287023340422884 0.25733965853057617
Ni 5.7158382095524205 2.070578154611555 9.066094166109982 0.45158804502762223 0.14291708321292163 -0.3944054251690433
Ni 5.7114168806091055 8.004150525515621 4.635324056590041 -1.4437237902427265 0.8481213151729459 2.335430703316107
Ni 6.856224602856035 9.441166204641492 11.722294559176376 -1.2966268646205024 -1.4558563118402026 1.0296689662738718
Ni 7.939813208344683 3.4201073690253843 9.390505221399847 -2.718734362145034 -0.3711693374592382 -2.556807570598829
Ni 7.05073515217911 7.1910262465657375 12.469422824497007 -0.3714912395750312 -1.6194201247691982 -0.6995997412890532
Ni 2.3010178191371486 1.4755975916943815 10.27002482979302 4.8484904394050234 -1.4716783664741235 1.462922217548048
Ni 7.473721365170851 7.3137251057884365 1.2677057739736028 -0.359160228813504 -0.026072271607019616 0.05487531188164098
Ni 0.9139966660900989 0.6452561924361816 3.3542574919527857 0.12149593722466819 1.6541860674954736 1.975451063925101
Ni 2.2626779161529047 3.962934866533303 6.74175686191665 0.882114641399255 -0.8397634301265537 0.963327048513528
Ni 8.960144231730654 8.3033860683992 13.165286944227516 0.4111101395182339 0.28102826039676765 0.2571162296658604
Ni 8.720452354637366 6.441680801130793 5.7189610639955415 1.5339078047279906 -0.2840158822701818 -0.12451801188044362
Ni 6.841089695778497 2.5411285589724355 11.149285674092248 -0.41934384028193583 -0.5288592081059601 2.145315365150828
Ni 5.270354413284904 3.95640060775813 4.322533184569304 -0.1294262478153384 -1.9576772848814477 -1.1841362162182378
Ni 4.948705059673949 1.3356043552576193 2.483076044543659 0.6248387462270787 1.09024132854029 1.8061871152875346
Ni 2.8710248545702903 7.575207153526571 11.55132223434142 -1.1775822171498043 1.4152614211369756 1.3626725912966662
Ni 6.087937253421837 0.34483201017142023 6.65992132099721 3.0172342969640034 4.087163396309503 -0.638049845600714
Ni 5.62609919409452 4.8518453776020785 9.36340852521693 -0.06613751505902159 -1.130238694868834 -0.8624385031265662
Ni 1.0275075383655425 7.0040273024158335 8.425554368148703 0.10489483833287741 -2.486411023153137 0.008638392401288348
Ni 7.38092930572683 0.07570245957049124 2.787337940331218 0.3635053931560772 0.17819390413734473 -0.213678984417832
Ni 3.4080348139949 7.279638986650709 0.7372375197729131 -0.5004660016752478 0.45676984633887785 0.3732663291975829
Ni 1.4101060749677152 2.110630740807525 8.030042758613769 -2.0346034059155413 -1.006765322202821 -0.28322886759251226
Ni 2.998591829661103 6.677947311800629 3.304069358206551 0.5407420755864751 1.651253467229711 1.1977939162109887
P 8.145800596798509 1.4595784188281802 7.563158799454513 0.10009176051727924 -0.4699099832652616 0.7930426290312471
Ni 2.3912129295807802 3.0095381093186586 2.728621761157898 1.3975485772382445 -1.3678435939746445 1.1269718511921043
P 8.082207924502235 1.2494861755027704 12.923691568673368 2.7390725594817535 0.23545160020823322 -1.0884996632588353
Ni 3.056478660605267 7.386393137494674 5.581665303617248 -1.064842428851211 0.24648548942489162 0.40545885476972754
P 4.747976725647435 0.08749111874250982 0.8928543364862117 -1.126233944584815 -1.4120645114662327 -1.2604522144721582
P 1.73746126993078 6.028896222921944 10.40402367498874 0.22296323793323536 0.14347784081239806 -3.2835974991494288
P 1.2267745068255298 6.7180743624840655 0.630046820871177 -0.11336996568342411 -0.11714125980039825 0.02215596727174894
Ni 3.378919199395552 8.02460033538607 9.263576779289057 -0.28856622064502563 0.28051044022008464 -0.5829953278287314
Ni 0.3988895048476264 1.5328049341904149 5.946769339695292 0.014924739630632358 0.5158900495398019 -0.3147382510547031
Ni 8.16870773475535 8.546587084464342 8.292345777326219 0.3765084902839645 0.3332900459149615 -0.964438793520468
Ni 4.518840189652503 5.587749983049343 5.8876305745556 0.7371841273007304 0.7875026730496244 -2.0818091170670665
Ni 7.063971214826255 7.550968962856269 6.655671260375067 -1.0022602352436158 -1.1426699786536514 -0.22815429521587158
Ni 6.520436304687405 4.795168594579243 7.010231125027874 1.6513786799536656 0.41673005680817254 0.3130323241071899
Ni 7.300665896299023 2.442453805018572 3.2853648097610937 0.701672821767998 -0.09618239816054402 1.0335796141821878
Ni 2.7354622551377763 0.720744566605207 6.6123357210879234 -0.39151139145069996 -0.752181372040511 0.4935247944707242
Ni 5.51413252912791 8.031739618121907 2.4172615381026077 -1.3259811494129035 -0.2219473950742113 -1.513479875890942
Ni 7.535908520266197 7.271997068624474 3.7640737295300077 1.6966280387097683 -1.866898060014346 -0.9403724965998836
Ni 0.562016995928001 5.947850936375741 11.980060828989938 -0.5941078928021252 0.4056681425670562 0.6223213791218637
Ni 4.133197917125142 3.2001858133544143 1.190002081302453 -0.2628649592241796 0.0587489359044343 0.3165259390827452
Ni 0.9433998997722856 7.792541068258084 4.3289092063086105 0.30698997456785193 -0.6557320933718256 0.39538887212823515
Ni 6.210794349680402 7.001867832279309 9.815142684401154 -0.2947648932565698 1.8822326334888873 0.6981768927995976
Ni 3.5506249994320513 1.9010318247115798 12.703539173091254 0.04294796431643571 0.05774954810564248 0.16346688233981524
Ni 0.9701419588336432 9.136895000793 11.29312034727618 -0.7360595267779839 -0.42655192799460084 1.0513839893534602
Ni 8.594030271041348 5.55836443468293 0.042023102695548605 -0.7675853653004071 0.8764271040961744 1.8924034033743022
Ni 4.705978754716406 8.255784644786328 6.999045628204334 -2.919187334790895 -2.8722785860544984 1.6360083681451822
Ni 4.900023900992815 8.15322842942328 12.7899924430397 0.3533793604656688 0.0182975127576072 0.09520409340767474
Ni 2.7685803359384416 4.033769210235681 9.199411661245385 2.064000885241052 0.6646761899389907 -0.30217841211182156
Ni 9.237803689370855 1.0957542411284642 1.3891806231835742 -0.517489789926754 0.3217367938597233 -1.6418990225980046
Ni 0.10789159589001328 3.6320239922937194 4.5797949574802805 0.6290160175332199 0.10415307507084642 -0.4476853675391064
Ni 7.224795891631732 4.836012365954542 11.174801861528689 0.5490562518791254 1.3935731375302645 0.6450409322065666
Ni 2.830460325022989 5.2393027220114305 1.7596246938190496 0.6546275474537372 -1.2980273445124546 -0.8046318765307433
Ni 4.422045664007165 2.4895619014019794 5.7144103530052535 -1.4101287278961006 -0.263005855677418 2.0487722412167555
P 1.5543903274947268 5.661935228687708 5.679752718926221 -2.432323497280114 2.9420943212960555 1.2186962135812947
Ni 8.338598462909856 3.3468529294803497 13.513893373107388 -0.14388664621504252 -0.9423113654938094 -0.09676758124005269
P 1.2027038612520278 -0.49038681301582654 9.29414724381228 0.398357724948572 1.6925196729683498 -1.04644490018063
Ni 0.642850989491018 8.518970067675253 6.679920620718488 0.29916327943458154 0.2749028642253201 -0.3612741898327133
P 5.801593374930871 1.2786576384677182 4.629070901255053 1.3695904014624218 -0.4992395854673144 -0.2500122716312275
P 2.273903437638459 2.0187322552130995 4.862750701791526 0.033269303576091085 0.5498126704291757 -0.4342120156430199
P 4.57332027029508 4.2590056686995625 7.451883723415246 -1.5265266817725711 -1.7379749770876716 1.820892025597877
Ni 5.381306499609785 5.902902310128858 3.465710351955878 -0.02102391054983476 1.2036616878456754 -0.9311797743570221
Ni 2.2400127877803304 3.861988945711715 11.542439551792777 -2.1973719766367514 -0.9209575824083815 -0.9186626157266178
Ni 8.070181909776418 5.980782855957741 8.761804346139623 -0.17549373159736226 -0.7471317254317456 -0.7678334767554712
Ni 4.404593049757235 0.12079442995574732 10.85720244522981 -1.347052368260906 1.3859097074477358 2.1017040562187805
Ni 8.487583286208183 7.807517738299755 10.38402437526746 0.2956886906224198 -0.6151492868534566 1.5590637351683279
Ni 7.272927874717803 4.771581968174272 4.805805846613812 0.8652119521066455 0.9607626302204614 -0.47771096736691926
Ni 3.4187577001900564 6.178504686302801 7.806525499004267 -0.5757468737964343 -0.23188316613068452 0.5507315826990192
Ni 3.494125069566949 1.938422305480627 8.539036385435253 2.72206188385637 -0.13645872918208757 -1.4078018795351368
Ni 3.8151787072781724 0.19013762229661116 4.654301331220844 0.7950362624225082 0.6557655177129221 0.49089764126052227
Ni 0.26322823996921973 8.121041154715943 2.11189570628836 -0.05246438844730319 -0.5915930968000715 -0.7409693053747755
Ni 6.701934184825732 1.2023036146318964 0.7540339157270446 -1.2500839838639568 0.28391740901910456 1.12072869849587
Ni 3.724527501848809 5.718937793843208 10.705084528621338 2.7985488604705155 -1.1250928890018363 -1.2059306863855102
Ni 7.56399094010195 5.081195998998476 2.3474966906014654 0.23167310700240745 0.3905024905702113 0.29898330221329156
Ni 9.162631789273563 4.416646988665853 6.847650017124284 -0.9802215102760216 -0.1907213471803941 -0.727447873849573
Ni 0.42002718042104686 2.033643768828239 10.210559351714567 -4.389700991532957 0.5708242396838363 -0.12300260367718172
Ni 0.6824102484575234 5.665965619071824 2.6236138025450195 -0.22791106885681395 0.5994802128576321 0.09341717671058106
Ni 1.465405264972423 4.137833331469923 13.924907558126725 -0.43496869130338633 -0.3896316579294838 -1.1124242923952326
Ni 2.6310723517708685 4.534719741604705 4.512128146913503 2.0940920481994776 -1.5650574908579176 -2.672576118421417
Ni 0.6302944152920026 4.034467314805678 8.871076327466044 0.7130754071779849 2.313870460646828 0.7897603587355495
Ni 1.9577179157953486 9.289472735611579 -0.23502481534133476 1.1389845593822643 -1.7486705091283046 1.108730131373097
Ni 9.683455030735171 3.3661206156122705 2.140913586247908 -2.986839743832546 -0.20068797147480275 0.14967548498267771
Ni 4.5425571289105395 3.2800489761620883 10.830091786955494 -0.17748093723072014 -0.43882328916278623 0.5830063835723249
Ni 1.0311656063123276 1.8605510677126782 12.517471965840771 -1.1192402868758013 1.4052377183523863 0.6489436096950824
Ni 7.450721146604678 2.6286987962328787 5.914918085987649 -0.6936967455410569 -0.22678543989280298 -0.4797997315751479
Ni 8.279864598420763 9.197909340210751 4.901441518672955 -0.12641522890315648 -0.0908473591008758 1.041136343483523
P 6.4834926108431565 3.4439732372583536 1.6861273138836563 -1.6077997669214503 0.062215297186479945 -1.5322993225902901
Ni 7.635272070729125 0.8414161301566349 9.850127962225038 1.122516386523912 0.41483463955767264 -2.1108574405832745
P 9.212718465155625 3.875820724258592 11.038160457834005 0.36163003051023523 1.0138214577186542 1.8846605262040899
Ni 5.80116520412794 3.283120636270076 13.253429627235358 0.30373727195850914 0.4541316373850824 -1.224225628039956
P 5.420865758576291 5.592953189111054 12.068925817526203 0.3153458027317149 0.3494869673897981 0.6697520618000014
P 5.633489794475556 9.173652533418585 9.344866867837805 1.1355500797794187 -0.8861834121519899 -2.7655330676661274
P 2.0897620681950766 1.74325088383129 0.972957647265965 -0.11717468414149497 0.6772288297930208 -0.013237581736196557
Ni 2.9551231851026136 9.081986749347491 2.7007627347845444 -0.348816937905967 -0.558551078743438 -2.379970694710011
