# total energy = -381163.8834355639 ev
CRYSTAL
PRIMVEC
9.30262333479741 0.00000000000000 0.00000000000000
0.00000000000000 9.30262333479741 0.00000000000000
0.00000000000000 0.00000000000000 13.61532957405827
PRIMCOORD
 96 1
Ni 3.5880682459877495 8.127859954316584 8.332418124631976 -0.3638391223464121 -0.2726477496425563 0.8903318871027247
Ni 2.8877574757716418 0.8510681500469441 13.177011209366649 1.5562463203241907 -2.687573363161197 -1.811406711815261
Ni 3.4438124694473053 4.846834086641462 13.208108017893082 -0.8740310930601721 0.49024355261629116 -0.5980352528809894
Ni 3.2442432959048957 1.2458072866638479 7.157755438975804 0.4306860047676324 1.044479548924143 -0.06016664218756734
Ni 6.865224222449818 3.1240068922300877 4.079575128701835 1.0024168154261381 -1.9802502850859574 1.2979324708058033
Ni 8.867678964873653 2.872473266004701 0.34814229746741715 -0.6366588787904585 0.037977764795353953 -0.22253412081561674
Ni 7.012531259369786 3.965894283531448 2.1560959354182447 2.441596180831292 0.6646625630922359 -2.1902029696921375
Ni 0.9272008175652905 0.4851383069341422 5.904110692343211 -0.038333091252243656 0.9554900689676125 -0.26203243602055515
Ni 1.073383167351464 6.9782603958388 12.441878860331546 2.2995738415184976 -0.4606586398703227 -0.7492857956602709
Ni 1.8700319024771506 5.053119754068066 11.289068966619084 1.3151205525493157 1.1150252203531896 -0.245204565829939
Ni 2.8495143921734107 9.11645901465898 3.3780447845962294 -1.579930808425324 0.37043374484479424 -0.19819811517341349
Ni 8.951997940727304 4.902249812497619 7.3486424743712355 0.06123262155823648 3.282964750661436 2.2545952199252786
Ni 6.783714638774874 0.8790011364542437 10.775988370654535 1.0114493579420516 -1.2197835331082025 0.2493584400973125
Ni 4.915189761241268 8.069402270704012 3.6297514396114305 -0.13573753474534686 -0.9809920698934588 0.4053195009783858
Ni 4.186654832514571 2.7546183338456185 0.5648478330376308 -0.3169126329982026 -1.1615529316010833 -0.40340839999860206
Ni 1.272710472693058 7.094878079124478 8.465494008720864 -0.5720084897999246 -0.5941300042893123 -1.385528669959233
Ni 5.699819507311028 5.958404521852507 12.96316902118917 -0.8103394684384818 1.6276584535185905 -1.1678037976068014
Ni 3.2042792270316287 2.1305332573789406 11.186286144420073 -1.0693603713262227 0.16409114618737544 -0.7218302705524794
Ni 8.712297251095679 5.998563945811048 9.849424782772163 0.6482285859059288 -0.4048551597474576 0.27157559962430006
Ni 6.289782562216453 -0.03344944191052268 2.2415600641765288 3.390357158605187 0.9309301202400612 0.6358975751444016
Ni 0.6948147804837225 7.630839406886208 2.392567684568979 1.5838270581559368 1.1738106659225138 -0.8043487980726858
Ni 3.282132879825011 6.628407345981766 6.6903004883082335 -1.0196684034177341 -1.2668583751088183 -0.8667062772639847
Ni 8.174819595767294 7.505114455577502 0.792382552168219 -0.1004566000558657 0.5292852398997853 -0.29872336368368557
Ni 3.7662413863810635 8.84067344999025 11.031384445994489 0.11088499447804129 0.07602674914827552 0.6792170638676431
P 7.300121852762953 7.712553648269536 10.364233806110235 0.061199711437772024 -1.131889857319012 1.8779646022411527
Ni 4.2568803343591455 0.8115599097059842 9.301979366783232 -0.3045302001734497 1.8378975590169382 -0.2138597329700704
P 9.192005616921504 7.678543258185582 6.960415173930143 0.34278050190389997 -0.8820549918059132 0.19407149459954964
Ni 2.116383967631213 1.416342973485246 1.5789835240746282 -1.7161715080593347 0.6769010141399568 1.3549094024114794
P 1.0647875435993928 3.4390588290389625 10.20249747048698 0.5332038582279011 -0.8463056021204457 -0.8719284448948724
P 8.525240105633936 5.171439817382563 3.9618839227094593 -0.21524607179463578 0.1509625792252174 -0.3156569062142306
P 2.942977846542524 7.213430708016682 4.5137536662486974 -1.2478322117153025 -1.1176469742467527 -0.730349106656768
Ni 4.257298952399019 3.8877336441754924 2.959087198979171 -0.022941953508154037 -1.5628823375834695 -1.6175923275318402
Ni 5.425159560038401 2.7302175534325417 9.966734581217096 0.668041763977114 -0.16137169037368337 -0.45307285710326484
Ni 5.0655759664100835 3.650405123436483 5.310019133302322 0.9527983810680624 -0.974040321165974 0.826433288676551
Ni 4.183519848527073 5.574196884856513 8.748012811995384 0.6822784764017863 0.15383630122858666 -0.8826093216474863
Ni 2.715389172197908 2.775577143708624 8.824585493586753 0.5402689926047985 -1.4416900476421493 1.7960320291314036
Ni 6.678371734696458 1.646015435406122 0.3234801133449968 -1.4980920805809619 0.020940863917725226 1.2279179892898788
Ni 1.9996081397526937 4.836266306790431 8.64034239161527 -1.4634361810699892 1.352347555221574 0.3004236342042439
Ni 3.44236126024241 7.3630540980906165 13.01758936637274 -0.30102013013766227 -0.0897330429907745 0.5586359251477605
Ni 4.369153692653246 0.6254534923259095 1.5593094064628794 -0.8414418462702411 -0.6401643208405555 -0.7892749344586987
Ni 8.849520244566246 0.18812043528302214 3.3142027427285723 0.1711467674825762 1.6623472631500271 0.9031498648029994
Ni 2.2280712606694903 2.7520415072446194 3.6349664901259446 -1.4135704065877976 2.034335496966135 -1.511386740807339
Ni 4.139490533355478 4.388233372648374 10.751929926771842 -0.3813676181484787 1.1376951511468791 0.8306159592993307
Ni 1.4920384177175021 9.042968292103392 11.124200437795263 0.5859806357093005 -1.9929538486955551 -0.4879411297353597
Ni 9.261440395801873 4.085739977035708 11.976656539209968 -0.8595143875012359 0.31364964597621464 0.144359472086403
Ni 0.44464491880601303 1.5967115329321198 11.250169117829408 -0.759011507588467 1.4775430527850166 0.5592733016214433
Ni 1.4227338755606496 4.96361921714309 5.877533098122792 0.5379786539087251 0.7262435691288267 -0.9705284513579736
Ni 5.1057260877455155 1.3275866464089334 12.258956730841442 -0.6406093787977741 1.6201881132834741 -1.0328753890263114
Ni 5.35853417333674 8.66286311189816 13.083759854804406 1.1332661688412482 -1.4435199017620366 0.9720232907359454
Ni 6.846832936564704 4.955749197993466 11.184802376034298 -0.2246768781902324 0.10815011204538148 0.6193985490481139
Ni 0.8515639798586168 3.1450866361935006 7.2995590440649 1.1333505010249385 -2.279065437152501 -0.23419818741710635
Ni 5.9381341060995165 7.149400753162237 1.5102529537635578 -0.30663876187602035 -1.209061518705008 -0.37663858810392553
Ni 1.7040172904863873 2.6612665109538054 13.218456255838758 -0.6283593577858275 1.836377779938302 -1.116684610333483
Ni 4.872769799867409 6.862926474542068 10.547509435278453 0.3732200493406798 -0.6374458934681281 0.8566838600309763
Ni 3.6769827176569025 6.498719477228923 2.2752578861240433 -0.5403145011307533 0.04562011183196014 -0.6136513621516916
Ni 8.458000745807126 0.6758541740643806 1.012410984712718 1.1085347275328394 -1.2011749168680796 0.6952419785409897
P 5.3406359264763665 2.8238763628869297 7.455604965132806 0.23636459894080583 -0.2262480793320942 0.25210386405293356
Ni 7.088022045893659 6.698502611102824 8.27591492213446 0.6052363986151189 0.3649392973891264 -0.8623647124658373
P 2.3921974401692685 6.859707766946595 10.147886421529693 2.0054028730921853 0.3169231745211638 1.982013804744283
Ni 7.687799368178344 5.016067406227698 0.023512379906234133 0.20341951147335288 -0.9888611882288906 1.139084575295238
P 5.721029487997956 2.280882252055323 2.223968803878729 0.677207232526466 0.07518188464947698 -0.5767264641008842
P 5.32050505007 3.588086851233966 12.405893523361698 -0.057302176155578734 0.7884460107995002 0.007825409581689749
P 8.922452809735336 1.5851855829009331 8.17611452090397 0.7660421891830033 -1.3691911091414741 1.260797256516403
Ni 0.8604349612546939 8.91942015460203 13.509170670071692 1.0566946029330961 0.7492220323018709 1.7043328635531938
Ni 0.6625272361994268 5.851908092508662 0.8845780590076708 0.22453958128141974 -1.4142314372105642 -0.5391878437254779
Ni 3.388368835721823 3.860039735182076 6.866673571130092 -0.28767019119331744 0.4102128245149451 0.14890595380650481
Ni 7.331099587713599 2.771949120696386 12.132293144861109 -0.39435323177486925 0.06088552263146287 -0.6624329024307688
Ni 5.543498228599115 8.095347286553068 6.962021736940947 -0.03926023105220335 -1.6656783844057892 -1.0901590532391288
Ni 8.921485336932074 8.65771876131927 9.373500724026794 -0.6768830164178278 1.0011891136666242 -0.3706738858800584
Ni 5.253070335157917 4.661749097278679 1.0707179658309356 0.3194991627784562 1.7476834626246869 0.12303037159132361
Ni 7.744563974385204 -0.16654207072100408 6.700321273920497 -0.6084099112470942 -1.688844023888975 -0.4104966743039511
Ni 5.537284076362769 0.7996581337012222 6.102431453864487 0.6608185067557973 2.4219305840815646 -0.2885636495418643
Ni 6.743573820062548 1.2066432433778949 8.475924109749892 -0.058175322789151426 1.4603290028995755 -1.0333926949823622
Ni 3.560709231426232 8.813035356735485 5.710582642247333 -0.275054559311836 0.32307351039327586 0.12592466241998312
Ni 1.464130548392595 5.585778650626349 3.2225030657007925 -0.3233648163814496 -0.9287752786805875 0.875884601329143
Ni 4.639469314934295 1.546840170448511 3.898681901311653 0.4542115986933984 -0.8398526474062503 0.09581935839417045
Ni 0.16596530808828935 3.185673980815024 2.483885023787007 -0.08207424089393608 0.7704508597736602 0.9293956858734057
Ni 7.712051306621687 6.528311121336433 5.515692688128399 -0.23366956860714597 0.6975737119979599 1.0639456280685546
Ni 8.517798007147293 8.84440380185668 12.036509616288782 -1.5569400039571055 0.8822365116890999 -1.0176094640061766
Ni 6.055709959565349 5.580773839394082 3.595631278574799 -0.007088274305349082 0.44010395564742266 0.5235362532311499
Ni 5.840800760517349 8.534086900209932 9.123849948718528 -0.09179121107138385 -0.5115407714321707 0.8408790317882358
Ni 5.401958818006295 5.748109423866224 6.6869785215962585 0.8830338107794148 -1.1929065062117006 -0.39496721120978434
Ni 7.854474466409796 7.399957603961252 3.2073900241990447 -0.744797420871614 -1.085324607964963 -0.04547870115808942
Ni 1.6025256723748087 0.07529636170090986 8.34655066965811 -0.39764758625542485 1.7130758998531463 0.17687004311959859
Ni 6.91162570651403 4.460505451576775 9.040034244775034 -1.7152394831633686 0.6411112581348571 -3.0158189046737154
Ni 8.21188124623077 2.9635366436118726 9.86403362210144 1.1144678051878225 -1.2309338932980673 0.17788999974368072
Ni 7.885108004305436 2.028390455649781 6.426053897343041 0.12629001617920188 0.7018839093375396 -1.8334464652241196
Ni 8.32848962689334 6.5970389008605705 12.254545426963485 -2.379675017846463 -0.4502988939025535 -1.3068793955864462
P 2.672997118693374 8.58142794920808 1.1867719101562502 -0.42282768506547824 -1.4277042748860187 -0.0710776326731163
Ni 3.7565666583484294 5.248735312789448 4.490621763627593 -1.5117716349505836 1.985711051090212 1.9179987353449033
P 2.9100000476235928 1.6608810271331893 5.0806145869269645 0.056989015790534114 -2.1238116867510968 2.9205441059291055
Ni 7.462461928625936 4.171798543410612 6.085629986268583 -2.1633678517771644 1.0941506908970253 -0.9499200310790028
P 6.654240730353522 8.450893541752382 4.707785918517046 0.8509574990701603 0.5125890101910269 0.8645313810998531
P 2.357814945160983 3.8778170479420417 1.2323156923698768 -0.8979747483599632 0.7538263638431018 1.7933146302002407
P 9.059936276652936 2.305217914106642 4.452988932105267 0.08239305768593552 -1.18615170398637 0.24073547431499187
Ni 0.6707442431909902 7.603331550354958 4.945060484042026 0.8081540307513888 -0.5601883572365448 -0.8938658683979122
