# total energy = -340876.4204443423 ev
CRYSTAL
PRIMVEC
9.21585415443256 0.00000000000000 0.00000000000000

0.00000000000000 9.21585415443256 0.00000000000000

0.00000000000000 0.00000000000000 13.48833410782425

PRIMCOORD
 96 1
Ni 2.110043482147028 1.7834889142944186 10.56848691954902 2.5230741829021257 2.370709066902427 -0.09473229597757878
Ni 1.8733066266128566 8.399826920120011 3.3951620560043105 -0.44836156767052465 -0.3510594540832406 0.3800347582696681
Ni 0.0904969207524488 8.010318854129986 9.420535272287797 0.015097517763070771 -1.0282366047027196 -0.2556512150845597
Ni 2.1877515624126826 4.854340462875992 3.7297399462809326 -0.3110060377057805 -1.328677979518776 1.1243580677183411
Ni 9.021860196402105 7.9717228579069594 12.31707447345752 0.11545667300912374 -0.8270457254495692 0.965706090268666
Ni 1.5429827745063744 8.101270116480762 1.0673829659383531 -1.2957532037662975 1.2371631620372308 -0.6281778379026407
Ni 5.36690782627912 0.7874108533170976 4.7250438755288515 0.30776619061224414 0.18391049490614778 -1.0541286419781328
Ni 5.769345735320938 2.37706363366708 7.536606452445077 -0.9824213461408177 -1.3133462342577125 -1.5571120107585956
Ni 1.2243538410262107 3.302068107616797 13.057516727263957 -0.16516406753658006 0.19039687396143987 -1.1681706940279173
Ni 3.955490582355346 8.022225737396496 5.119146044698719 0.3509612379424794 -1.1803957753391994 -0.5683323264999179
Ni 2.9468614499224035 5.63919944624224 6.512882672874195 -1.3219347472576717 0.8117692589064729 -0.4435705740397845
Ni 4.780069896123037 1.5134736102498962 9.473193740009561 -1.466614835908287 -0.3998021707045824 0.7016563667077658
Ni 3.284124840031737 4.822564198554837 12.385918745421527 -0.4170941250158107 1.297641936148578 -0.1939290554844144
Ni 3.7982496827475893 3.1945743874770205 3.7452649737970054 0.01585470764406947 -0.8593194978816104 -1.8507458757345159
Ni 3.5901372694934373 6.577760441310409 2.899897458338702 0.01597426394106926 0.6020153205746599 1.4124239516881805
Ni 4.420881989534578 7.275566468534653 7.458725114125699 0.4975244025484205 0.5283251899793611 0.8433938277902895
Ni 6.860493623766529 8.100376178650382 10.88576020091734 -0.8359587116684829 0.6748893830265668 -0.3696048211855957
Ni 0.4274211674374724 4.338114405466048 8.676222359834352 -0.25030743427414315 -0.29390768746259704 -0.3003184760849473
Ni 5.780174363678639 7.012426191515531 3.8001628940216827 1.1886302474338495 0.38473730595166 0.5951155081310331
Ni 8.848012328027899 1.0861528956201676 12.63746271345129 0.410764326143041 2.602159259260751 -0.5582284052966967
Ni 8.378123584134999 3.1011164128596107 5.294225151156831 0.11085851211548005 0.8087875505703297 -0.055289259490608006
Ni 1.0689192487870587 1.4071318718503005 6.68259262283767 -0.325771111830097 -0.06573179498017066 -1.977558597186407
Ni 3.2248668993168224 3.023224015515527 1.029019209234147 0.01838621581667156 0.652112237231051 -0.03146181805370711
Ni 0.7370139561476559 5.767742176738605 13.069102898814002 1.2147611401929468 0.911025153786018 -0.42747469691918644
P 7.138139654858011 2.0628951734848973 3.441791512090664 0.2846707422453614 0.23653223486692168 0.4620634906376494
P 7.671673085932436 5.743550560194803 2.8614959166334177 0.5133081477452386 0.8052240015887875 1.1634768880966737
P 1.8988437578291906 4.0008694470645585 10.973434305613647 -0.37163470713143093 -1.0018277756918874 0.12071072231921147
P 8.315354403076013 6.057101558164249 9.057334782901938 -0.4836108777911219 -0.8877016485687291 0.30683930792260056
P 4.870726251148327 8.382980339151603 9.452731779547769 0.89417748610106 -0.2935960697594492 0.5889985966000179
P 2.244152588411948 7.494940655280816 12.516647476468059 0.33173941359838993 -0.29559793068082646 -0.30929522566226086
P 4.753131955110644 8.68973925278094 2.681454072838606 -0.4886021603581262 -0.24397660696010887 0.1786199359311698
P 8.616611451914245 0.2463637365405168 10.749635587399798 -0.554585923448103 1.5553101816631667 -0.7067762044328345
Ni 5.476069615978679 6.829113641163997 1.3770236770889281 1.8257084731499138 -0.3520912377818646 2.056123539375504
Ni 1.0530219007725599 1.790668064499227 1.3715614404696854 -1.2338032444260623 -0.02074108920209331 1.161391980543187
Ni 9.195781791607683 2.8089646276957683 10.671376399069642 1.3363622355369114 -0.6916825433245055 2.1103018251901204
Ni 3.9080657980755715 0.6447392971737597 6.856281978524428 0.8770734794309217 0.21313056811352973 1.5683749852669246
Ni 8.532424626341813 9.072363075891644 7.435956425427369 0.10466549593089071 -1.189818611314996 -0.3073208755447095
Ni 8.14815116537917 7.160635554280268 1.3353661741931961 -0.2045065738899446 1.6847636831720145 -0.7210198588360421
Ni 7.424199760579777 3.6870051100617833 9.900855441234384 -2.699009887132913 2.49423360452135 -0.5978593894247575
Ni 8.190203106822741 5.928494316690434 11.264282969032998 -0.424960672248081 -1.3522925336139227 -0.3367854606627297
Ni 2.805379660520325 8.872397477504052 8.847159861540165 0.37291640205733195 0.5875634068153881 1.283623253271983
Ni 5.457020445923045 3.551255581798846 0.3221429385804122 1.3214580647315692 -1.4335962148904213 -2.8886133186587806
Ni 6.303800751787506 1.3615963376244231 11.749957549107947 0.437795105008588 0.7733312666452488 0.31228618996978474
Ni 7.14443408308636 4.01538441699084 7.183670581156928 2.2210045284540265 1.8585358040925797 0.3787332658494252
Ni 7.134222916941396 9.153047876973925 2.6382105214829923 -0.34275067710722906 0.3769898007957572 -0.09905509172264876
Ni 5.613238385745519 4.933486216353392 11.353967051469574 0.691393551329177 -0.04671283067550665 0.19599622242608827
Ni 8.070562891214495 7.690961868190027 4.197448219136018 0.9855933161108963 0.16401735552664656 0.7108305770078661
Ni 1.327488462261142 6.073266165942469 10.656552698036991 0.44855157219414366 0.751585647438041 -0.20230750935609676
Ni 1.5936054600968916 8.944824873472717 10.922704716117643 0.07912878511236696 -1.904132261775456 1.5682178908637703
Ni 2.216145608344666 1.057546885047991 13.03625851702335 1.3674445587640127 -0.5271972470225049 -0.6158920785567521
Ni 7.4227713032219516 5.486124112606979 5.107128571185151 0.48093975871686206 -0.5647276398677952 -0.3672116383630708
Ni 4.792695615995422 6.929363700121516 12.870608150712272 0.9244257434626402 -2.100569171283389 -2.62216809828251
Ni 7.245061992054658 1.4147441671894174 9.412024431191337 0.5159008481730792 -0.9190097146533914 -0.05544995343818837
Ni 0.08771465445356347 1.0142508033250255 3.6045278253917794 0.01536928336721869 0.17169441245593012 0.49886548995734736
Ni 0.596416888722036 1.300393851732083 8.877549139846142 -1.5854833628124374 -0.2732465595688197 1.3536259077133657
Ni 3.053304562715135 1.0429305407285736 2.44219760284231 0.5020649707312514 -0.6218230993292065 -0.607405895462612
P 1.691874110461298 2.5342308064434644 3.505064800359153 0.04749984535317626 -0.10380906146786639 -0.5228109450293512
P 1.0372074954433539 4.507133166385416 1.3632524265741075 0.8517895080531523 -1.8077215496541899 -1.3092280983242806
P 7.435221921869829 3.653404106664182 12.267235135450328 -0.032837615355311184 -0.5361940512044766 -0.22354430724768595
P 2.5770476637625146 1.8193570177566967 8.289484579533115 0.7272038761595669 0.7191632652432776 0.4396684107719008
P 4.561626510622942 1.2514300198474266 13.197876025658402 0.11102434826938298 1.1959617480982565 0.5560794772744939
P 4.13454540819517 2.4329209242849794 5.710164286193572 0.6238941229256223 0.790295148193097 0.7922782400613969
P 6.953251193485911 6.896518396745472 12.740675669444553 -0.0846268321124607 -0.286683401800016 1.2000534016691269
P 8.12442034153144 2.0637798954613564 7.475935721324005 0.23097222428064096 0.2337166197949975 -0.3034953311510321
Ni 6.129667191941735 6.298234376018951 9.339227479480424 -0.4477627577442611 -0.16304727830389337 0.3813791881127045
Ni 4.161879630926187 -0.03260661275947729 11.468550528031122 -0.308633680818862 0.1312177924981224 -0.31692831672748645
Ni 7.5480424055762025 2.0766175799739344 1.0032314067911494 0.44771879188020314 0.5609033810256985 0.15433920900693418
Ni 2.913297309940488 6.059645133846568 0.8311188837103518 -0.24252881876998875 -0.4415118917385428 -0.4810264048933973
Ni 1.1116900268365015 6.641543366300755 4.7859173554361965 -0.4013792853837152 0.18528166422206155 1.6994315695968345
Ni 8.094487247994577 4.918777713494761 0.6519765072582733 -1.3489411006431864 -1.2523056741056238 -0.6122655375477584
Ni 6.507581713698578 4.0199646963898 2.3640324162221518 0.1774876220989395 -0.8214144953057209 1.2388282084444795
Ni 2.8608038060039167 0.8515080389261648 4.839803374900298 -2.0283484261447646 1.1232308960924333 -0.752525128533175
Ni 7.623621623586002 0.9371233218564221 5.592074177214912 -0.15100757353053992 -0.7031002982431439 -0.9307563136663584
Ni 7.1995817529523105 6.633018701423414 7.259772338084075 -0.9752731651318107 0.6075357361722569 -0.8067082994437978
Ni 4.941411850725839 4.962930869632421 7.5745084948678185 0.011172471677051727 0.5901687056487191 -1.8323326633346506
Ni 0.39078814809971424 6.770381004122606 7.449296373978664 0.5796266684668147 -1.462666135673184 -1.4317321650984893
Ni 0.9243501483212945 6.238967219450115 2.3863292531997042 -0.9357666223967562 1.5262412893216684 0.9611030442790158
Ni 3.868640374999614 8.473636694176893 0.4835890323325252 -0.854866090095947 2.5630872329599534 1.6663121613350462
Ni 6.081615729595302 9.084085642079726 7.841631863951791 0.5149035172568164 -0.14770010642386175 -0.20544142699938814
Ni 8.912320556691768 3.732273384523939 2.9013406610628008 0.11600200398963248 -0.4281146444960305 0.4269998141652969
Ni 4.300126655601837 2.991973054867895 11.662930397356922 -0.14398486235580366 -2.1799067299724526 -0.8657827370084509
Ni 2.832842905206242 4.756375935690993 9.101752434047144 1.2001683299804362 -0.3549611031304919 -0.21710060850487126
Ni 4.120389856571825 6.82620143132482 10.802495882322443 -1.651807282850652 -0.38123083546029823 -1.8114769029315643
Ni 6.582995046337791 8.878323271575542 0.22662522061155818 -0.3145932408364066 0.34196057710576594 -0.7299508427770848
Ni 2.199593934701744 8.192073925168796 6.716812931618794 -0.2838600734186079 -0.43198544030534636 -0.3252288661733818
Ni 5.403651435863935 1.5254818679095437 1.9764182082129842 -0.8222832710639193 0.2729074310618461 -0.3361581114913759
Ni 2.318165111255102 3.3973692530184976 6.699763601864114 0.49794940590098113 0.14516525581714998 0.3933217051865613
Ni 5.711516251963848 3.750649797243308 4.840720352365483 1.5242096036036201 0.16673244046496447 1.2554899853708763
P 6.416906926965444 8.254502119632688 5.823804059313561 -0.08340118723547571 -0.6899791874801536 -0.6089588417720286
P 0.629097228312885 4.653646812028605 5.853869861146895 0.14295513553970865 1.1443820762487518 -0.12908326265362285
P 5.201326578872453 3.759920946288285 9.138278549479413 0.4862745406662141 -0.7926579919983188 2.669343727527048
P 4.495290794096355 5.698309933294412 4.976075442080583 -0.5976979241462288 -0.6195361030672427 -0.07676234176271941
P 2.315658398988468 6.8054565441476385 8.636013589175072 -0.2778362358220312 -0.5899619889545517 -0.5509251867670641
P 4.627151232004441 4.740063874250029 1.7220560320540421 -2.4184410828710674 1.3883761667103574 1.3264051243241994
P 8.730528622237273 0.1930315898970938 0.9898831639713233 0.21393918005775417 -1.4038313249231629 1.8996729404525219
P 0.6992206608011873 8.879456821607882 5.4181829943272755 -1.2063798581077867 -0.6486988406741279 -1.750606292698437
