# total energy = -340895.9900415351 ev
CRYSTAL
PRIMVEC
9.06328647848413 0.00000000000000 0.00000000000000

0.00000000000000 9.06328647848413 0.00000000000000

0.00000000000000 0.00000000000000 13.26503589230565

PRIMCOORD
 96 1
Ni 6.527986041603431 1.9341143621243426 11.42384913996196 0.25632073034775854 -0.157943895639057 0.5597317293151006
Ni 4.522561742781536 0.3535442977469234 6.036227533937342 0.26309095919205655 -0.34177365790594044 -0.16205380404237255
Ni 2.7957609917425787 1.5635165848540187 4.6782862218541945 0.06360472133483885 -0.037635550964586796 0.3386230280921007
Ni 3.5160656713356087 4.154238850375357 5.126644276689844 -0.19918130502228923 0.12337361386335526 -0.19329707832737034
Ni 5.256769503576148 4.374775796188974 2.757071635136769 -1.012495796928695 -0.1149005433953376 -1.439603854537082
Ni 7.24930580926333 6.156889783585984 2.6901628302719995 -0.4644867553671614 -0.27020597297028304 -0.9326902974642777
Ni 5.157100544010441 4.710407414870182 11.587287382014193 -0.5711942214287453 -0.8010886392641752 -0.3626101350353174
Ni 5.710550122611868 7.8381747107694375 12.290281184752581 -0.4734128542121976 0.5165477377284587 0.6352170041376093
Ni 1.7235198413942558 6.765462269532926 0.31807331411026735 1.3885412315333117 0.20586463057973575 0.40873032643214774
Ni 2.676098422574076 1.4469174064587458 0.3588055354506511 0.34431776448403284 -0.04154517043163813 0.8623045486518633
Ni 0.3488730799820634 9.157453856105708 4.781342131514445 1.2327478065783541 0.06051374111434095 0.4967728690943767
Ni 8.68698772697083 2.5251584523451696 1.4350245621610171 0.3666470241088524 -0.2757019630878478 0.09685834118164609
Ni 6.858524093377672 0.6473425058009218 4.842189410494197 -0.9078863510467203 -0.6393942754437504 -0.17622521044674813
Ni 0.7189624068903215 7.454571117642353 2.604974283245906 1.0025957642061636 -0.22496124219987063 -0.4077749044974138
Ni 7.688911448508128 3.820057357503961 3.724052684593925 0.3071226434909743 0.4507755764286559 0.44733261218537795
Ni 7.499660967041225 3.9535595648698663 12.71464237642172 1.2516775536033216 -0.24016057564812832 -0.7377379429216715
Ni 7.863805684457882 8.87772458739279 7.027165568101238 0.5377202580410159 -0.04154774153479941 -0.5059635344547092
Ni 7.016877831809247 0.648453664702691 0.4521863869735564 0.40222954919915244 0.34987983195284256 -0.7061956493390161
Ni 1.6884539866557162 6.5829729996542765 9.1783963917853 0.8058318103761154 -0.14169786609383983 0.15334162098035528
Ni 9.137605259083895 5.093304071664982 1.3272593689333985 -0.6848616637479302 -0.6741023683488971 -0.3743225383762392
Ni 6.30067882091525 2.150455006375813 7.082308414676638 0.22384101255249836 -0.2611551756219244 0.17820778809441568
Ni 3.6061819271291724 4.2737745335355015 0.441676600166937 -0.5800838106088912 0.194482099774407 0.35885812419205293
Ni 5.823116138598598 5.439086571014881 4.665870425936302 0.8987573921622586 0.4314095131972184 1.6183564593913742
Ni 5.071878462824996 2.7843865674218584 9.593499436487416 0.06950463175904159 0.5274990945336399 -0.3066439040823429
P 0.36335711783620145 5.615974729953129 12.45031072482312 -1.5719591030737574 -0.6147813619910767 -0.6796472094265263
P 3.980314386060915 6.219897750022358 12.757223508169615 -0.5516857190821725 0.4934288923228083 -1.1087990369378193
P 2.5090439292836235 8.582614921809542 1.4322792927373151 0.5123223867932015 -0.8966994811919654 0.1857514047696285
P 6.362046332529272 7.686690943361851 5.8494957397363585 -0.5633994079746749 0.6164700625474093 -0.31015757366255614
P 4.8137198155330445 1.0783588686084713 12.465856979832946 -0.330343818802444 -0.23866522204952445 0.2542509923029234
P 3.9970724024505664 6.334267359985042 8.027230331580647 -0.07140262011270283 -0.22589069599267547 0.7596164881623176
P 4.829934034744016 0.7630407935368486 3.7589399925921314 -0.026706562756908844 1.0379507466666897 0.06089452149252739
P 0.06293546014588232 5.609168201933319 3.5518729028944147 1.4531414840122006 -0.5878755387391682 1.1469770906694376
Ni 1.41255848805249 0.8919288818416554 2.6302971051997646 -0.2117838242776482 1.2745328609349404 0.4642586985167553
Ni 1.7423442870628902 6.530850040077811 4.8136690611297 0.09234759779548611 -0.5792942248280604 -0.24925765285339005
Ni 6.016952642939033 5.603829926295945 9.257124628328677 -0.2654350339442009 0.12277531815772405 0.030289137901844614
Ni 8.649030683898975 2.375432962481982 10.22610866406064 0.8293923713048748 0.043756576260660124 -0.02382872698848154
Ni 2.1985901199752917 5.442584999531055 7.025335690594981 0.5528118622668157 -0.8904828108582923 0.016626552813087496
Ni 0.6038831416094587 -0.11176028983365345 9.189180796167156 -1.027445733370308 0.9426898318791506 -0.9293535197815608
Ni 1.487230903971546 1.0082180958450808 11.528947914356786 -0.7419028729326383 0.8454072586758924 -0.8819981704260487
Ni 3.9578646258677486 6.747444456345999 1.6119535058876648 0.5959439175695994 1.1728387889275478 0.7856787324670083
Ni 5.735827628134169 7.940680478950592 7.999519333683752 -1.1517752833890291 -0.015997146759204706 0.007965277593663701
Ni 5.457593801662619 2.83730709619372 4.6564391702007315 -0.31993290788176515 -0.4953050262995986 0.6622320992738724
Ni 0.8364416303864248 7.403010081817192 6.920303078190229 -1.1613847814543352 0.6137259241433689 0.3349340092762877
Ni 5.162583832228796 4.538884721428244 7.270632628282522 -0.17850963560555064 0.5209306972875029 -0.09042441263084426
Ni 8.058040973396016 7.152419278595201 8.988003029914541 0.36740344265890273 0.49535953368661784 0.10605363452766897
Ni 4.929621120882345 0.3273296484200297 10.223482123687615 -1.240742908968689 -0.2138383928138317 0.22918402203196656
Ni 8.187872549805832 7.22308572196465 4.83095365445404 0.09264738842409205 -0.8464560116553809 -0.08527577855036926
Ni 7.227499542398268 5.982983445844165 6.853486718845835 0.5278405370334587 -0.06407574743398642 0.7878184045178304
Ni 2.1725059819712813 5.335311942750142 2.422142421144688 0.41852597236633077 -0.44946997024335494 0.949076966352417
Ni 2.3006880402724352 5.269702813142417 11.521625685345862 0.7548290940760033 -0.11638227014718666 -0.04176731374477323
Ni 1.163590013080228 3.3360688051925753 3.730021764958568 -0.22510676663879944 0.08340221567674024 -0.2161349021574923
Ni 3.8525945553616388 2.3461948008416282 2.4406741226654667 -0.8170965846566574 1.0326856416130086 0.6877107031609511
Ni 1.190236074835541 3.309875907752829 8.108731027406659 -0.7953255115281529 0.9804436535891565 0.5949396446748011
Ni 3.536884039992736 3.003355564703615 7.405657467748732 -0.5725157684536463 -0.7069093875765889 -0.5268041253491443
Ni 4.2283312159704876 6.901547513497561 5.876291345715809 -0.5316185160186522 0.29109927147952447 0.4422037755992449
Ni 0.7499606587323357 7.4988905877047625 11.297499678152958 0.5596599955369007 -1.2899026585227915 0.5025059149234119
P 0.08621360470790482 5.572434702513495 8.05723615357157 1.2280907674223172 -0.3137879713262919 -0.9572335340212804
P 8.594850358329838 1.6733545516610389 8.011617008252117 -0.7642071928567936 0.23619259213931584 0.5968355761459334
P 1.8598316675166737 3.274665040433308 10.269657754786584 0.08515802202558237 0.37573844488715935 1.0144236100790271
P 3.852286403627054 5.916975531638742 3.886854683947101 -0.7428043017009852 0.6509981782312659 -1.2051997217567567
P 6.8949041246313545 3.881388615972738 10.464561007925862 0.07725985022442823 0.8326425028110562 -0.622503670335999
P 6.411631571938564 7.758580930383329 10.209195665475065 -0.35813435865215093 -0.18476178716284955 0.056010968147980955
P 2.3094159849902467 8.613837943152078 5.861553535844953 0.18958080581804768 -0.265611154510749 -0.381964114081897
P 7.03378992406619 4.118756084466496 1.5528046867626568 -0.06588220451510589 -0.2851104008859412 0.5961457491677604
Ni 5.496602185946589 2.8206940923850503 0.5758340831331515 -0.31685915405244786 -0.29632426732388967 -0.8741606766595009
Ni 1.3275267358795826 1.1836470656872033 6.974596694838256 0.7903622539856066 -0.8539777739537228 -0.09934665482113858
Ni 7.1125045656801005 0.6465820960794012 9.199156755410035 -0.6292034509536777 0.39389274719868295 -0.15630404604278889
Ni 2.703324534653314 1.5868001673878283 9.255863925202773 0.2649442103507115 -0.8863147955235317 0.20229054007523223
Ni 6.484074419425032 1.9734943411470756 2.647329739164649 0.32297812246599217 -0.5031661742152302 -0.29334718697343676
Ni 4.109121811117551 6.866826063638851 10.410280986207301 0.002467487703886073 0.5894752791261202 -0.12520423931419083
Ni 8.018724437377461 7.230562933171497 0.028847534000335375 0.33845564927630095 0.1752142526837305 0.7085772621973152
Ni 7.807595182755007 3.922862214133388 8.350631951713346 -0.8846219812021409 -0.770288366053867 -0.5433874836291221
Ni 3.141996655408045 8.497057499030578 12.202227732923475 0.9316060632611635 -0.7692853787106493 0.6714376770325404
Ni 0.2210009860727569 4.8334959062643685 10.261619526157064 -0.5720809949090728 -0.16552093665536655 0.07873232100489667
Ni 8.40657871178456 2.183508811553237 5.805150892472278 0.3762395528932939 1.5532820954895443 0.29174564681427173
Ni 3.395233938232944 2.7085087344233956 11.777919108314943 0.7978364508754646 0.6759504773012294 -1.0943494371713927
Ni 1.137415242213104 3.306250593228296 12.800865950744566 -0.42134133032793886 0.38157099240853637 -0.7495521619477801
Ni 3.0283611716365773 8.465508199380833 8.047499465087306 1.0443682201572595 -0.33750202711378 -0.5720185171022536
Ni 5.62354257402309 7.686228715759974 3.681458864245194 -0.5184480400749651 0.6908919291024102 -0.23730716535973326
Ni 3.0782998792120106 8.257886436560863 3.867513630958721 0.786660379653987 0.05430786941394518 -1.2335772444581852
Ni 3.4402784712002585 4.709700478537899 9.370819023461168 0.18980860555813764 -0.7717855194246838 -0.09337346795683919
Ni 7.291567913333067 6.078691749291821 11.311904865416189 0.5798506115521627 -0.4243482354750628 0.22283314011327432
Ni 0.6030275673816691 -0.02963875889531457 0.4520721895660336 -0.9724544647360931 0.24854340039518483 -0.6378528990985596
Ni 4.782016440016009 0.47693097126075223 1.4354623188898545 -0.09725737639227766 -1.740925317965247 -0.21048670273277942
Ni 5.935881546884178 5.676372469931838 0.4307091174015954 0.3040946552979279 0.7538338200422695 0.379476828883669
Ni 8.14094285328576 8.92137337426816 11.259481911062817 -1.2171782342748714 0.7377124890003747 0.6448144180180573
Ni 0.1729628496368093 4.673537966155688 5.72678156206683 -0.4455904326832906 0.09336112666166502 0.3261920014175995
Ni 7.958915811008989 8.730409931688417 2.7784147680713227 -0.939311402325221 1.1452004583849889 -0.446598819343147
P 8.534117276757609 1.7383292512269706 3.6351771926963825 -0.1373763559003505 -0.5739748694976761 -0.804423617174679
P 1.9457878748933368 3.2244634975548454 1.5739493337269919 -0.03228611372721537 0.03535035447483589 0.5460969121404853
P 4.653145571955194 1.2043929280538401 8.053720504811405 -0.28510423023835413 -0.6723738156935646 1.2818291374860376
P 8.602046607661036 1.7148281498216895 12.437801577056222 -0.2397309443098775 -0.4440009767089837 0.8356098129694964
P 6.397565351583379 7.873729982968789 1.4612627760323205 -0.3237430256564747 -0.8450758434784026 -0.10312797624044173
P 1.7751533835099085 3.066073505978025 5.9723966211039 0.06663373796914976 0.9272732402137642 -0.7396413305919713
P 6.809083866549361 4.018044846974986 6.0299403322231715 1.2886417895324969 -0.892155827685341 -0.870425892207417
P 2.364665778344121 8.464493111313965 10.156414711312397 1.3768388554947193 0.5128566620301168 0.8835994534748977
