# total energy = -381167.1811102481 ev
CRYSTAL
PRIMVEC
9.25753179474311 0.00000000000000 0.00000000000000
0.00000000000000 9.25753179474311 0.00000000000000
0.00000000000000 0.00000000000000 13.54933354726814
PRIMCOORD
 96 1
Ni 1.4320661275178104 4.655159182688559 6.243099003882067 -1.167952921590156 0.9733312109140914 -0.5583343347469416
Ni 2.280157884092385 7.285112910316876 9.494939472918956 -1.2597428471099594 3.5071526050303925 -0.03305255957959469
Ni 1.4220957656417166 7.952284720610579 0.05526931705910345 0.9459463911432352 -0.06193221872842238 -0.7940828973703035
Ni 2.8769446792106566 2.9065317512217943 6.054506415147243 0.7095473394200683 -2.5868573387963583 -3.037357292966124
Ni 2.248210141442061 1.660662363178331 3.9583290173879453 -0.22157638488803774 -0.796995443031408 0.29605455860227076
Ni 0.6302749910798139 1.8602362362747353 6.032732700075217 -0.13397504352828538 -0.14726224755549477 -0.5565024237445255
Ni 6.924476496904521 8.138944336680845 10.215723502058372 0.16528233828199923 0.4728685516729534 2.1212752934824888
Ni 6.613821498319494 5.900908222817082 6.136357809356778 -0.9105186464632448 -0.3604164698181083 -0.5814179560392826
Ni 3.5520131642307367 0.23181970827450024 8.975159605557332 0.7008007035756898 -2.516814318035343 2.3123098010279275
Ni 0.7926048875153894 4.455900065677379 11.046487010388125 1.905906065846427 0.48913257894029954 -0.9500267318601963
Ni 2.611059104982907 3.5307856435418947 11.70302006500123 2.442798171559193 0.5277559477394523 0.7414632142920585
Ni 7.692722040683082 1.139648466811988 10.660209085068248 -0.12359164341143229 0.8118664466059695 -1.1907439513427427
Ni 6.799073969538166 9.349922086923941 3.889864940085577 0.502493830738554 0.5395048607452644 -0.7870704706082122
Ni 4.012084727978394 1.195064052875402 12.479735324731912 0.47889444615205906 2.22395435511097 0.5001623543918999
Ni 7.5169955698084205 7.284344535167651 2.5027515360570294 0.6250755448282332 0.7073518744306463 0.28094032866865165
Ni 4.824960833135457 5.746612938333468 3.196220291518079 1.0006707792693088 0.08877556417351162 1.0964970796420148
Ni 4.593994669303831 7.275485077121762 9.938260458413499 0.9070080622068251 0.39686777066660683 1.8534347354205885
Ni 3.205809243079135 6.394408734322004 13.015422409188886 1.8174117803587604 0.3204021342086998 0.7060244138684744
Ni 4.867434389576978 5.217507959070462 8.25968754823268 0.39972683738195675 1.0588170485927377 -0.05271147146110277
Ni 7.528521197046802 1.4590796056556388 1.3890510054590646 0.3277148658200291 -0.20235507476458053 -0.25293767280813856
Ni 2.811003279356046 3.8368303912315707 7.893340163379879 1.1544122067912441 1.9054594652273118 3.0910933490369987
Ni 6.838038921382622 3.6742496156810067 8.50732837855569 1.1247280494632501 -0.056272706449799856 -0.17013632394019088
Ni 8.285287401246574 8.023104839786175 13.558411834823078 -1.0704471766324983 -0.7476935114724865 0.20428160236333207
Ni 1.1380469137901084 5.4492795281789865 8.854001656575553 -1.7275041594633345 -1.903778992201095 -0.5830323517142539
P 0.18336948922647442 0.5590577237849197 13.57805816906026 0.5096700367720189 1.4196973454211421 -0.908507786680803
Ni 8.299312562102916 4.739550843656496 2.8185592769078265 -0.9805583247901499 2.068237291919903 2.4530141928602465
P 4.157687189990652 7.775410315778039 1.2930670630229324 -1.3556977026407295 0.5241605170787103 -1.4653781352877084
Ni 1.4340564968802616 2.74338626622421 9.365340506333999 0.3315612361493128 -1.2228770844318617 1.873940054462792
P 6.50171278678793 4.097578035244619 4.673273395393249 -1.4304391573186783 1.1633642737782093 0.3578993598232094
P 4.446429610524878 7.657589707052835 7.910480483726756 0.4916160074837856 0.5542241692333101 -1.2832411873422156
P 1.3398240794830867 0.5029718924106154 9.9196028285852 0.2158762491794669 -0.8807036199843413 0.8692007615510644
Ni 9.23726718100919 3.2546149513528264 7.770908378006131 -0.7442289499626538 0.6752992168704757 0.7322213839788164
Ni 6.747518774284716 7.359654557323659 8.216505790599404 -1.6093354868396867 -0.1937508780353373 -1.8588487073473083
Ni 8.81290191787072 0.6335799299746749 8.60144229954431 0.21734923418056765 0.6194512566629203 -0.014562985415839436
Ni 1.5665595512280135 6.504415986108096 11.656383396456015 -0.7108092368516274 1.6595984967602968 -2.3354584712302486
Ni 6.076680981351335 8.922483323188567 1.45442584436027 -0.20476625530923445 -1.3490177195173927 -1.0670348085168397
Ni 0.2603134657660775 8.853847981545707 1.8689818266780276 -0.27233176106403423 -0.3957894500007635 2.9432235498044923
Ni 3.538043548565904 3.4228428213736013 3.2858082051518034 -0.1320343748621468 0.7530987416484578 -1.5430827863590393
Ni 4.659121406349624 5.1890595634852845 11.625978884376483 0.609285371873512 -0.4218560651808283 0.6256622705696386
Ni 5.930337916785608 0.9467492742287347 8.892413933764482 1.3528103537906058 0.08836187367486072 1.2910899939626734
Ni 0.8898265619690089 6.435456630848095 1.851610993786382 -2.2492013026032165 1.4418304298747555 0.685271240481523
Ni 6.955155957682028 1.498044557500094 5.937751348345845 0.5403852064676887 1.5550458722581864 -0.5456955629370086
Ni 5.3192574923853595 1.6637080911794777 2.40252764400228 -1.5608905039644216 -1.1383168438912783 1.8348312613867883
Ni 2.690757197268228 0.3646865836266443 1.5642701635845986 0.5751282663758288 0.4705694712261315 -1.024212828255307
Ni 2.2395173189707034 8.532009884403278 3.4560014491988493 -1.4853026421257773 -1.0152378784502065 1.292297641117529
Ni 7.530159780196356 2.6440344336761714 3.572850942825815 0.29160655013324616 -1.6330310306844134 -0.06229345872258304
Ni 2.1563661672798276 2.710188756764904 0.6575115757368754 0.011113850524974407 -0.25002615558829844 -1.004966064210553
Ni 2.3800466534916893 5.348576095970865 3.9186975232453674 -1.102151963934947 0.8175408712829274 0.19396350826677564
Ni 8.87044673627536 6.524004923647386 6.429917849501329 0.634124799514695 -0.9985647886698997 -0.9078850654951396
Ni -0.10718185304460284 7.370550672391591 8.50746446427489 1.234856111170609 3.2468615771809755 1.1358262162589405
Ni 1.2184856086288993 4.21552824941668 2.2459642641986624 1.37036224663144 -0.14593710098616802 -1.5528820318376482
Ni 8.59481298093756 2.2955068720130565 12.59094883292697 0.2567488190241127 0.46216144966809436 -0.39092260882676544
Ni 4.9745440338726175 2.5418127662334355 4.808089906967404 0.27352758114434833 -1.0133445180822356 -0.6151307749106955
Ni 6.281439072322031 4.567286689719309 13.384709060425774 1.839579317594735 -1.8149808023197647 -1.3253106057084403
Ni 3.1176312515565794 5.3870596561555635 10.039974813107106 0.22146659878305083 -2.466886579966964 0.11540730782842706
Ni 4.1519012325416655 3.936839508545814 0.05051464866582424 -1.0946893370093147 -0.45972404387119536 0.6924615875823752
P 5.3707663999792175 0.20042186302012766 10.986802776357148 0.021001284842015445 0.7515704779293896 -1.1059122023083274
Ni 7.9433326872455075 5.873524443402519 0.8721520820304406 0.55522767079716 -0.44651551560072134 -1.5024886669867608
P 8.049248109923676 5.646576048423469 8.334154209230926 -0.5099004076152702 -2.98931005974991 0.08692231301485676
Ni 2.9499310608551528 6.209646912295006 7.502063170824076 -0.7597969796042399 0.6058552631460404 -1.6082623083801655
P 7.45671052195594 9.15082960548729 7.085515893390675 0.5884157275133544 -0.9208966472634591 1.3455235903212053
P 8.894608894582328 0.8664818437304337 4.044137080739397 0.7909155553859153 0.4032474489407055 0.1429780183578441
P 5.603861796152071 2.2383971576085795 0.44958555734371003 0.008948467442539429 0.14491354481766008 -2.1672972687385577
Ni 8.263800669664016 4.062056885273801 5.878554986246965 -0.38384487604437767 -0.06945938034340296 0.0062590935358343815
Ni 4.1039842473321375 4.927867557940153 5.34930373797965 0.7788174865708006 -0.8389756441179357 1.001088840643334
Ni 2.7164005606821364 8.693674164293924 11.643932016025794 -0.6002212047887147 -0.4274047629131994 -1.1113901947037634
Ni 6.700657147713884 6.562655119406616 12.403913361060818 0.42476938217288135 0.6595267845275673 -1.3601824778849607
Ni 0.375387364771098 7.055951965209334 4.103700041102243 -0.6718480250970817 0.06932645430996447 -0.15596851708024106
Ni 6.968690469346697 0.5382893766792294 12.715182134012034 -1.5080216809898481 0.0013356880922880223 0.5170506455068064
Ni 2.983415553803928 5.987169905232533 1.7268759344713416 1.4219889696687962 -0.7911736941433084 -0.4547669569762362
Ni 4.774636889627152 3.3347296325744744 9.700848275107107 -0.41546738804566513 -0.3474845922477886 0.3520382730567421
Ni 8.447775601477952 3.588145311308168 1.0019241644622707 0.2919670187964585 -0.3487146080001478 -1.2893850954564245
Ni 5.7725432852368455 8.381667566048812 5.9647963020921955 -0.561709936087394 0.17776555835067448 0.7845189078309521
Ni 8.484139186853342 6.353758911668405 10.560106466681628 0.35436177898359617 -1.109604049337618 0.633768958837173
Ni 6.3839014355946455 2.959725529624797 11.769669666047596 -0.826631520730286 -0.699095547959125 -0.46768032260379455
Ni 4.4767572850894854 8.41518908912526 3.237775500793296 1.8758208164252728 0.8507584956854767 0.9034131457667149
Ni 9.023834782630974 8.56334662994699 11.311620873024104 1.5385355333079889 0.4220309001957958 -0.14036757731819052
Ni 5.997038434257524 3.7721572732497783 2.0117237113275057 0.13909719524619915 1.6285028037967564 0.732004897092636
Ni 4.845808795015646 8.342563751225581 12.737349294190592 0.5288445528179407 -1.9185126988668442 0.8612812495936716
Ni 0.4876164242176009 3.478267664968933 4.165092289772162 1.0373570789467488 -0.6327855118779812 1.132951465814307
Ni 8.324335670878293 3.4344425088673294 10.31670651173043 -1.530999372831944 -0.8536985521504071 -0.6867480821373656
Ni 1.5560892826283272 1.6141617803523158 11.850612896375939 -0.7152287060755618 -1.4122015512647292 0.34244317316913925
Ni 3.8219072497791444 7.256229410731535 5.108830088867849 1.0011425766994049 0.5778587779331145 0.3286540898048469
Ni 0.5067295246162852 1.95681080924726 2.1940026632939955 0.15629041919603406 -0.3866980292224566 0.5556580734663592
Ni 9.501375309108612 8.814660848935212 6.352510070612615 -2.143958079791985 -0.2523954271514234 -1.0972982353870715
Ni 2.3502466582464288 8.792877876331268 6.777675184508834 2.699994105423053 0.27828437910304327 0.21360905041184503
Ni 4.758417693706153 1.1804093798486086 6.986103886885168 -1.1414785294487113 0.24747793524514797 -0.8457139912830338
Ni 0.854016577002337 5.278459549221066 -0.20602452133713034 1.5435818374826449 -0.6758023817591393 2.119874042259588
P 1.905718490589729 6.800777355411148 5.574114568838745 -2.345872210364405 -0.2642368998710417 0.6295266386210513
Ni 5.363795478444678 3.5309245065206705 6.849297005948562 0.033701506017503255 -0.48976352765607906 -0.6073943254983861
P 2.758485300783085 1.6741691022472454 7.935018497829612 -1.292116635454975 2.155106125989005 -2.1915543415137098
Ni 5.618322061008578 6.212396399274764 1.0282905411190044 -0.8433835433776443 1.5687799340148274 0.7819079525706663
P 8.471845184465737 4.647577264047406 12.308865355101634 -3.6572692913155462 -0.08489088440712478 0.5530190931816154
P 6.491909060486368 7.229826929700319 4.291968616219924 -0.9500940947630216 -1.0781039218468078 0.2901219951679197
P 3.8518553655350987 0.5197780158552398 5.082774765283572 -0.4888998941042032 -0.5183613938984298 -0.8605222599404599
Ni 6.316404770377747 5.41465635880425 10.042806692120939 0.9182226999757217 0.25142329304614125 0.4912920484854635
