# total energy = -340887.4534972131 ev
CRYSTAL
PRIMVEC
9.07580996125528 0.00000000000000 0.00000000000000

0.00000000000000 9.07580996125528 0.00000000000000

0.00000000000000 0.00000000000000 13.28336527522766

PRIMCOORD
 96 1
Ni 5.454670611023298 3.6298882887862307 9.465845468864527 -1.3034073778774455 -1.8845427696793027 0.5320262929800321
Ni 4.251318062912831 0.9553469689925416 6.927633703526163 0.47005190815976466 -0.0995824249810285 -0.9357301127318658
Ni 3.896499278033401 2.648756944097501 2.965086127114924 0.510143891084644 -0.2757618697915057 0.4928915317620995
Ni 5.15665731980189 4.7318821928364985 3.28247899504315 -0.5791109051726607 0.1968040630393643 -0.062318398423247504
Ni 5.051241788752534 4.6754760348105195 11.80169844057035 -0.7090840266304046 -0.4721949226446964 0.3208549054754023
Ni 5.793842699774524 5.954793111107221 5.376813776489771 0.7610578485945345 -0.6232125234775654 -0.8420367995417627
Ni 3.327137424839229 3.054808675405998 7.889322848420322 0.6207648332680212 0.4790176019934847 0.002562618520853651
Ni 5.61271676321387 7.96199921070908 12.78049639455458 -1.0854621619840918 -0.2945664040925185 0.5130926893003227
Ni 2.1102709959080572 5.635742092725038 11.778558755855464 -1.2540450253942337 -0.2027453682244637 0.7577385544133143
Ni 7.977464390640901 7.439886023433371 9.353348990994277 1.5045468350673703 0.04437981166695582 -0.32094823652015697
Ni 8.163255293448596 0.15532794714973785 7.690803122341279 -2.0265062307297033 0.1368233116103579 -1.3412146785332062
Ni 8.449878443346979 2.3376835625463452 1.685711873216362 0.02543438091270458 -0.20995679837123837 1.3444465552069427
Ni 1.284218013599039 1.347367498320642 3.0414917396583685 1.6774180414402207 -0.15043498885652157 -0.7869046344543092
Ni 1.8674930832459584 6.389397340106745 0.9717197299062771 -0.7259905725777561 1.1533817086442009 -0.5204673844978391
Ni 7.519526254596359 4.274515832810563 4.223738492034417 0.3913810365204227 -0.8143678728715846 0.06639076872040824
Ni 7.656761574871633 3.8041801405530693 13.225516022902553 -0.31979946762769434 0.49159338177596623 -0.9325159766699423
Ni 4.5554212225228845 0.1368250936714492 10.886394852080855 -0.6132371574324085 0.533105899197456 -0.9998439124926394
Ni 0.481488047363257 -0.04445150133220287 0.9534537550642682 1.0228195474522064 1.148941670594976 -0.2520714681531014
Ni 3.1492515523840097 4.621157313042944 9.861251275255169 0.8808784549993088 -0.2490159691562292 -0.27717777630242585
Ni 0.10430102160356522 4.830899277963359 2.1058383703923873 0.12213845590467351 -0.5264400571415062 -0.6240291058415898
Ni 6.347340037404832 2.2747882004996782 7.6998090484248145 -0.032072455054512505 -0.13839991206885843 -0.7225476083344782
Ni 3.4357657925645624 4.649909478549992 1.323295727937327 0.5850871773607537 -1.3184025657346972 -0.7677463163583036
Ni 0.7220060833803889 0.5597623691484633 5.256386855999552 -0.38650648203694077 -0.19113632323062568 0.6636636895140764
Ni 6.77151616092216 0.782695116060022 0.6557771763871502 -1.1373817336715188 0.44188110215250354 -0.3174366238224726
P -0.041596251563100206 5.790974743871675 13.224161004496553 1.2312344552576213 -0.5370116620097656 0.06706748307245869
P 3.8782205970576458 6.142852966369702 12.983679271718698 -0.09664236851609807 0.38862301415931133 1.720942704195733
P 2.375829191216207 8.626611687955167 1.9890109160764395 -0.09957419745091238 -0.9816217330576578 -1.2739034548810577
P 6.490102525859966 8.241016831979021 6.259493459003375 -2.259488543461838 0.244738681937114 1.1676670149186212
P 4.562799855905849 1.001787887837101 12.955557874994081 -0.16061887136805886 -0.5057815003508903 0.9983626999614225
P 3.6449541330860096 6.593430620650919 8.896825773700538 0.025264173883427457 -0.41206633278391613 -2.5327695558130183
P 4.7005797247702725 1.0947877110538682 4.486761813660079 0.13560769403570191 0.6150132754962246 -0.7545791828487263
P 8.962552788410777 6.049081699318307 3.9629986441592506 0.6737624685109751 0.06242098543938282 0.2335530976339397
Ni 2.733107520556625 1.9965420230643653 5.25848609081072 0.9940306482449718 -0.8936460390776222 -0.32741918895648126
Ni 1.7981175929884226 6.895981816781899 5.238241589428139 -0.414965251598266 -0.44400869001846754 0.3915039352515322
Ni 6.897334112444951 0.8323261820560103 9.762688888200248 -1.1407588776738675 0.6466152186722219 -0.6718521388621397
Ni -0.4024731394968085 2.820525720734618 10.92412027075609 0.18821400737750812 -0.7261746635641042 -0.16642339386497787
Ni 3.2891097816970167 4.56871728390793 5.49075875360716 0.8234937464322527 -0.8288205579618049 -0.9203394892084086
Ni 1.4600799804645899 6.7702092443082025 9.459987941207253 1.5468800486179424 0.7069525821096986 1.2917929335669687
Ni 1.3372479703722966 1.2254975240691783 12.366680307945805 0.9386665696523704 -0.04409801876047889 -3.0326858556323835
Ni 4.002250614046066 6.782624952140792 2.2172058175211378 0.8127804737798068 1.4424667779071736 0.2870621252956734
Ni 5.311300043310283 8.28798414779309 8.318309151141795 1.3770653696832282 0.04135568012865135 0.9989350275251248
Ni 6.849804096422094 1.1516567353806237 5.288121332613171 -0.8127971859503551 -1.0870505895171343 -0.3869659381718626
Ni 8.226640749225497 7.90402293758439 5.25982749550199 0.8672091850423322 -1.2408946040552047 -1.076976493110584
Ni 4.940870865541925 4.842362025764937 7.507505344490903 0.2846164919686582 0.3924315892721242 -0.4373559605886404
Ni 0.8401477149581484 7.957007515308551 7.328379716414388 -0.06127967274608801 -1.3259238138124068 0.34755246937124656
Ni 5.907725961385141 2.2637973948086945 11.81882086337515 0.9646907616302739 -0.1874395911053288 -1.0927679516168856
Ni 0.5465198550413505 7.995543403800636 3.1072713940655596 1.2596016935464047 -1.7856925948786084 0.7257895123105436
Ni 6.988273726832773 6.426844131420532 7.294879087209964 1.4413444913772726 -0.3596484813038322 0.7732507911163006
Ni 2.170579752156268 5.474328815091564 3.257479676896318 0.3235026275108945 0.6840103714912283 0.3351481821696228
Ni 1.4898849399106584 1.4793751521400897 7.669815312134508 -0.8266556891000021 0.2181264786662243 -1.2578862535171949
Ni 1.1893031945104324 3.5622644298237898 4.216485104826957 -1.2245506154795427 -1.2988521544065954 -0.22705926237947993
Ni 0.45951188146718197 7.6441825024623 11.744208630851967 0.04067305223932995 -0.9069268153469284 0.5413342006445193
Ni 2.3456611993773726 5.431309476548822 7.370461523802812 -0.7295824036940725 0.9456468576249457 1.5179739071065534
Ni 6.302932099959761 1.8289571947538736 2.7985259577330135 -0.5550106696903474 0.5600243208548549 1.6450599368244896
Ni 4.083379278019393 7.224426298326896 6.618941814471549 -0.46115691966298 0.1171577148606305 -0.2762390665382404
Ni 7.937585282295584 7.627600997922724 0.6202127080298531 0.05030363335055852 -1.2209873236083164 0.033137148873600995
P 9.221748841035708 5.966019887853502 8.065353625348509 -1.082531104380226 -0.9544066060954466 -0.6065566600884392
P 8.622001176567043 2.004156627502627 8.527708050451047 -0.7110151822148465 1.4919995945299789 1.2915929017410206
P 1.7474745741975997 3.4786036149109214 11.21780167795082 -0.3192644210598308 0.126676195874027 -0.2137394053421222
P 3.9172919583290597 6.3611987989986645 4.524460004905857 -0.7360363868495324 0.8689511074341034 -1.7097756318353199
P 6.88345719923148 4.136046202399885 10.971515057212642 1.7022011619221713 0.6791581856052497 -0.09492872825910104
P 6.2823572390997615 7.7789038234176715 10.441083890237687 -1.2506699382744138 0.4799424278005992 1.4257391807398478
P 2.423930983257669 8.794949808480647 6.269004000112855 1.222319926376811 0.8190531941623959 0.4353787822576115
P 6.694253791931788 3.7687118757798554 2.000674239275021 1.2508450303996974 0.9423131652660223 0.672124675797236
Ni 2.6742508938794765 1.4361107667322308 0.9033924956828525 0.509358161958555 0.626822609426327 1.011946095072812
Ni 1.034724001670774 3.966319482972075 8.947608559962577 -0.010812517234471701 -1.1614685994173934 -0.4119148948077164
Ni 0.20623779474924347 0.34920448892530737 9.919060553479188 0.8031732897073458 0.06708110991921351 -0.07482064465531629
Ni 2.294491783617039 1.763638591485495 9.83677018584901 0.8268960872455823 0.273123146617078 1.4877765575875668
Ni 5.244556537900298 3.0101466152859913 0.7257816202651527 -0.7956101326481072 -0.9742616931481609 0.40871130026875413
Ni 4.195656121292021 6.678071623024254 10.905071961107671 0.6514499210567039 1.465059061385393 0.12943653222798354
Ni 7.258996057928015 6.238348637286733 12.169514692691777 -0.7513051400831448 -0.8701325293367144 -1.7881464557357398
Ni 7.7014871656603745 4.215804419090521 8.509416663341543 0.545596318354983 -0.8004656609681956 -0.3936952864758962
Ni 2.8250273224049134 8.33410741329398 12.75293406771482 0.9588625849842712 -0.4502420725226891 0.7305864194785546
Ni 8.809834136584044 5.32033954989015 10.428105482196312 -0.31181850630474683 0.12998006343627935 0.8873740900259814
Ni 8.436019681753146 2.523193115249646 6.238639063200946 1.138336384275304 0.8915194796529227 0.2908714717394345
Ni 3.505023297294449 2.894003477030407 12.452623689028188 -1.1318865148849022 0.5014291369194656 -1.0746424456607686
Ni 0.9820843047197395 3.4234862218792608 0.21256998726006016 1.43498563903878 0.6296292256371866 -0.6506996731542407
Ni 2.9006197423885633 8.82928359702647 8.55550997867003 0.370743048555097 -1.1727241177265544 1.0042883214172382
Ni 5.693518698033707 8.150821433996368 4.057204642500982 -0.3208397359667507 0.08572495027264591 0.11474936252945399
Ni 2.852980816647877 8.61522154663214 4.056061998044751 1.817748594872889 0.4249123355086489 0.4781894496652345
Ni 5.257380657174748 3.158617788117366 5.166245912875816 0.38919585594364586 -0.1448063298158345 0.7480079573891117
Ni 6.216239964567299 5.763393357831297 9.517757285868067 -0.36352647620199974 1.3509218785186412 0.9682188293881905
Ni 7.750805116217602 0.018001868776271874 2.7831569813852752 0.217342035091716 0.35496830221934356 0.6059786760977822
Ni 4.469246408290114 0.3217011548493737 2.088304813402783 0.6282796535878276 -0.6406613150816322 -0.18307642904062663
Ni 5.831652523481077 5.427116452412377 0.7993782696695723 -1.77731388389661 0.7953316821757399 -1.6575125607655452
Ni 7.624905482406438 9.024295522610414 11.823084678828181 0.04152228761350268 0.07748842129546654 -0.08344412465826918
Ni 0.420330702896956 4.905792860590934 5.847443524985406 -2.0752967698698455 2.34979288557505 1.299051414901595
Ni 7.139522097468805 5.949057199301522 2.447433700365324 1.1096428729953534 1.867827256696835 2.3409518902446522
P 8.609158905672952 1.861348759998398 3.9845582303846263 -2.222282623835502 0.5802455329977362 0.5298082022827908
P 2.019258775041682 3.3114998045208446 2.301449299424395 -0.9283685301604722 0.3715053806424182 -1.8526047833201256
P 4.576558783591671 1.5837015860111487 9.11513802583317 0.4106231725794864 -0.4389011935885731 -0.2764748366981303
P 8.508099763336785 1.6705661617901748 12.879616943913378 -1.4763927412306574 0.436201535269223 0.40652740524355796
P 6.26074773592038 7.911583087163736 1.7975049758256303 -2.322958538991025 -0.36613537457975653 0.5199683333742335
P 1.6662914553653578 3.4091555181748325 6.474218951095481 0.4983566686417288 -1.176768205888941 1.0502940987233913
P 7.020647140457659 4.244592887836845 6.432097210143853 -1.5658596750442386 0.18928384340291915 -0.5534435823135436
P 2.129257590049706 8.623970627297796 10.767827565022577 0.09133072649519755 0.8199281405681815 -0.8436853908887793
