# total energy = -340875.17921325803 ev
CRYSTAL
PRIMVEC
9.16755966219149 0.00000000000000 0.00000000000000
0.00000000000000 9.16755966219149 0.00000000000000
0.00000000000000 0.00000000000000 13.41765023674772
PRIMCOORD
 96 1
Ni 7.588346633857505 6.181822966429785 2.487404616014623 -1.452542674085937 1.2671383682430823 0.8581578734733414
Ni 2.7394043284128573 6.63846827875538 5.641236727938345 -1.5669094564649917 0.6892883320607162 -1.361606354815681
Ni 9.261802134795582 8.613197291547385 6.749520428991017 -0.618361108922535 0.41118650128212414 0.6778062995630455
Ni 2.3156613875701986 4.307927941918866 11.242072020623054 1.36931092254879 1.3065366675350467 1.1216571238474102
Ni 8.421815316880963 4.796283842976553 7.693412367660053 -0.21950767528446713 -0.7506842186696941 2.152034429042216
Ni 3.7693704843717484 4.056755143398526 1.8648924809622298 -0.20863525134633745 0.6970746608743543 0.9477993851915741
Ni 0.4681661845024155 6.026423663279251 6.167583912825076 0.011083511507671236 0.8375301699206608 -0.14577974947269734
Ni 4.482239920569342 8.492176336978913 1.7851374625197374 0.2052889605819239 -0.06624113051642141 0.1655060242570311
Ni 3.259874190826 8.408540690548477 9.091035251450888 -0.4815305982233256 -0.052360772989903374 -0.31811128129199406
Ni 8.0219080310552 6.3142667002871224 11.761268509004715 1.0675276889928582 0.1754536223880462 1.9470935958283304
Ni 6.692547712964866 7.243738067670937 0.5347740056911658 0.4686686546589929 0.6234614062635778 -0.6044352428700623
Ni 3.4938669826149322 5.501241675220461 7.446769260348884 -2.1821762427329188 -0.957230962918119 0.1467842794778117
Ni 6.9711590174335 3.8702594780105675 11.655027494058642 -1.186799364872698 0.12088041512785634 -1.0292982131980144
Ni 5.971509981144175 2.108181178207751 7.911287672877753 0.485034497611526 -0.5726350676403299 1.3492406341614762
Ni 7.687062915865937 0.21378290660249194 1.1833036749504624 -0.440136608657571 -0.13644844476944243 -1.3469191851171514
Ni 0.542565514613804 1.5129498670781558 0.4323283604285519 -0.036206788937860224 -0.494643995676832 0.9740292654223807
Ni 0.12335226498031732 8.62578435090823 12.65864058312847 0.44607508562919307 -0.09626493057202132 -0.7147198847599433
Ni 2.4060626930015836 4.26899331620473 4.260131036318256 0.6428912328534154 0.8826980247065508 0.15859387051823007
Ni 0.021239402131977673 7.0714612872565175 1.0839997523702676 -0.429217390641906 -0.6513388494001362 -0.40154923530267617
Ni 2.353376727854624 7.126631661061008 12.230899669534708 -0.3313277799822681 0.2832692339121444 -0.5364984698187728
Ni 4.686612327219971 2.9901095813924816 3.898336962864507 -0.36112532295967487 0.18822094935604358 0.8805956336515672
Ni 9.344035144603868 3.362129150848479 5.37238704095509 0.17131234652616303 1.1352024666320126 -1.9692331080398475
Ni 4.673108511896938 1.669064239879195 5.9610993004375645 0.7005708469530708 -0.2844645397718262 0.9353938124383697
Ni 7.101448374779696 5.703349694644486 9.799017461614055 -0.7742041561685054 -0.5253825624112692 -1.4594969939165832
P 0.6517841529250649 3.509653520283814 3.1488403757096064 0.7485700005401689 0.04722730841807995 -0.4014201659239796
P 1.905321418894732 7.426841735998798 7.71159347190217 -0.7239244340773467 -0.05349360104276593 -0.4814526937975386
P 4.045240688513441 0.8962545486058466 4.124693177488411 -0.3883036831466797 -0.6724612332010482 -2.3641463260832447
P 1.8001970127106042 -0.08409310765556716 11.19770011529718 -0.01666949023588097 0.9671430798255085 -0.923883497805925
P 1.0515924291069125 8.771704397409737 1.5350326846953466 0.82342021288184 1.970843647060077 0.5204365312599037
P 6.7961778069306265 2.8138540801021663 2.94112180979699 -0.3139432659572335 1.3502302517682554 0.9989928773462537
P 7.511962527087978 3.532975791961883 9.338214660999936 -0.9695969406826399 -0.6509454706164596 0.6152590729584436
P 4.7679010783872044 8.16307928167257 13.072561400592244 -0.3857521203694195 0.14211078526154236 -0.044423520420697686
Ni 1.5637381473833856 3.74366464719199 7.106993831594973 1.3654565817997064 3.2824021932897467 1.8880497543912966
Ni 9.457712883915212 4.524722391857146 10.323526550796597 -1.9949472249764997 -0.0348045092736949 -0.9401141007321745
Ni 2.6952625288334926 1.1713849306860529 2.2071770707846503 0.6638233550203922 -0.3535678223273911 -1.594176776821377
Ni 4.954726775921551 8.109549901040397 6.989455632926854 -0.716435067678837 2.00785184885331 -2.6131085591834027
Ni 5.086363764532163 3.771699044515707 -0.05836526833271575 0.18878119273488775 0.8770835067332506 0.2709724188226624
Ni 5.286812455664626 7.076860979873807 11.230599736512229 1.5037593061690682 -1.718745696544414 0.489975386556569
Ni 5.131559833468045 2.0467035233834063 1.8586933771459129 -0.35780808566098377 -1.6457196818956754 -0.8603448538223312
Ni 3.721231628797243 6.096619667304007 13.561487523858412 1.0328746176953632 -1.1207037587952053 -0.004313282663373217
Ni 8.62154893836292 1.8072927038579414 2.5055178803155393 1.0605733691622121 0.8030074535534428 1.6393551731302283
Ni 1.8764069358473143 1.7929179703708293 4.1651202819089885 -0.6627800013575423 0.5193088454133638 1.563510972306404
Ni 8.980119697853617 6.946984162710596 8.515203413237158 0.8644123390234854 0.08382567636740401 0.17302830077600523
Ni 7.627803810470087 0.5137097039479661 8.557227506543867 0.751625499537041 -0.8904797255344987 -0.27429531254830825
Ni 8.84530156605421 1.634777566893354 10.575321826615266 -0.11688877746995999 0.21940380271675117 0.35414734897994493
Ni 2.4038074733346 8.08463247398812 3.4389303815808003 -0.8891661489293977 0.9711935957457984 -1.0715740911480902
Ni -0.13340816112956036 2.4623698441991864 8.216378556558233 0.13447306621062646 -0.7405206478731311 0.01848288929553591
Ni 3.709616330756318 3.1611945790560556 7.881594864018437 0.5481303976307463 0.3050032831551263 0.6286254669630206
Ni 2.0505722335438406 2.1620222558670674 9.780890445973705 0.18985359986346012 0.6129350528109574 -0.5589897089427533
Ni 5.20511116431441 4.205095425640208 9.497187478891078 0.33645995900251086 -0.6091730146653638 1.836770130280714
Ni 6.262048280680879 4.837748715146328 3.936925971580898 0.5752431946871384 -0.9810846296072651 0.01767196335846634
Ni 5.720410523100809 8.45067479457065 9.087734013231048 -0.4234056690561353 0.12171910897906778 1.1836438499628519
Ni 1.894943741402761 2.2030104149365046 12.079185725352172 0.7060629804158938 -0.9316263749761375 0.24470165805159147
Ni 9.037196924059456 3.329767665383233 12.52608775531163 0.7400141405503579 1.3914231810667972 0.04464874905762633
Ni 5.782649085373771 4.3962573788757044 7.313357432195476 1.2256721306784955 1.1224395105393894 -1.7959656946698423
Ni 4.265069600686564 2.6606916614993734 11.370707550213462 -0.8653068258132968 0.4668737675420992 -1.1924295665752818
P 0.7688465552488084 7.927546339867162 4.906753853176202 0.27468740578040435 -0.9422807693661902 -0.6015643490801703
P 6.94680997907778 5.085272824937159 0.23912020788545116 0.13868247630628375 0.030924714603314488 0.19823179662482635
P 6.879886793838037 9.230357405292525 6.2309693368067345 0.18410641296703775 0.2880836245816522 0.5601114812520225
P 4.1757959050886715 1.499977770213192 9.27543337919736 0.9446695813133408 -0.3592291343782265 0.8190544797139765
P 3.4268979595770794 2.372646938179821 0.3655289372437041 -0.4595201553905054 -0.46097257156631577 -0.44300467423398543
P 2.0690723688608 4.897493701202138 9.134428061409144 -0.6673357390490249 -1.1437174460815591 -0.5596219432101136
P 1.1762804075241382 1.8814124234008622 6.468675906998492 -0.4764053611816182 -3.2240492072721505 -0.6973330567420636
P 0.8774573843571385 5.663883350472281 13.102710753920729 0.8232489774112983 -0.8428572385605291 -0.6770560516605824
Ni 1.0389595319479583 7.178721734832545 10.375318678880424 -0.01636301473905569 -0.26870290606219527 0.16222066863753995
Ni 4.826325935857462 7.916004382303211 4.367512495681292 0.637473918492586 1.848778724705816 -1.8280548618949033
Ni 7.122726280662086 6.935497210504377 7.284710641889016 -1.3152776469524703 0.10536252199791532 -0.7390520337474046
Ni 8.821768440504837 1.115453649432947 5.021394186247844 -0.2805569771873039 -1.2180755492781603 0.24790370992865693
Ni 8.588554891283765 8.581651718888487 3.3160914999393083 1.4759620814511418 -0.8191102726525765 -0.3082693555009078
Ni 2.7553375470356896 1.116379572954757 7.581079509345239 0.0982873603186888 -1.4918792669020307 0.06769200403033503
Ni 6.926742191065479 8.54260708245889 12.109898883597404 0.07675385712228718 1.6960742230888273 -1.2968749760755665
Ni 2.010244138767179 5.7247192761230945 1.9397758582216538 -0.6800454733062095 0.6297366977493284 0.06359675091503886
Ni 3.005813611024767 9.011426913962344 5.619418852794226 -1.4372950038982473 0.04098389861152942 0.872999052251232
Ni 0.9259876947274985 9.294805349434357 8.91236593171213 0.2111744728284234 -0.2106006026028244 0.6888070215489234
Ni 0.053787905813509757 5.529899466598467 3.838052007546969 0.9310188232991257 -0.33250637367140157 0.6538302483634224
Ni 7.1472128324121345 2.8910816023569055 0.7447872117771397 0.7211543275313774 -0.4154763869067296 -0.345887680074314
Ni 4.937812628419177 6.0735449197357285 5.49800277640605 0.6519242895899612 -2.3982306693614635 1.1047359226120392
Ni 3.6247613988961724 6.09468531222379 10.00792964378944 -0.35265662336703135 0.16122308061096105 -0.48810465189641744
Ni 6.604108265292563 0.8249556871585788 3.8946341855332283 -1.1774732023757657 -0.5157458106524536 0.27361448443119973
Ni 8.776783225440258 4.642763889548507 1.4347093294851985 0.4029420018851448 -0.9277136701852926 -0.562667929125289
Ni 2.6566762703849887 9.386205918864528 -0.12963204332130693 0.8181466231877266 -0.39543746597798346 0.3833090581455657
Ni 1.6228139015867973 3.638567743686728 0.8823886146777491 0.6985425036691324 -0.5142345162142499 -0.44601646447711574
Ni 6.970544790938835 2.66797987139877 5.444466061726181 -0.9062878962113489 0.4943699160798389 0.13967029414084978
Ni 7.162412646265216 6.906637732814691 4.839907675437281 0.6288586660197493 0.4350987891233475 -0.17455193650938325
Ni 5.369760535123421 5.991275239688954 1.77846897965078 -1.861634754732878 -1.119439290260485 1.9272585633802748
Ni 4.365784410692567 -0.08228709841005628 11.00070209360639 -1.4056951176047792 1.6674491031529672 1.2995399245022394
Ni 6.265926158400935 1.4346497403476561 10.626336545643154 0.8917825035063222 0.5535505402050532 -1.3184694144168905
Ni 5.466166592107139 1.3441842619989184 12.83772611007406 0.3739528137416463 -1.0644266814700316 1.575687716878254
P 7.8466792964425345 1.4463750491040441 12.579704227760212 -0.6256609850180579 -0.5198752594397951 -0.34380714339620144
P 4.16537238979859 3.8519793641245332 5.8523097039166085 -0.17965531917421962 0.6256825822846128 -0.4149498249792983
P 4.790838312561155 4.96368348167213 11.619791978651936 -1.0479369113451242 -0.26055739413692547 -0.7817331175556989
P 7.54420483427814 7.784816604114071 10.02169656807362 1.0504290816393587 0.897354598277461 0.40885605337673464
P 3.4578018030624458 6.250891360621048 3.424707829583412 1.8322408749517929 -1.2762269608079118 0.354289530984764
P 5.074106737317706 6.463560408729481 8.195956900744529 2.4868380833882267 -0.4327053491905064 2.0419639600456705
P 6.591145335987222 8.169322389775072 2.6457329544643473 -1.2429355457446334 -1.365225696735823 0.1252507762814101
P 7.789033681540137 4.671650869917059 5.771387655134251 -2.1335039743381965 2.155658913168681 -1.7362831912075452
