# total energy = -340895.57327157166 ev
CRYSTAL
PRIMVEC
9.05013298489554 0.00000000000000 0.00000000000000

0.00000000000000 9.05013298489554 0.00000000000000

0.00000000000000 0.00000000000000 13.24578442486183

PRIMCOORD
 96 1
Ni 6.288113917016116 1.9810741317899276 11.573159953871045 1.4869622892163874 -0.2956987179247488 -0.6749346344422055
Ni 4.468548460218984 0.09399468219630053 5.93751538144787 -0.4198896854830768 0.40480116658107057 -0.15246821723646645
Ni 2.711229818764252 1.5337713041804384 4.780165357560375 -0.3627006378665947 -1.2464774974596209 -0.08978035128894216
Ni 3.226707298885269 4.2265117010568565 4.602751073674839 -0.39728454648905126 1.159048934232307 0.5188568454776097
Ni 5.210795124991716 4.468304106625753 2.6990537697148675 -0.4701259559308097 0.27495634317107487 -0.5120480500858923
Ni 7.4980171587011935 6.292973838481494 2.548992608058303 -0.6416200794504756 -0.44717834599570083 -0.23943141079158764
Ni 5.173019869504776 4.340651979495114 11.922543961579601 0.8411829361818997 1.0678727310371028 -1.3392907220376158
Ni 5.6836736286927465 7.920196816873275 12.37613301162829 0.21905747512092594 0.29011376763780355 0.10649175050635208
Ni 1.709751141972376 6.615810185805432 0.5600738209123431 0.8544315736616898 -0.0382227909266245 -1.1855387529927195
Ni 2.687437018889991 1.7076153105648728 0.2576971094483285 1.0091356222072105 -0.5022197511415609 1.0782916123775816
Ni 0.3129852774634855 0.2150601224693943 4.864937954145465 0.4022997403154555 -0.24681381929858784 0.7599677008541492
Ni 8.796032496078857 2.5039727210387097 1.5630955453948092 -0.3254175851454202 -0.5288530374583731 -0.6906499882949332
Ni 6.763073951326153 0.7885272353307367 4.852937477677884 -0.09148422135392631 -0.5085156114526017 -0.4929694361878864
Ni 0.8914896943986252 7.402474903747763 2.7811375717611058 0.5514651184309342 0.6021857847142532 -0.1368168838524547
Ni 7.6040304176312405 3.9506002937664064 3.505483978309683 0.725694381493576 -0.0916639414649002 1.3471960929276217
Ni 7.638149419352795 3.839645662173238 12.557268710237409 0.23074853830560907 -0.0909741144867272 -0.0643775949451214
Ni 7.930269614994253 8.662651634706906 6.941161565113038 -0.9561521280316436 1.3317262794267968 -0.18777280607503144
Ni 6.917722625442308 0.8423402316534232 0.47161239008276884 -0.14687709630193416 -0.773579635210629 -0.162982486504229
Ni 1.7924512580815417 6.481551461524466 9.534011118089815 -0.1471853715709723 -0.21038128750316673 -0.6021073660678341
Ni 9.050404586632624 4.958785119172518 1.3605010762334433 0.6589734831272586 -0.46308833235773794 -0.382042018507684
Ni 6.359094110783263 2.069258628547173 6.767973693377095 -0.4710294415816856 -0.510717761310243 1.4065181277267065
Ni 3.5699788467098097 4.417053202978762 0.43090670150366994 -0.4250208360620551 0.05672779170934747 1.2961890057521352
Ni 5.965775327011722 5.792094223022775 4.733142676089593 0.541771545292254 -0.8174431693627986 0.48835276335148153
Ni 5.310636193159402 2.707998921253749 9.32262172959874 -1.4551747123921457 -0.4872605587285673 -1.2878259784994208
P 0.3911042162062186 5.686578721412273 12.273411286100401 0.03047220044692817 -0.5520091638598622 0.37959921339414626
P 4.1288969656275 6.295191121086741 12.686600542068186 -0.5428331537875489 -0.8566080124877183 -0.8434722464367086
P 2.4435540325790046 8.472888444230108 1.4720566366632988 0.1063649951205007 0.43521988808224393 0.5927038133657468
P 6.241795335899164 7.830147992701005 5.670242326184799 0.2588661224774316 -0.7013185237523729 0.4908778437661804
P 4.753338048063505 0.9082985065730127 12.674943970657745 -0.06636865723322118 0.7821835748295562 0.7103253552366734
P 3.979225864706797 6.2105723767640555 8.422676495861003 -0.0981004411188633 -0.39874313331244876 -0.3015032404216679
P 4.674936745168593 1.0784953093251433 3.844694731420043 0.8403128748721206 -0.3103264951402527 0.41128394609193686
P 0.26792104479178713 5.585407283681439 3.6814674361548536 0.1802883247725282 -0.8037258197767062 -0.8718924494506145
Ni 1.3758917325537812 0.9547618898192872 2.7399033554099805 0.5526123446614999 -0.2580425981348717 -0.8024474672849148
Ni 1.9526657640435203 6.476410985933527 4.930822922987085 -0.3401970574474399 -0.33241947038455005 -0.6903666527265595
Ni 6.184408442022143 5.626775442002187 9.128650227238515 -1.0137936898045121 0.17608457110382578 0.9278098294435247
Ni 8.508672670438868 2.331386683152762 9.996341691683028 0.12091512502053368 -0.45920262415008656 1.2877244199245501
Ni 2.3052046481446844 5.240090405780222 7.14094777797886 -0.6134811551224144 -0.2924056489957738 -0.28955943779623033
Ni 0.4721653532141182 0.04904448120144347 9.216841059088917 0.5518232731013012 -0.17422592062853218 0.36520232124252594
Ni 1.515824890277563 1.209025378776062 11.464730309407933 -0.6498257551897195 0.7897367045864656 -0.5162749436830464
Ni 4.194293227282658 6.759643950887833 1.6220788827476078 0.17101821232451192 1.1958115956736373 -0.8802343936574067
Ni 5.580773615543127 7.802427435068878 7.8059126413190025 -0.7147551088732529 0.044481884462458876 0.7906219354048964
Ni 5.153951239099653 3.0611351141383674 4.766680659267241 1.2824518586717009 -0.5640786934298866 0.21153288460910666
Ni 0.6672862224758396 7.312643282769477 7.072440985583199 1.0894358019198593 -0.07200502958339212 -0.4370188889641958
Ni 4.9104936090435505 4.553520159731893 7.2356954312476365 0.7948092340133667 -0.29245552839710276 -0.625939178380109
Ni 8.1128651000696 7.181751207995252 9.035956049166188 0.23636074228606388 0.4264305719253882 0.816030091065356
Ni 4.72829632982384 0.28275240288761777 10.506582764802431 -0.43741278196850475 0.1481371939612804 -0.4774736545451325
Ni 8.127960722051444 7.247201770448906 4.673695971922963 0.04226533642711431 0.07880765432752233 0.6033008721553029
Ni 7.242160846321875 6.206011109690405 6.9972045142272865 -0.0464174109222749 -1.1238893556120386 -0.6735112717321174
Ni 2.358211277609708 5.462651278548509 2.5373894324330504 -0.5376984036641449 -1.6646643413189786 0.5311089233720854
Ni 2.5957048699643503 4.85927890592889 11.54331714003104 -0.10159637008726374 1.2621218888650974 -0.3585915007942276
Ni 1.120650829224081 3.2084803308568315 3.6423916765439386 -0.6031018687706194 0.9385953500948028 0.17421357933335804
Ni 3.51544274475382 2.5782200128486896 2.7085509793717906 0.5929020454194821 0.5508472823412772 -0.3936235526976963
Ni 1.0793279215687464 3.197927875682473 8.077080873860842 -0.44779078276871914 0.8611051290271234 0.1377046857740467
Ni 3.587554205156297 2.5150772343311094 6.791669656827372 0.5407263918571913 0.21666943450472362 0.9748903278710952
Ni 4.014937689850895 6.622977891206884 6.105286748533852 0.438273073086271 0.7567882746849031 0.014958678192361336
Ni 0.7798173872520038 7.725872359322825 11.421760277531558 1.1694292490253666 -1.0958992981570157 0.3127893548584484
P 0.229799169207782 5.543803821900543 8.194822200252682 0.08702052915561787 -1.3722190973345207 -0.4494344890197292
P 8.39456859253294 1.4984124342265634 7.963763252519796 0.10181825629008272 0.6397989670813368 -0.7319195364676814
P 1.833366909748158 3.1868143122569914 10.426008524954376 0.20525939289556908 -0.9116723004517139 -0.581512829745934
P 4.089583187516511 6.2059930094242395 3.706978856301508 -0.40966157999716546 -0.8157148738177823 1.1204458771481283
P 6.764178067562235 3.747660109521284 10.28903385573531 1.4545638182810239 1.9633288267402702 1.060468982373864
P 6.416508155059532 7.696106471614021 10.304770227139405 -0.36920655730591256 -0.1040340329944789 -0.5103400662558502
P 2.1623844979675404 8.421836643510934 5.758856704263471 1.0551899933631117 0.7154961008043356 0.43374227509545293
P 6.943904660450387 4.0347212807695465 1.4619241076639748 0.04292431016735188 -0.08073109660248032 -0.3832339819332561
Ni 5.3011607038218775 2.7933507263561284 0.5301187854221125 -0.10179614480289566 -0.36203549347877 0.5965075033825534
Ni 1.451469393926909 0.9970803121137125 7.149783422907442 -0.6558670762877931 -0.22489310796609654 -1.5994022868863744
Ni 6.653169135170571 0.5391580583450535 9.085654854989507 1.1196483209474977 0.2989753317934915 0.23059015835087385
Ni 2.7884727046245854 1.6120821057445236 9.061441223926902 0.7003098799822004 -0.2718949306369317 0.8480840341771073
Ni 6.3844887842131515 1.8893419828642872 2.6694227289889954 0.2674700620963587 0.4195338448055549 -0.1399816547336815
Ni 3.8792218941436234 7.023283377718223 10.577699615579126 0.6563057064871085 -0.5971217399277845 -0.3033451787264131
Ni 8.332140774528888 7.212096304221344 0.25042985258296846 -0.015163338003999691 0.16946809422857265 -0.06997591496850529
Ni 7.629343639863386 3.7112966747952356 8.128010497783398 0.231436308401253 0.8179661317458042 -0.08700535964696629
Ni 3.1346493451686532 8.419709862236514 12.554778113613066 0.05849311113988636 -0.2887091739807931 0.0261234365599292
Ni 9.277200921683585 4.697498726943615 10.293895587227302 -0.44457741803774403 -0.1790660223296529 -0.09938342159634497
Ni 8.62941049589437 2.626773976837054 5.787931161804761 0.007511992106328999 -0.6646443082597908 0.1684486518251228
Ni 3.8983900760126553 2.5422004831797818 11.416236981311224 -1.591691291395362 -0.21094178799232702 -0.47975293749761244
Ni 1.0806582911318943 3.3335803204581667 12.710204194161019 -0.539745773111477 0.7821835748295562 -0.3449505129720253
Ni 2.8460949019617554 8.204787301789976 8.163629106556746 1.0113534557941355 0.17057958212519653 -0.5455089008474993
Ni 5.754264666737339 7.817541157316887 3.377052634720629 -0.0897852363849486 0.8318374904112577 -0.024292811109093645
Ni 3.2796686776848794 8.29899918718026 3.629583023192078 -0.47665938617395326 0.13520017418463812 0.36508070806299703
Ni 3.305932163890701 4.1607172335460625 9.066381691576716 0.10866021891258061 0.009253657387784064 0.5838813299781105
Ni 7.407705880669528 5.999767626870118 11.390381656107428 -0.26992829382886413 0.3357289943737573 -0.3215475606670527
Ni 0.7095376737854535 9.1377383708801 0.3341870242361865 -0.4900620327331044 0.3854903820676006 0.10897749304268328
Ni 4.473272629688123 0.45332116610944484 1.7315158070228174 0.1494731391638845 -0.595667009759129 -0.9266991128778492
Ni 6.136831892406703 5.809135623617387 0.32000365566907285 0.31748161812779513 -0.37360828591803397 0.7233695900151413
Ni 8.061469394293287 9.05121909861006 11.256321129740972 -1.3523745518047676 0.6120997013938555 0.13474328915287762
Ni 0.01233171133840546 5.102356430395521 5.736537266055064 -0.00175169258378408 -1.0393756520386745 0.7576663064144823
Ni 8.194080994353213 8.79134452714205 2.4798495913069325 -1.380497792403545 1.1189068147957828 -0.18704904053512947
P 8.429004348912386 1.7022938323122807 3.655876374837072 -0.38634784497188945 0.3630760189281424 -0.6490302558716178
P 1.9465659743458208 3.339888263216767 1.523424287027056 -1.1682295722903107 0.7094537512649975 0.06675920780342053
P 4.737943771689934 0.9321727576450175 8.061835019669825 -0.38155916533399453 0.011583333962225212 -0.38999726879901864
P 8.563860381976808 1.7332814879872405 12.512749295577287 -0.3207178656769057 -0.17471185912601522 0.11773724151318433
P 6.502674472139348 7.79948614181702 1.2348291182212856 -0.3080456695258759 0.605268537404635 1.036865226911995
P 1.7337882954398682 3.143672327852046 5.8354968512605 -0.30850743965364286 1.0209508696745837 1.1499837387062453
P 6.8384525097714635 4.072279333062503 6.0092150607950865 -0.15583507682617034 0.7198471786841796 -0.607883863540295
P 2.494886387423739 8.784357824402251 10.308279868748851 -0.3546240315060473 -1.208331582517519 -0.46882472062088293
