# total energy = -340894.9924558758 ev
CRYSTAL
PRIMVEC
9.06108881441929 0.00000000000000 0.00000000000000

0.00000000000000 9.06108881441929 0.00000000000000

0.00000000000000 0.00000000000000 13.26181938880289

PRIMCOORD
 96 1
Ni 6.522624656341218 1.9278825241459183 11.34580498808997 -0.5751020411235838 -0.12841066206663043 0.2308917487516927
Ni 4.675313332367817 0.4587810399386936 6.002750132367081 -0.9296751647870376 -0.6023199962992724 -0.6620526362732146
Ni 2.7211445900819444 1.7518436940793807 4.700625483479144 0.39968544262106004 -1.2836168255140794 1.7459687939264252
Ni 3.5014311770878037 4.356807005639956 4.8294243279294635 -1.0837359233216044 0.7539284366386048 0.4973189714058338
Ni 4.799903301145606 4.7093377202049505 2.5399699349751703 0.5486333054090938 -0.08344361043763693 0.5384867038933951
Ni 7.029710359811141 5.859534189784227 2.8772046258097075 0.4255445697760091 1.0769340699084227 -1.5413472917251714
Ni 5.068020913955409 4.600894611380763 11.506803317125653 -0.3448528110518964 -0.2781360264506372 0.08234960604250978
Ni 5.5750431898048625 7.909832021434722 12.351448098403367 0.33888682327644865 -0.469330713723024 0.08151502595635639
Ni 1.7800418019220339 6.45210220346867 0.4400300231104203 0.5435384073846897 0.23348136385573984 -0.0938879456994125
Ni 2.9408941117400498 1.7438880582548788 0.3797656286853876 -1.3444923208432136 0.043875104116395405 0.45760365509408285
Ni 0.6824956939849562 -0.0976821599572423 4.535913920319452 -0.5777734173081598 -0.72057171555503 1.3519801445798263
Ni 8.501149604887068 2.2346547410870703 1.201418803652064 0.8769366967427413 -0.14615615897550957 1.2721358214576737
Ni 7.020304949804498 0.6106575710421147 4.667285207834207 -0.311416899990954 0.49918096431523706 0.5824762221004678
Ni 0.9732515306488995 7.4148247491197665 2.628068181479593 -0.3157291542130627 -0.18574214879824785 0.11837950308287355
Ni 7.632644258897897 3.8535722648413477 3.992192423266812 0.5796446661889436 -0.7845358771118166 -0.4467425440098628
Ni 7.6275700492604015 3.7528129591825095 12.863314432238901 -0.5566644032436866 0.08886143901909857 -0.5694733820828967
Ni 7.816076937293356 8.939914700023571 6.885788558423358 1.0157076189977734 -0.15166757571204204 -1.1883278857020825
Ni 6.907476274079331 0.5197286404470605 0.3700204278548049 -0.45908023963960937 0.23170627423318804 -0.6310762424963584
Ni 1.6478405186880012 6.603512994616079 9.27993114507009 0.7757802424063737 -0.050567428534906464 0.002718170262111448
Ni -0.1621572422725324 4.71618790321557 1.5513281452739742 0.7024035292864355 0.30788908934335363 0.18783039878584426
Ni 6.494970213816869 1.8249032517706762 6.910999225341936 -0.6266742567739207 1.372939520440313 0.053611357567552836
Ni 3.267618845862925 4.381281006052233 0.480874692365667 0.4200640062774121 0.2708639182692561 -0.522332462731036
Ni 5.857015207142756 5.6614497310604985 4.909061329863363 -0.9742544940593092 0.1812458035897911 -1.2952371833618272
Ni 5.4728431710525225 2.893749267554534 9.22472283810528 -0.5312665319958721 -0.8914248630565873 -0.4624296157278165
P 0.05649860598692005 5.536669479421303 12.632717881371788 0.28816692832407786 -0.5418119116118862 -0.2834337845144667
P 3.97248093104287 6.221116931898968 12.597694055457836 -0.10495551636748375 0.13968006433286267 0.8964562548329076
P 2.4726351730856058 8.5645862864444 1.424279903148591 0.5070950769559911 -0.658146616350589 -0.549593355329518
P 6.09073692748125 7.8330936617562426 5.860039798530249 1.3667688728532268 -0.486548106042575 -1.038926480316398
P 4.827014078351653 1.109974297113486 12.495219485719753 0.5904826373447121 -0.5295734605641654 0.9480099585404833
P 4.124969991738245 6.066652553880424 8.349959904302438 -0.9234332976423837 0.8670993989373453 -0.3844652832371959
P 4.7351527617357085 1.001694287884789 3.640263364987406 -0.3405361859544135 0.8859918649664741 0.8635921571150353
P 0.18542611789590427 5.570494523308393 3.6449841921680046 -0.05376202421280418 0.13995954324649443 0.6218817204812838
Ni 1.5359360740039503 0.9945722722150186 2.637351266789618 0.20451711541290585 1.4659980282598946 -1.2742235572246379
Ni 1.8899346849283634 6.39241681260763 5.0127817992892245 -0.12910228881701638 -0.14814567860171263 -1.4665639280656937
Ni 6.155949582411704 5.697322580979864 9.23339611214994 0.050113371716623376 0.1380903512482396 -0.07668443733693245
Ni 8.648827227515461 2.6220344025552924 10.365795697534564 0.2638898009442681 -0.9719844670782098 -0.4936584918351111
Ni 2.259074374967517 5.338766242470343 7.207573187020586 0.42919116538966084 -0.8860962517548223 -0.0025914148762600535
Ni 0.7536397375380974 9.102950867894027 8.962496745128153 0.02786150229695847 0.24911752773110002 0.46428492376900043
Ni 1.4757795065337143 1.2494969399673335 11.40585372860541 0.12963193606824128 -0.7795834182025477 -0.6548062391234465
Ni 4.03171326747199 6.908164916815849 1.7058414531711654 0.14160736326256257 0.3723641290982877 -0.6221984803907543
Ni 5.614984468522863 7.811292682492288 7.964558278483974 -0.7493331039584386 0.6350609381757193 0.9481076604606122
Ni 5.207371396125127 2.907639916437178 4.942573766192428 0.7172650197793001 -1.4268727801236587 -0.4441200187853513
Ni 0.5899756362250016 7.212273173697316 6.888414461910762 0.0378576942777219 1.3102812221791436 -0.7015573792360562
Ni 5.048385534876029 4.6429652459287825 7.004163526504079 -0.43179363600951437 -0.4552598374522546 0.6000306860444634
Ni 8.059050029131642 7.5432475583915926 8.66113490421298 0.4837111508144121 -1.5714189142995711 1.1107628455324094
Ni 4.601193627305831 0.35650400193292636 10.375490156268771 0.19099182723296138 -0.4197567594496384 -0.5817496283470884
Ni 7.939923896802798 7.24058001460363 4.687867470676298 0.593669519713126 0.03480759459748844 0.1749345166597826
Ni 7.1682000385602125 6.044679413932341 6.769336353351702 0.5971921881544038 0.5617009372263293 1.7793175445902003
Ni 2.325709620814198 5.160135941053228 2.651568114863244 -0.8293057251283397 0.5183102289455201 0.1622108984455271
Ni 2.4669448094207005 5.065366014984362 11.362528133280973 -0.12868834120804934 1.349739685285082 0.8896274048365324
Ni 1.136686386419444 3.2565280733695423 3.7906919341264134 -0.9400613931173681 0.6235385393584164 -0.05180592892769787
Ni 3.5276992730504806 2.7735539267663616 2.8394479755624227 0.16405875028754327 -0.25864989270156746 -1.4163052890204575
Ni 1.1738730941913749 3.200938294573052 8.269831791364338 -1.1172358548512629 1.386858187403934 -0.05730063349368197
Ni 3.8208979792113325 2.6622475139324435 7.27805939553858 -0.8894695391024293 0.7278502514943143 -1.380430172390403
Ni 4.082645646708351 6.795925211852177 6.165167427883533 -0.2521696842938625 0.93239924858642 -0.09240596183724731
Ni 1.0520105130937392 7.279153068937233 11.509641250087196 -0.449831981568464 0.352048043248755 0.23739329731563635
P 0.08194395510123192 5.587185048580298 8.160156374485329 -0.40490272515594133 -0.9116324483527138 0.059923672938825834
P 8.555869519174275 1.727233777337528 8.005616789431086 0.6985743853483324 -0.22387855065865314 -0.23310572568387597
P 1.8144014500387886 3.2942222021052223 10.464065922144439 -0.3287654185717306 -0.920006274238706 -0.5389145354594332
P 3.8887564720241956 6.348678937750147 3.908854872732997 0.33125758886596496 -0.8374090709617643 -0.568534158098079
P 6.864798546592539 3.9599222621900685 10.417105924167144 1.0234798067440245 0.3931442990684326 0.7417234099319807
P 6.567413617480754 7.729715701480911 10.155569380035402 -0.9986941151589124 0.09184340446555796 1.523077546881706
P 2.27779458409442 8.3733067052881 5.825718206985775 0.6694630698046729 0.8768847604588833 1.273858203465419
P 6.805484660365673 3.851560703163626 1.91390579492121 -0.6034613089925672 -0.004088568247076829 -1.419946999538103
Ni 5.063825629915836 2.875581784834573 0.6476983952869675 1.4867727989134008 0.0798191263111722 -0.1488049094522663
Ni 1.6914243550386314 1.177687812508135 7.0290026887884824 -0.39500526353657134 -0.24464329400983031 -1.2243642105003494
Ni 6.993937181866798 0.7098012845967285 9.056814522873964 -1.0836477344831725 -0.004201953896489538 1.0627456942231825
Ni 2.7561294533147476 1.7585760829377004 9.204471304998489 0.7496406078965283 -1.5136451978242125 0.9491872666780363
Ni 6.437160468303974 1.7544532876072354 2.575763953423381 0.3537308302678166 0.7966396023538861 -0.1991170274432571
Ni 4.138905946064082 6.864653569174325 10.467169345003084 0.22836718255762609 0.1701977733057456 -0.5474218015994959
Ni 8.307124513873337 7.365559610192869 0.1662555726636738 -0.3199735313117134 0.13082955592076825 0.3540661021200483
Ni 7.547315987190228 3.788078716163103 8.166363220202623 0.9542870497984468 0.41390955664024204 -0.13310421088755786
Ni 3.1541740161103484 8.599833921247717 12.465632312988836 -0.06387108762234806 -0.5638871462443708 0.15745847136220625
Ni 0.09194467863141711 4.940884779270234 10.38879183438992 0.10842676274553585 0.4230418579588134 -0.16517640883175425
Ni 8.6798070895701 2.4197274765260777 5.759939234015421 0.3777781010250075 -0.6434355353926596 0.2640430386926807
Ni 3.760804839361565 2.662936156668961 11.461182548049115 -0.43905545977825033 0.1495117057113038 -0.448904327547872
Ni 1.1002155046499458 3.380139444574386 12.607242630664967 -0.7106590844270084 0.33713075981729035 0.6213325328460331
Ni 2.9914549863422364 8.306200282832222 8.007234193753039 0.7636608334350203 -0.02822968426965461 0.19512076179967042
Ni 5.691559728605852 8.032510100509812 3.512180346539519 -0.5851514549397858 -0.6014437643419062 -0.1585884712015914
Ni 3.168789552084063 8.472172243421515 3.721438939772103 0.0673562179574711 -0.31996864621570703 0.012849088048526257
Ni 3.5916343144829233 4.266132691635641 9.384885734768503 -0.43310875527651216 0.20654160204210237 -0.5315814921331297
Ni 7.135018331966448 5.8341631415967505 11.683039678924509 0.3735360379192018 1.1889143543331717 -1.072455722422095
Ni 0.7618653938040231 9.281001259638286 0.2702388136600488 -0.2852932063207087 -0.5168737536093099 0.17629745844558026
Ni 4.6274073567366765 0.3522298864222003 1.4046653645730798 0.005185915076313649 -0.7649625829655794 0.3806240551142348
Ni 5.890378135509288 5.523123151906918 0.44411204354201256 -0.08489062729680864 0.5977668297109512 0.6609863997922294
Ni 8.310042184414897 8.878616435384899 11.021818514953615 -0.2038511996941328 -0.20603020962332258 0.28173608509706966
Ni 0.035816671169807 4.870144860270365 5.949305113251295 0.43199443916641084 -0.4162004095569477 -0.3411277967918254
Ni 7.9953596370924345 -0.2367816499716772 2.4268730510263077 0.7599777281564782 -0.6158229158817136 0.08585376254102635
P 8.689756164895046 1.4803462952074602 3.5238374370728014 -1.0273634580691469 1.7192630025004647 0.6449478582721279
P 1.6794637180359637 3.3026127701843664 1.5589403658390812 0.2111950416537137 -0.8590618733448496 0.06319385904966536
P 4.73010573536413 0.9966835058677622 8.155647576778868 0.7329716318812796 -0.574836703277339 0.9571106352901709
P 8.422408744619505 1.5322482109281277 12.381712134455572 0.6849776205005041 0.4898200919256274 -0.30895841114813244
P 6.480943648604649 7.602715483125311 1.4081529775899941 -0.9399642054178715 -0.5453021841533319 -0.47248494308128947
P 1.887714718211959 3.3191764402153336 6.084403226523019 -0.019710076834417667 -0.0024965411696086038 -0.21488817423458476
P 6.806535746647726 3.9681859750282755 5.98230016141911 1.1948258347216003 -0.576708209268439 0.40221386546986854
P 2.5086801836891004 8.456061627822466 10.280270800203443 -0.7205930557112686 0.9874761349559058 -0.05501929365867299
