# total energy = -340872.3296106085 ev
CRYSTAL
PRIMVEC
9.21489449073515 0.00000000000000 0.00000000000000

0.00000000000000 9.21489449073515 0.00000000000000

0.00000000000000 0.00000000000000 13.48692954299786

PRIMCOORD
 96 1
Ni 8.74876829860983 7.828062112327313 7.8426631126992765 -2.146696047548438 -0.4398730705835392 -0.3358405802509571
Ni 4.003447785169236 1.5528018760993518 13.53453851304933 0.5435947145439218 1.100740171189085 -0.799912873788519
Ni 1.6443794978706139 6.804554562744315 1.1052390565562538 0.897612737034854 0.9072615729785279 -1.1327468060026686
Ni 7.744354010478839 0.6037036783014974 2.2928592701496457 -0.6100857562876203 -0.14793819057659685 0.23816848491876405
Ni 0.9835701967195806 2.3117221592385744 3.0360967242998864 0.33977848185278253 -1.9774752934439814 -0.5482427548388945
Ni 4.365906446343598 2.63497144421685 8.057442031266415 0.03019092176108349 0.48050498517228857 -0.9540839326487052
Ni 2.2528666279190888 4.360165567055664 2.7906616946330662 0.3247516694266471 0.9282520591872658 -0.7227754080745682
Ni 7.32321490098093 7.055485355504754 13.316562947572104 -0.8228746247910151 2.2445756309057474 -0.7688994561261403
Ni 8.740926423370611 5.877361090717487 1.1288964552655878 0.020855760403086662 -2.058825768798015 -0.14589442067369066
Ni 6.698223894841457 4.427120990661016 7.003857065959789 -0.5278865597800457 -1.0930800835406658 0.22374999550058886
Ni 0.31689192924674037 8.24817836853315 12.869861720666924 -0.09460142682666935 -1.6929354203495297 -0.7570068184536124
Ni 3.1522311184859433 5.325481057724845 10.675350255294711 0.3105398967026394 -0.36048486116219847 1.5050520568385628
Ni 2.0554375127601747 3.655060267931753 5.039566839396644 -0.739292689003301 0.3663289786478014 0.2936446636091975
Ni 0.26906109773477493 4.021693276325112 12.590709391939825 1.0218422711406014 0.7593956304007631 0.6327523446472006
Ni 2.5509684657436336 4.740003519300725 0.2314763074431221 -1.6038053010500766 0.6813428519613943 1.1461818484616517
Ni 6.504314869390395 3.399982772635888 9.530660392305862 1.7457931875805095 -1.8778267911117081 0.9542924491150856
Ni 3.4268626199599748 8.541230444158998 0.7758379079943103 -1.1530549214324013 -0.2643438577625512 -0.6435520063658658
Ni 4.25230522666196 3.6392567238245164 4.216715461034574 0.9014580789228732 -0.018388529809516718 0.5718503669555055
Ni 2.0801518598713162 1.3819208720616902 5.088389193559303 -1.1032994472758288 1.033964508325432 -0.37386822444763995
Ni 4.903558682192466 6.9610511164313085 10.21679406658547 -0.646871300547086 0.6302200651436501 0.6078334699183339
Ni 0.44577973745286487 0.8053283349368109 0.7647680552036263 0.24570618805670583 1.3893696409718783 2.3871080770857405
Ni 8.570340295957692 3.1567372019077737 8.000446987151157 0.13721154818771208 0.28924293499707604 0.3737468683784273
Ni 8.026256063731651 1.133865126392481 9.274745263097842 0.6434867003455692 0.26218644509991623 -0.11313393841321806
Ni 1.3764564396094505 0.18686608156700452 10.895362312461558 -1.2814786961251543 0.8893255573253973 -0.6361690836382334
P 1.1181445163359531 6.207337248697677 12.283342899161685 -0.6040673180076822 -0.8137636636286824 0.5407744714863074
P 0.8649818761220032 1.9853398101224218 9.218640377793522 -0.390103969580212 -0.5960974124283283 1.5031895497085273
P 5.541625623660317 5.67352762386497 5.701815507072197 -0.2848275795381998 -0.5013805430697171 -0.7538186505336179
P 1.1183841035935556 5.8860691660418825 9.058496568854258 -0.10457036511392315 -0.21007635466823818 -0.26362472020833955
P 3.5996050326913167 3.725978096182068 12.370818971380682 1.8905118427785441 -2.077474494247454 -1.9385220521092357
P 7.746067980860148 8.671280250564495 11.47299428968865 0.24266971522322725 -1.0988792067209463 -0.13707116595510588
P 0.7410719539372951 3.6486927758162424 1.1659163725229704 1.5118577669064865 -0.1043929589957944 1.2088643150925373
P 7.800887388378485 2.9931820390160317 11.876860079402876 -0.2966970772822761 0.36382318150681214 -0.865267487934929
Ni 8.970884116196316 4.232871014112596 3.2583609016881954 -0.7755164472220256 0.389548097076742 0.0350284523590429
Ni 5.746942688531065 2.4947668240468204 11.79418496723045 0.016355044319255704 -0.034097198794025146 1.204588570535319
Ni 2.217499862739163 7.822017141520114 9.47234301082653 1.1095713963274698 -2.014841907017898 0.18984125856828596
Ni 2.4813038631484696 8.515235226709136 5.225807229625525 -1.9248823498386138 -2.701727543174392 -0.16476297544341945
Ni 6.318809827744462 2.029184278263664 5.3877719017225685 -0.341418845669683 -1.1032819637743323 1.4821134457645184
Ni 2.7329257729981453 7.570726967873273 11.841200280577114 0.019792095025262687 0.749729825176225 0.28909689633751506
Ni 3.3427951372250964 6.032189748495787 8.380400125577758 1.397693073235909 -0.1515099670882552 0.41011666525671303
Ni 6.84227112602765 5.795274810305091 9.663060918304218 0.8072880832066677 -0.06307970206930427 -0.6329564902382067
Ni 4.802213272226645 4.192196469687324 1.314758113329567 1.4268774081093492 0.49849139444738017 -0.6204251905404154
Ni 5.004277479330713 0.2692260443467397 2.2549473511024205 0.024338833855680662 -0.7923898259385965 -0.8912618551161618
Ni 7.482217905978225 6.8188745088333205 3.0195080711792754 -0.8291841119488107 -0.615253930752121 -0.22854870244081285
Ni 1.870881605250129 2.4647078381122407 11.448164756395968 -0.04759986126615028 0.38283854626705033 0.471596112718433
Ni 0.48558900328241095 8.822432165428049 3.4296049725700697 1.2356932623599235 0.2938102426527844 0.31109654053705776
Ni 8.783112210497682 5.564156040769467 7.236816971421141 -1.0683884943312567 0.0440414544909306 1.4326325654255714
Ni 5.478614174910882 1.094637320407347 9.370677844020754 -0.12208292007638975 -1.0518874113524401 0.45158984479983516
Ni 6.008820775985028 2.083109841013254 3.0016643494246096 0.7004134954396002 1.96732689215607 0.6038420893707537
Ni 1.462588058717519 2.3069949183481886 7.198486696162565 1.215053731732701 0.20512852374465962 -0.40146310334677315
Ni 6.902140295744684 8.397607098120872 9.641563490871116 -1.9162329016937323 -1.3554711884522204 -1.4990876117250118
Ni 0.7292409508589973 6.369104722051923 3.111987831124356 0.34522356412775385 0.35495338982100805 2.7498915044741286
Ni 3.7429150723156543 2.439486671802325 2.306993075369284 -1.6398915052496728 -1.8534948992345626 0.5541413797115167
Ni 4.2381972231469875 0.45141003800652163 4.496609588770787 1.9746061994263027 0.6051672359400804 0.24983692239562777
Ni 6.4140826222195155 9.249726824467434 7.121948703742569 -1.0662786470771055 -0.5167670528281164 0.17580792040367144
Ni 1.9726416854694937 3.833147319486533 9.330958884157535 0.2866844302412805 -0.36653800933481384 -0.5208479077657094
Ni 7.119501227757214 4.600176709806146 -0.11621732823676588 -0.23553310417844597 -1.5925960625978184 2.0264149565674776
P 2.5569950067617864 0.3876282240749492 2.9183423516566553 0.23361968920581702 0.880858914615283 -0.3143484718154521
P 8.671095952674031 7.970727109335029 1.6475097975401347 1.1389313375468255 0.4951407328075924 -1.4389731629316185
P 0.23615286641363076 5.387257710608175 5.258216935152967 1.0993234933472162 0.3230210598887856 -1.6363302702609752
P 3.847734497516711 2.2966097322205763 5.879127585997579 0.021285905961969793 0.10755952964923413 0.6288013304192525
P 5.035976716490417 4.672274044555427 9.129923059282252 -2.9083573340549265 1.7084188606971094 -0.5606341865247119
P 8.446630336984136 1.7753600086229502 4.415850253169727 -0.1864376322033757 0.4280385398424564 -1.2480841798251088
P 6.137820084414884 1.8163939339346258 0.7965594413085623 -1.5174483736203865 -1.094493933169057 -0.10965909249074018
P 4.754470903702102 7.972533228661571 8.253636350559225 0.4396000194278107 0.09244298572276982 0.8683996058060076
Ni 8.93682586603868 4.051908915466586 10.1723008698698 -0.2877306121176077 -0.32093846632814405 0.11778763513514552
Ni 8.485176240774557 0.9346667514851182 6.702895846364705 1.2117557777077195 1.2105730702535282 -0.0703968045560078
Ni 6.730835406558956 3.9930902437251925 4.385234687605948 0.27332394977397445 2.1653794828905544 -0.7927268975630412
Ni 8.928256014132133 3.352461561579901 5.730852561204157 -0.34519990997867 0.15441145700576633 -0.3436917008642597
Ni 3.997329095205851 4.50390870672259 6.743896598056097 0.6078188146303145 -0.10703759570749309 -0.8789511560696088
Ni 7.941469819223965 2.879829621486519 1.2638937385405737 0.6022996845842982 -1.0154687635140898 0.24827806254894014
Ni 3.9184219534039473 2.659916163691071 10.34567542436543 0.15204192833232524 0.36098854027149446 0.28503121090857364
Ni 7.656784867825156 0.6318579455381382 13.117684329504696 -1.1820541368782287 1.5389538517923302 0.9724853179740284
Ni 1.692121866395157 4.7537244972457255 7.161950560867648 -0.04475339295629067 -0.3227914603764828 -0.8871912845912141
Ni 4.9587559003862545 5.8633728808313155 3.5554380432417636 1.554779248860361 0.36818891467467557 -0.07794762032007221
Ni 3.7596308909806844 0.2963740451014504 7.251490769459838 -1.0326249635784022 1.1647858367160844 -0.25796752192256217
Ni 7.889949343944922 5.60686707688436 11.651588160442206 1.6565982764813922 1.1339210288164276 -1.7006394738620068
Ni 7.6490259266366465 9.053956390322693 4.735180443507298 0.2527044737514099 -0.278871619065081 0.5014877580715428
Ni 5.399771537370641 5.224144862653546 12.211592044446475 -1.3807569596022027 -0.600415837298024 -1.597509954959668
Ni 8.89926595596224 7.3634839900471825 10.037970744958288 1.4626890184913195 -0.5366517075671855 1.6510351805713177
Ni 7.486429112775315 6.756775334641679 5.428853744485764 0.7561539835350138 -0.1829861833196655 0.14300270094819242
Ni 1.9040736553225868 7.1363829145236615 6.938580596136559 -0.8589037505004303 0.019516215656056712 0.23425578012791917
Ni 6.355798414360466 6.773804459720497 7.502927459929597 0.6250014970571881 -0.12004352104885778 0.6228772516253337
Ni 4.382262884122225 7.466110270351725 6.142271799959026 0.35093424135928597 -0.3426851139766163 -0.3888284453018981
Ni 5.4339587960516 9.147727156990468 11.807267352984994 -0.15663237591648507 -0.4874508203625025 -0.3514479477709109
Ni 1.2696742418749583 0.006737930875341797 8.102030141395677 0.028247681991783607 2.4393837465610053 -0.6519500006215739
Ni 2.948213353742963 5.858802293147823 4.947302707983407 -1.0382975884831471 0.2606851779640414 0.009929343298569995
Ni 5.465059065067299 7.381231876898807 1.1545470356602834 -0.5729004054865746 -1.4942770777102459 0.6026534683792912
Ni 3.155253603889543 7.492197636746819 3.1934484201986297 -0.12746141077948372 0.9144490918659026 -0.5139810054425471
P 3.6579721746010745 5.940731920353326 1.8079503260830452 -0.5965424703855469 0.48536668413996414 -0.8018550851165546
P 6.632936367144799 2.192877664573253 7.643150509888674 -0.011343707147593366 -0.6578882204828799 0.21942539998330596
P 6.977389124420889 4.657585502685494 2.116922053487121 -0.8456954793402726 0.7360687827493646 1.1547485070847403
P 2.0326398637098526 0.575303373381088 12.93060722685311 0.8776437501120948 0.25245739073761037 -0.2714807259176486
P 0.2817942389868911 8.379435326121182 5.967143651035635 0.9141199906612579 0.15304491567554288 -1.2252103605507285
P 5.978936873046389 8.206960145331012 3.8708436100019163 -1.970578052103516 -0.24939057888682853 -0.864785406092188
P 4.6915516038978975 7.1366870060429255 12.54028180315123 0.7220457289973952 1.4535256068244968 0.6081268327890365
P 3.4107457694389507 0.36123860913949535 10.130612687046977 1.0925697195631507 0.6928140858257875 0.14120575694876972
