# total energy = -340861.4153627757 ev
CRYSTAL
PRIMVEC
9.38404575717766 0.00000000000000 0.00000000000000
0.00000000000000 9.38404575717766 0.00000000000000
0.00000000000000 0.00000000000000 13.73449951951125
PRIMCOORD
 96 1
Ni 1.6531122213703027 2.773501564395839 12.375237201879681 -0.9519506883557862 0.1109839819497508 0.5031386634114045
Ni 5.370479849104817 5.82993210027426 12.508324550213262 -0.8114342441645574 1.7882690973565334 -0.027910867477655157
Ni 6.341231202768454 7.299032573657764 7.870884106476525 0.0910785012750754 -0.8669016811042425 -0.7506009149272687
Ni 8.023593493926857 1.2930651640620534 2.7984452957092008 0.3759310205139397 -0.22597477106604952 0.24676162590441375
Ni 3.6739945694860072 3.9263503207665904 10.015856380111298 -1.6632628329857613 -0.08937617387198801 0.18819832364822425
Ni 1.010539706535483 4.896989065884365 11.175817304557894 -0.7993762845587588 -0.3948761941578748 0.3181004826587167
Ni 7.9919411084936645 6.654076511268831 10.273762794298413 0.3268854279401983 -1.7652615807177665 -0.45537245177071894
Ni 6.556876568097467 9.034987148601806 1.279482696621792 -0.07490291995647745 -1.7868835298629162 0.6557395495709932
Ni 5.597920959613053 0.17779012582782752 12.767562560455215 -0.678519009359354 0.09241804602210535 0.665602558408002
Ni 6.280722877457685 2.7216640971165758 8.30026612228216 0.11162392952659486 0.8066867021772429 0.12762030495485116
Ni 2.651987559363403 7.112815574981136 9.954558856574934 0.5170213349307676 0.24400617464646365 1.4114664728709174
Ni 2.965696200048733 8.272233163193938 5.220565968805552 -0.5497939013760983 2.1266401573388283 -0.298212485485538
Ni 3.368206063193091 1.160393528943621 12.382007790699738 0.18735911557638055 0.08395834529052637 0.6878809101902282
Ni 2.735871541986381 0.6382605459327881 8.20922023614225 -0.27734155557379975 -0.798662803431502 1.1468467357391603
Ni 5.327904434722845 0.5888619920760232 8.536074047748071 1.3264313495764446 -0.4985672419906382 -1.5888954738177796
Ni 8.93733677124699 7.3225959118797475 1.543195019752731 -1.4814940670129646 0.016470486851197442 0.9405041370817415
Ni 5.304744610456874 4.498964776483578 1.6146967543534454 0.4259376914493696 0.50643301789196 -0.00879317281159776
Ni 2.1430344682413685 9.16343596325035 10.821809818926134 -1.493003353204145 0.783346999010038 0.10723068555490564
Ni 8.420200792458859 4.032277426242391 5.992073391845226 0.9535522285149514 1.9619481443426596 2.452117649187906
Ni 1.2550785479240272 5.122281229975702 6.7810520307756565 0.3706772283141681 -0.2614752779655045 1.1231650758515044
Ni 3.6442189931505435 4.401229942719362 5.65373820058405 -0.817291988496915 -0.6233025120882104 -1.9506031516434859
Ni 1.3758887495448153 8.10564758767955 3.189122815896929 -1.5996989921911868 0.8944176271363241 0.4795043118219161
Ni 5.585149273703011 1.5945745456121483 2.579956564597129 -0.12268712931929193 1.1813668810032172 -0.17311109029779864
Ni 3.110707854984731 5.159920636430649 0.8627184683801854 1.1211958679402754 -0.42270375789310427 -1.84036864626525
P 7.19424093768609 4.786886060166118 7.786239077764417 -1.349536311025024 1.2837317538253894 -0.8526037764243316
P 4.012017272032412 8.250180656295628 7.650569240112364 1.1010062803662781 1.0172903901038608 -0.05569240846629763
P 6.194042449279092 4.105594973645158 11.940403055645145 0.11460255253894457 -2.2212405557242327 -1.0603260290380965
P 1.7610005923532295 0.8781280094770858 4.781514632528419 -0.6958125063324792 -0.5796958311418532 0.24817059043679843
P 2.6174730400561743 5.60817772133214 8.53651322107694 1.3954148187246935 -2.609486389049783 -0.4963265255855775
P 3.2111546778951645 1.8314466218364713 10.249315478991402 -1.487499135556464 0.23669987079303753 -0.7530213514433031
P 7.704873772950592 8.900344863930759 7.953071453675157 0.2656600054708134 -2.1770407212785665 -0.1139147824433006
P 7.038569007074994 1.572597111077747 0.6947815903154329 0.3814488650083753 0.7240825569217658 -0.09866094160802363
Ni 4.507691938788016 0.09428432023804136 10.450511291077003 -0.32031780202500965 -0.8831191714043695 0.61977470144061
Ni 7.833331971644623 4.916967698729684 2.7177143523704057 -1.7144478405000085 -0.529764493529049 -0.25438109012288446
Ni 8.014547274075804 8.255811083588812 13.063500634198704 -0.2386369399147503 -1.4248076700645138 0.3847897564561502
Ni 1.0395176390044123 0.3010495633211514 13.139245834169381 -0.02676544101930229 -0.2774312870741287 -0.7274722993296052
Ni 2.2873986240386506 0.5998751078614944 2.004014526349869 -0.01924470716222492 -2.6398626873487956 -0.6345580303973716
Ni 0.031570744237441155 2.0652876513679628 0.8157794728459938 -0.7533239702853864 0.940345242906374 -0.24683824477862004
Ni 3.4780181635011895 1.9226126237586367 3.845715094691781 0.6771470687124919 -0.12347645798980669 2.0931661939510984
Ni 4.685932498799298 4.28625661739251 7.869346061420936 -0.4579836641413209 1.7611581000723537 -0.45099771974179104
Ni 3.7733903793017123 6.486130249158589 6.380485603451996 1.2083842901323254 0.03759672730685138 0.5057539895470645
Ni 4.983031378969731 2.282884898158613 0.3156051562785853 -0.11917963038666571 -0.5245664942678773 0.049667799538772525
Ni 3.0349223036184516 2.6058274396047687 1.7345300768388658 2.055019507678048 1.565687925353065 -2.450308363893309
Ni 0.838291797973248 7.149948242979695 13.392798989654317 0.9478106980454839 -1.0461880469748177 -1.1385716402145616
Ni 0.3002444122182259 1.4114636659922604 10.72054564565364 -0.07213487029303706 -0.11490311449849888 0.010864710628645805
Ni 7.652914313079975 0.9778081558710968 12.337796737189095 1.1908856191269297 1.3827945588575217 -0.10644315665660377
Ni 8.908940649598355 1.8356412901698949 5.2745561361199105 0.7755388158195289 -1.5688424118216464 -0.7273568567976635
Ni 3.4771172951342804 4.3332800693361 3.1759654457173023 0.6573331193103583 0.00516226092722982 0.23934939260074264
Ni 2.8924631090553645 2.759312887617011 7.301891892318154 0.15882938356780388 -0.13360171934926668 0.5349658352243303
Ni 8.780566907313721 6.93922950153222 7.594958448142116 -1.4698071175933396 -0.20072653802222204 -2.2390001937004986
Ni 4.80471574659454 7.250948724573958 0.5161065489980263 0.7151834546599232 0.6641290591862692 0.6602384658826114
Ni 1.3424252433323147 3.043818378741685 5.655990371501325 1.2611713520263699 0.049469567485037384 -1.1900518103717246
Ni 1.215909542054432 2.313148444859486 3.099656264612756 -1.9121106519952424 0.45617335040545953 0.8735896346473793
Ni 5.598896900343872 5.048822921890606 9.980283340472951 2.135388335845103 -0.10951845314781783 0.23535775494284625
Ni 0.2689336060408201 8.566460525444846 9.130736318340626 -0.19733808116596335 0.9970547797832765 1.194769527562368
Ni 6.1001926103471735 7.949853664477101 5.527064847341959 -1.2815931102158316 1.0041942190415352 -0.0647195516655724
P 5.078551577998626 6.210980651386091 4.353437937450253 -0.6557968851714899 -0.20969454584878722 0.15237102953696982
P 3.8671463777787434 0.05016335356408924 0.4927693662723204 -0.188949599991952 -0.6312122538535904 0.29769029443348083
P 7.964886905349907 8.82565724588665 4.642205662035869 0.6347601191058487 -0.019313355616631254 -0.23791343148516447
P 1.4337507740277873 4.414742968223008 3.818863586930578 0.19723240882603452 -0.6999383555753946 1.4946203199822776
P 1.2548814829687658 6.8549607730442075 5.607671921280303 -0.10348047448385404 1.1877658425510254 -1.271732672481984
P 0.1616608284419482 0.0359681079534192 1.417482592768676 0.43198415475376567 -1.244334225864373 0.8833420860484529
P 2.5516345769078557 5.815809111813852 12.26584175319128 1.1844272650960956 0.5448524982104229 0.7057565049190684
P 0.18248121016760008 8.057685731187096 11.490144353840925 0.0842931029221258 0.6220910082786125 -1.0472874506865835
Ni 7.020664248282663 3.695840627383568 0.1853705577735532 -2.4501726096463927 -0.35354519661957173 0.7945608654479864
Ni 1.4127680483151817 3.626736516405202 9.045815398691152 0.4507691486707527 0.3259294917848322 0.7427451663282757
Ni 0.4518671272009728 0.08100683427616058 6.814481754424397 -0.1746918045213572 -0.0834819198747401 -0.6242111399454089
Ni 0.007757790405461048 6.037131824663494 3.846964111146319 -0.12419945219876029 1.4761459153271739 2.343282081039726
Ni 6.827690736854212 1.0934759005641086 5.193467660647998 -2.53547178523553 0.5207147246219548 -0.46725017704491145
Ni 3.7864248184854374 7.944044940319631 12.064507995636994 -1.713669053352455 -1.5401895239716443 1.573308160902484
Ni 2.8843365256621993 6.502843234173862 3.6352750593953176 1.1438094915747334 -0.5770275402810707 0.735549677021101
Ni 0.6747663596927065 6.270972854194985 9.221850708012603 -0.5959323476053737 -2.297953018085623 1.0151635735688453
Ni 8.305668517269972 4.171968327386329 9.505743420966867 0.8075063698650609 0.4818327028447766 0.08606973520657435
Ni 6.864907861262169 5.683372077832636 5.584653796101211 -0.12646716518701445 0.41484286708778884 0.7864534058495036
Ni 1.2462387770737258 5.569271468736227 2.0534309098930623 -0.07029036088513056 0.5213500442131086 -1.0286065864476286
Ni 2.6950040238833415 7.395500561281014 1.299575814822074 -0.6465727954700605 1.4572272240458 -0.05635266775811585
Ni 4.564390341630396 0.6924937600253017 6.209765417495312 -0.5781279724341011 -1.0276030848837785 -0.4784535019598986
Ni 8.833990278280565 4.76266583875993 0.6804925042498763 2.348439199760633 0.830282487219312 -0.054390658935738585
Ni 5.361959135801129 2.1855254262139434 10.688668043128722 1.7891175613997574 1.674310863269807 0.7836133652975472
Ni 5.7425572527295055 4.048333528073459 4.132078626823206 -1.3572506489501464 -0.40099130591667714 -0.20570265108057478
Ni 7.095717844100829 7.185692072245937 3.466560243959557 0.0509932032184154 -0.20763046423090695 -0.8260144559715773
Ni 1.9236261006714102 7.505575414862793 7.59142817022929 0.018076140775420482 0.9110819751658825 -0.2792490570091578
Ni 8.03229250409483 5.534663108974112 12.36754603819719 -0.69543455416777 0.5309718835735887 -0.036511464662472605
Ni 8.138182073388675 1.3865959454473569 8.400074830099365 1.5305052068043448 1.9146622147725028 1.043029446741178
Ni 8.594687734274684 3.139113360678853 12.500412861461784 1.8712581367552548 0.7368342001604794 -1.1210315744482693
Ni 4.935829630161858 7.289151173758224 9.615069427718655 0.0032606730291427715 0.014668400645452157 0.2516500643449666
Ni 7.480454325089697 8.726411580798763 10.583145390013481 0.12342452170594874 2.4506377222082696 -0.9149913375226177
Ni 3.7678162562814586 3.6745294600788596 12.609369136821321 0.6652210066988673 1.23381070062523 -0.5602870875979383
P 7.706028010545694 3.388653898312844 4.274876585428433 -0.3803098663079256 -1.8805336485199098 -2.7433040810645983
P 1.4604953036704194 3.6806572417829435 0.8743331014814787 -0.7395991645001262 0.46083270355434186 -1.1282422332640956
P 4.807634184741508 2.748699532169356 6.196126645782119 1.3023951345628473 0.47634159782321833 0.4905734251518841
P 6.8470406386517935 6.41897801964186 0.7071675919558925 0.9885169175155943 -0.3062214718329436 0.5565067946198997
P 5.802624527902308 7.876367204255539 11.501173422503726 0.7020996248927714 -1.3852815869454336 0.1492715646760397
P 0.09010748159104642 3.0569466583802964 7.5493735703719365 0.21301666824348478 -1.2097683149640455 -0.35100597513748577
P 4.82448793043911 0.1912064956629402 3.9513325266664556 0.39288950274514917 -0.9953894762657115 1.4473529023548817
P 7.799999842068964 2.469580483155163 10.659825240914829 -1.2096078781267814 -1.541334950429997 -0.8495960999462594
