# total energy = -340897.3946918097 ev
CRYSTAL
PRIMVEC
9.02744388853550 0.00000000000000 0.00000000000000

0.00000000000000 9.02744388853550 0.00000000000000

0.00000000000000 0.00000000000000 13.21257663888897

PRIMCOORD
 96 1
Ni 6.275337478226362 1.7661020776070588 11.518632272308844 1.7212234686609453 1.1953901918655025 -1.028165899365784
Ni 4.580624428409121 0.275988825922594 5.939595097189507 -0.29479806048735036 -0.10714121116489289 -0.3806554225728025
Ni 2.770080243592999 1.6422004076000718 4.658860772534116 0.2654034093753171 -0.45644974399529775 0.34067373997354233
Ni 3.5034066085968285 4.372586979570432 4.892934272845822 0.43198184076092055 -0.8308836111384207 -0.16516843841195425
Ni 5.109100032334733 4.485872375338569 2.7726332047790088 0.8309491742690334 0.7897469889991108 -0.34556834906168227
Ni 7.2496604904073525 6.341472533561239 2.7157260027833767 0.09025960491820585 -0.6728859794432928 -1.0067954041098082
Ni 5.031418876020699 4.571262968897482 11.62782101395318 0.7250379788564998 0.5585438796545865 -0.3016783325469514
Ni 5.718696248769108 7.931232518496788 12.442983867781368 -0.7713134648842717 0.20219772325110985 -1.0202091064125525
Ni 1.8861400015475254 6.573008419341873 0.4333100939161648 0.21535251546551298 -0.03353027054696161 -1.0718821093068118
Ni 2.5312321281070354 1.549470502003586 0.29053835754738533 1.2031726640243987 -0.5118945552271637 0.6217192267614905
Ni 0.5383191289511573 0.09322190129888157 4.743367579317534 0.6201788788575642 -0.11257935146132868 -0.0948600798046947
Ni 8.667149759951766 2.4696920418092114 1.3631548891117682 -0.542429233480911 -0.3059965003063311 0.4072948795372018
Ni 6.971913118377847 0.6758278654209151 4.86086698598252 -0.9211331887542974 -0.0358990278894543 0.04001382138877625
Ni 0.778084432755716 7.332685893617135 2.3954927706770857 -0.6220249309273674 0.5098335589330767 0.7485990540058914
Ni 7.543305191462891 4.1909818869999 3.9719778990920314 0.9029071526645741 -1.1767990591268764 -0.968115728151423
Ni 7.594653293393654 4.062963702492135 12.565887102473036 0.03017240981832223 -0.7752541946995746 0.15309170975307826
Ni 7.978446051038612 8.820733666095945 7.014332175368435 -0.613658304130227 0.328038567708035 0.049524589092688906
Ni 6.776757832242252 0.8489146617569414 0.4456388742971151 0.2803122081663495 -0.6200793771652224 0.43458379716014184
Ni 1.853487736307797 6.390202676708614 9.129084976303277 0.6512606878640332 0.9693305743951305 0.8447004624168549
Ni 0.14453569894213944 4.948781652906385 1.3996212494755733 -0.3466487266100546 -0.12984019542430542 0.17064000304948676
Ni 6.082150174900351 1.9981615551443705 6.919004171365537 1.6407314846524648 0.3810734839468276 0.4750624740004786
Ni 3.402290207449415 4.016770271131424 0.1884867131932153 -1.254507823963265 1.1886258765584754 0.5289635948943083
Ni 6.06615354398943 5.742943963569747 4.846254262249165 -0.9848777781011102 0.3746750366196515 0.23868861908829214
Ni 5.276532037698637 2.763390907529234 9.265412020342879 -0.18583625117395092 0.07657825077637134 -0.4152912674791171
P 0.29026302050292535 5.565383165947348 12.360431502641413 -0.48540807890086074 -0.2632722219649272 0.16997048778628793
P 3.9066354533474357 6.15645506712822 12.671732981574307 0.23009342122011342 0.0770418206763512 -0.008416763308785503
P 2.3710672152280585 8.55113807607127 1.4715239388335806 -0.14300552916166984 0.2971699031536366 -1.1805497844185602
P 6.348550049720473 7.787019099308328 5.878870189092166 -0.28935683486712105 -0.43953188519403663 0.17487512417675688
P 4.65890139603248 0.9801637685011733 12.677599917482324 -0.6195139915800556 -0.07333351858682854 0.045447333699521725
P 4.042345020211919 6.110803282412348 8.281695952595967 -0.37626089304953264 0.3570809776869721 -0.8388046657577102
P 4.753942327313613 1.1360316179977588 3.7778192427829405 0.3288353525777175 -0.27482778801301055 0.33173298584048677
P 0.35613176623742293 5.618184686375098 3.601589993162438 -0.5395642532282902 -0.2887063457673157 0.051387610443356664
Ni 1.3922124261185798 1.1932656134691098 2.6213883093961265 -0.009042569818242491 -0.07271413983527476 -0.1349122106305741
Ni 2.0264625923372233 6.282460131605999 4.891534116268913 -0.3157193840210498 0.6123061609777067 -0.7712571577250394
Ni 5.903172068557288 5.3492210174360695 9.25186904873308 -0.020760115365486824 0.8869657988439691 0.036312204167472946
Ni 8.56809161605474 2.137473072197035 10.203769695306539 0.7427030002364305 1.4462619832835477 0.6738264889796911
Ni 2.4389897044909046 5.035553445409638 7.063456817822134 -0.4835782247809737 0.605826209680318 -0.36478940207482335
Ni 0.4826261181843738 8.82562654078766 9.055040977209341 0.7183489968720983 0.9100424781577746 -0.14360999551488815
Ni 1.3408191869674122 0.8918031458397242 11.491215924635895 0.39282136851137506 1.2044304476909 -1.4438163499565329
Ni 4.0341751833189265 6.916647105716078 1.6025663171083653 0.6658074753299565 -0.013681868362466758 -0.06278711052954994
Ni 5.550208032447768 7.820601191288364 8.130874444340469 0.14052518594197735 0.0864407453927479 -0.1027633938121714
Ni 5.47743780571361 2.9178504757492374 4.850984642947427 -0.3408123224339356 0.27951208086255735 -0.4976681272151364
Ni 0.7449573239573452 7.3627472824057145 6.763940667136538 -0.044229145021704476 -0.4641597110450458 0.5490459674664803
Ni 5.007785027417545 4.5600869931256325 6.969714032999799 0.21449865210564992 -0.08102343103191852 0.13713492931350577
Ni 8.149877214130246 7.00560353968685 9.052319202819021 -0.5263215292857709 -0.12884363583899103 0.5359222856003287
Ni 4.609683770904749 0.3786841270397147 10.466778862129967 -0.09628781339015675 -1.3298766278125678 -1.1085696945358328
Ni 8.184768285501976 7.240010152685132 4.752999862151593 -0.049451312652592255 -0.12255960260249214 0.09583375657187367
Ni 7.159837421804837 6.062632840797974 7.079325259027109 0.4456243712450196 -0.1997988840016301 -0.12862380651870106
Ni 2.459292426228297 5.201360510839025 2.5028850509493714 -0.42496889977819713 -0.5670696577374105 0.09028325906728966
Ni 2.2932055100324105 5.211823318528504 11.381035969631505 -0.39548194606267373 0.09833903949223063 0.4119886854684453
Ni 1.1118380678616038 3.41174194140186 3.852893273246482 -0.5992940649887549 0.25891497343749603 -0.47548644891177466
Ni 3.7517064580352386 2.6655875783594203 2.530194874782168 -0.8111956457911901 -0.39967670087031165 -0.43960541874444936
Ni 1.2316412782559734 3.2158464048516513 8.20900065364768 -0.8488309396454606 0.5848295528239927 0.31811642349831665
Ni 3.578532998236038 2.5569422888487403 7.059876533499747 0.47865970443343364 0.32745698417295216 -0.23913753370025267
Ni 4.131337563959014 6.86209426113668 5.959321867994554 0.5998226837987153 -0.17832631595015094 0.5372880555996037
Ni 0.7446485853697867 7.416289053248078 11.362142431915103 0.7550100997385578 -0.4572354731213868 -0.2057147352654328
P 0.35284126287002426 5.539591758208918 7.947867389704211 -0.9092312951103889 -1.1406267229713773 -0.33663967911348475
P 8.65771608088748 1.601459552464077 8.06382039519818 -0.30358660531325776 0.15162001030355823 -0.4686717399827864
P 1.970663960474696 3.20976190754129 10.533554865994573 -1.2063258649413997 -1.083834910793314 -0.2638319511231392
P 4.040052049415433 6.15825152850027 3.756560514717407 0.49027389163359436 0.41719722625257827 0.07151677709306394
P 6.8203964969281365 3.7969429803233994 10.481550468879142 0.4624527556562681 0.026021620874742284 0.1357313640977598
P 6.392883827600569 7.691129588283612 10.202818202700438 -1.0134221653977062 0.9026667545189937 -0.33222843741966657
P 2.4058319023826598 8.30917549237748 5.792829619559445 -0.12211608730717034 1.2183506573164178 -1.0388989695125719
P 7.021428649160238 4.130570231212158 1.6203242023594213 -0.5761898748711238 0.3184761208305805 -0.17720968584720448
Ni 5.27809378552459 2.8168062941544685 0.37910570867828125 0.9890105693225613 0.4567402786525231 0.7300588291098589
Ni 1.421966881808418 1.1424862405154268 6.811836674450859 0.415043156024053 -0.5038166633150356 0.4101745150778419
Ni 6.8782172762647305 0.8351324628790059 9.19710315647338 -0.9238747560551767 -1.0156014324372122 -0.7836105370840698
Ni 2.7555009214027417 1.5017153228169222 9.07643240870286 -0.17441875336562868 -0.546078143087408 1.0260791920400845
Ni 6.4429680873600415 2.1953841259744356 2.571074752557005 0.1218677187417901 -0.4068932732234089 0.4358186980085075
Ni 4.083753906209883 6.836808390266767 10.448730293179514 0.37697694527995074 0.3547024501524666 -0.19214882365554006
Ni 8.088950994029906 7.128358724295594 0.370829347945137 0.696690023841426 0.2844830517145875 -0.2544829058080714
Ni 7.553027748737756 3.6616938131070293 8.348327517355282 0.575714477896602 -0.41666037991250177 -0.7632972794480144
Ni 3.1646427420261776 8.416168759621401 12.254665065048055 -0.35246996127752195 -0.6944984155067458 0.7759666473855669
Ni -0.008505657812792932 4.771536815826809 10.062698729402555 0.23731462155890098 -0.19039507418922694 0.8418161988905243
Ni 8.526068863859292 2.334515094145487 5.766404485246553 0.26674346834297935 0.8017396425846127 0.620130542118132
Ni 3.944261840275605 2.5860016313443674 11.242277834900985 -1.501263536330408 -0.2526173133542424 0.630797534913675
Ni 0.9589492749116345 3.299476646814837 12.690442359431463 0.18210095250123476 0.3806047718405251 -1.417557416260004
Ni 3.0193821393243616 8.219027435788062 7.868749967036943 0.5571809378687889 0.1951960951222961 0.6624866384868396
Ni 5.632114032591548 8.044229036054343 3.7366089605547517 -0.7755861241176966 -0.4291649401374157 -0.5746960639344166
Ni 3.0107338478950942 8.301872290116231 3.513435196226028 0.3034405666536968 0.061424940074700674 1.1920472435351988
Ni 3.346428383478323 4.3296975927432415 9.280870615586592 0.7636888584594783 -0.6492631978180302 -0.022225901277735917
Ni 7.201905311220688 6.160174374089449 11.357240529779306 0.7349135860989988 -0.7231996400961803 0.24412547383314728
Ni 0.5001204020682747 9.038006190229144 0.3028003348421387 0.08869174621045371 -0.37669515237347384 0.8127640187195744
Ni 4.586411020064821 0.27805701336147204 1.7208989568619963 -0.23645278777923792 0.9609194675132999 -0.6478614323744971
Ni 6.064447357058186 5.81150740136232 0.4176339372701078 -0.9640598129144945 -1.057080268407289 0.3613811477242228
Ni 8.022761774030547 8.870005455888158 11.172158968493315 -0.7923546018252869 -0.17285526553325067 0.40569771025341095
Ni 0.06028346608179648 5.004634449433396 5.730386788853556 0.26154006976516897 -0.7447935642168723 0.9123150762420352
Ni 7.900214220635658 8.907008949174763 2.400818059940264 0.21763385530052196 -0.08382464792613951 0.6304008136958885
P 8.410490497294669 1.6648863745747575 3.6350312570148158 0.6796469523162101 0.801426225109252 -0.8420465697337757
P 1.7683679660713032 3.2327999448351212 1.5890504278308089 0.49512582040925696 -0.040301270722208016 0.05687331614827624
P 4.719511655589995 0.9150217320151683 8.117450634992535 -0.38069656022338305 -0.17102129764830545 0.8424024104112976
P 8.424483035619684 1.5990221425623004 12.426785022123044 -0.012536184793797764 0.6055834975418926 0.3037562981219027
P 6.216108417613187 7.83956785130182 1.340706343916404 0.694480674894933 -0.35828965328309265 1.475418036022214
P 1.8630477995892105 3.222671152576627 5.920807180568848 -0.8209619811493346 -0.17367056234569442 0.09442762025296642
P 7.013303949487648 4.018133415187603 6.179151867035802 -0.5851496551675729 0.0928870152387239 -0.6408333218831221
P 2.351983198441554 8.495863035965423 10.070005542641438 0.6747834535763217 -0.2816414685007343 0.8162344937666781
