# total energy = -340893.7129748377 ev
CRYSTAL
PRIMVEC
9.06283879481735 0.00000000000000 0.00000000000000
0.00000000000000 9.06283879481735 0.00000000000000
0.00000000000000 0.00000000000000 13.26438066200281
PRIMCOORD
 96 1
Ni 6.245356166406767 2.1469320938023073 11.68315994036316 0.7103783199617959 0.14436795672683525 -1.0561955518094905
Ni 4.924701195942931 0.3303295925628405 6.272075227248105 -1.7868323649100064 -0.6759579335003971 -1.160386422096808
Ni 2.779926057733948 1.5152431786330138 5.05197788905859 1.1189919183104213 -0.0863057624767804 -1.4390744643961733
Ni 3.4755623622582656 4.137738666570176 5.011986301047405 -0.19659888900709366 0.733746305263775 -0.6763945068171835
Ni 5.337975700191578 4.276717296921549 2.4079753787747147 -0.26070240435522196 -0.06371245055729673 0.1239315432493543
Ni 7.166213073660917 6.044433034037026 2.3113446744776525 1.4129317445625342 -1.733709259832782 0.2491470954174548
Ni 4.988340448784624 4.520571095869344 11.41869452752504 -0.1492437967618978 0.7664664212046154 -0.013218812683119169
Ni 5.493910901614842 7.9201324933981265 12.344482525276366 -0.21121586758932012 0.5740214064648953 0.30033236004201824
Ni 1.9042020868443126 6.442935111322992 0.43258288194434996 0.3106517396901553 0.48946836501316343 0.018848757275386895
Ni 2.782681160676682 1.6060709473569441 0.42998365982600795 0.33011241951792825 -0.49436066010845825 0.3282067178547831
Ni 0.5249205195836071 0.256481052007368 5.098085080575553 0.47408776879203507 -0.729039643816725 -1.666993503672787
Ni 8.800052558572254 2.020922385526761 1.4646526008470704 0.1823351799992279 1.8504473706574907 0.5726345534196977
Ni 6.824480617537066 0.6238341529309149 4.839960029641171 0.14405351081020998 -0.12804093743203754 -0.6264857949121985
Ni 0.503563940358109 7.317326844934397 2.364999398003524 1.5626072295452123 -0.8176663411171983 0.1963420358012812
Ni 7.674583943627006 3.6395634900599263 3.7424783666612367 0.6152161355356501 -0.3830714882134629 -0.7431614279300879
Ni 7.891058907081386 4.0327638067488545 12.526681833041872 0.01235852156535291 -0.07530195516710902 -0.6093319088407312
Ni 8.1579957560132 8.88132809538289 6.784849730503253 -2.3183539503394783 0.5120277383709181 1.0011999122999014
Ni 6.821263309824334 0.5839939143248086 0.41211627347206375 -1.075706882369541 0.6153984267497853 -0.7276522765508951
Ni 1.6307128055848792 6.750555042853261 9.451309048621996 0.5650461995494785 -0.03598207452156384 -0.7158236593470833
Ni 0.3504853456702064 4.8195813307035715 1.0553367445108772 -1.818826658428416 -0.19923992617436656 1.426773278431317
Ni 6.368166692646836 1.9539842594246906 7.013859506063208 0.7270686361332833 1.1782687016938675 0.07564416899787618
Ni 3.2916683036694345 4.406297763616297 0.2527571316153641 0.9323884499531426 -1.274101686934793 0.2508687060942518
Ni 6.099788852373263 5.316279264517552 4.402673534449194 -0.9360877531816008 0.42811027362065623 1.877097626255167
Ni 5.132358017412839 2.9700553492984394 9.295810676020572 0.8666538267594946 0.4837196354548443 0.44653994108075357
P 0.19086066264172352 5.923761337713026 12.37532245884159 -0.2882900841655035 -1.0765414624556944 -0.4874387361776443
P 3.972079039299699 6.217243240984533 12.60755497981745 -0.06598479153124119 -0.08414706426256476 -0.7661753723267579
P 2.43527536757207 8.226148302491344 1.556057672391567 -0.48082637306744935 0.05898342051274358 0.3136920691783759
P 6.3133546446282445 7.641649588054988 5.727798296924069 0.8381996851838598 -0.09474900814812715 0.4384306817100578
P 4.6196188592283365 0.9644854124065158 12.744867860429107 0.7086770209999731 0.025093709743834205 -0.33327719039915504
P 3.8329644663689133 6.188160591829165 8.289482137671293 1.1371012263166225 0.6130296694072926 0.021693682923349736
P 4.758787809190887 0.9454534512889491 3.861459843581225 0.08878379170362774 -0.026143748274903362 -0.418512345519576
P 0.08957075300630807 5.433298636874706 3.4765810253199874 0.38929304364314243 0.3304335503027728 -0.18290750756293014
Ni 1.7424576058608778 0.8916582537643526 2.688849060947764 -0.8162854016092715 0.3275580285271907 0.182349321066615
Ni 1.6385793495134733 6.808122193814587 4.886518550521779 0.07344433313307996 -0.5228482260251898 -0.9097866533932266
Ni 6.072709090554554 5.773789484106601 9.052315765482424 -0.49366646225491106 -0.6246844800374015 1.2748815025236107
Ni 8.406498791176856 2.462391380745289 10.292615077256304 1.002554369445267 -0.8818001954826297 0.9131167462077242
Ni 2.3769016239729046 5.3185721626902875 6.910079128372979 -1.1513639068832235 -0.41625723093681216 0.5429527100845488
Ni 0.6388585268074397 9.148029310510394 9.393356727019004 -0.6523798890701409 0.3390873693230289 -0.34799521333562
Ni 1.4166123058508813 1.1823832415253996 11.597910348814402 0.32413357622667405 0.17976716216173558 -0.9117550899735072
Ni 4.185644831554679 6.3389299752348025 1.6791246769647923 -0.14991254069414825 1.0206785898498034 0.4999906047007259
Ni 5.8827338672467295 7.926929622368686 7.970990424923579 -0.665022517534816 0.02770029412874584 -0.16178255265885688
Ni 5.391790835961155 2.842504958456233 4.717556424855473 0.5348169683512919 0.025453921296730356 0.324469362299538
Ni 0.9592289660026164 7.752723738272559 7.155629490711824 0.7119032412467545 -1.629580867352284 0.4935008832113243
Ni 5.057888672411388 4.725237180592205 7.002783810976647 0.5357484790266257 -0.20256616233412209 -0.12707497397434245
Ni 8.140033209853668 7.331383307645514 9.045564856988864 0.35992256090082536 -0.12800674175999244 0.05658586681484448
Ni 4.631463989314366 0.576856928905721 10.468183105998131 0.23188548012352966 -1.0155212140185803 -0.3601529317440765
Ni 8.090867310299954 7.288787966096675 4.242559458134831 0.17325352941293387 0.004979969713094649 1.5552762431014377
Ni 7.465830518683182 6.079551533718251 6.994426967478309 0.04702393415802224 -0.3221551123440645 -0.8588039916977726
Ni 2.231533692389205 5.054363228185325 2.5679045731810786 0.09524703083046822 0.9571468878447451 0.8871609455739108
Ni 2.0971771097378116 5.414728880527137 11.389394370242615 0.818061776783404 -0.04047893395065287 0.5532589771065634
Ni 1.2209365570464132 3.2112809250442838 3.8344670850133387 -0.7438489409154158 -0.5005127957527833 -0.23722026207288174
Ni 3.528779350678433 2.68345214054514 2.919914288308416 0.5126309191725559 -0.22270689894805518 -0.44978544460124475
Ni 0.9554044481018482 3.3617602976138445 8.3341166179113 0.47929656668648424 0.31072707301278096 -0.555253638939089
Ni 3.682312899865432 2.73151237378631 7.080167764880673 -0.10073916429329101 0.5338597466443451 0.15945107631220282
Ni 4.041554760217445 6.8420625244742475 6.026684370869102 0.6529607012742755 0.6152565018552824 -0.4708425223818601
Ni 0.5895113704811774 7.909139270143075 11.718350942753402 0.8701782949729853 -0.802585792634992 -1.5309672340424278
P 0.38355201868618444 5.617645837394908 7.933731282758559 -0.6932177490221094 0.26926494921325234 0.3542982727355124
P 8.578239583166328 1.6216137156029569 8.123982016360657 1.098684831321953 0.49770437976971055 -0.987628344263054
P 1.6797518253978094 3.3556156930244585 10.56877970847855 0.34116482067734794 -0.7158758527412574 -0.7573606022486054
P 3.8448186592935696 6.001710812747403 3.891106201299217 0.27757346907894775 -0.4478303777574029 -0.09440987964115354
P 6.9142208456257075 4.066568194829103 10.573714424111175 -0.8282127491744768 0.6994999824863953 -1.5136153730275417
P 6.328788658810728 7.9507558251201536 10.180119873941956 -0.6165302263613834 -0.5571860800751114 -0.614277939992097
P 2.5486424159623757 8.555935937304266 5.844988956931281 -0.02188188767475586 0.1903822186734205 0.2349569199600018
P 7.127333495949317 3.8539540006300017 1.2414439482925226 -0.20157474495513025 0.2079289693079322 1.3945943797059273
Ni 5.382392672304528 2.8011874771538583 0.4831018633051366 -1.0405336769025175 0.3309572840167268 0.44198831715432907
Ni 1.5917244738097498 1.1560013182810012 7.047272379514753 -0.7965560415011443 0.7132355869049329 1.4220082529425058
Ni 6.994943549280072 0.7887868787884537 9.118624930583751 -1.599627001302671 -0.4121655773659418 1.148929329299802
Ni 2.658864659348969 1.6564784558026133 9.282227293485805 0.04048510459823996 0.004046916375863998 0.3796084693655269
Ni 6.443922960733379 1.63554329857329 2.527116361654545 -0.7329325511132281 1.1964510290298491 0.5905991083179183
Ni 4.172005259420423 7.037901404374009 10.410376696097044 -0.21420477501431498 -0.33881354683635195 -0.43574490734777854
Ni 8.13081630296959 7.334555301165109 0.3579821257828022 -0.4070172003957829 0.17039369136663557 -0.4086213116581091
Ni 7.5574014401745595 3.750537949052595 8.379400903680892 -0.323159642349179 0.40303404737831877 -0.7251601062566608
Ni 3.007502998506909 8.26567134174549 12.571741360413505 0.47303464493717245 0.7475636707628416 -0.3289870476642334
Ni 0.0004114528736845372 4.8590318672486985 10.227288323862188 -0.3577564064874419 0.6256478723919353 -0.08326029078223725
Ni 8.627577676653962 2.4292395170462133 5.85700628095123 -0.10666401441815823 -0.4681958287876324 0.5294569895909591
Ni 3.6303737716917297 2.587775753155544 11.497630945685941 -0.541183533999268 0.35089001838491185 0.11433927157522888
Ni 1.1899960259724263 3.2904357576161063 12.696943569767349 -0.35096226638374395 -0.24818216040102417 -0.2748689256635911
Ni 3.236013411658493 8.448296602926485 8.086006003660211 0.3462964854769584 -0.5145620747569977 0.3462674320112359
Ni 5.743963682183786 7.470833205605514 3.553700344336093 -1.1637167720216215 1.3855551523217946 0.3015469491754097
Ni 3.362421884833646 8.231712885408575 3.6531432474592416 -0.2866006122782226 0.010899677631639293 0.7273473437159667
Ni 3.224576109310698 4.404294876279638 9.332805183297673 -0.07664098569350672 -0.08484486166053774 0.021968276740975068
Ni 7.269801319172244 6.408260690734511 11.39887772458234 0.37591842210844933 -1.0022278393437838 -0.3247059037903762
Ni 0.7216756524685998 9.09591798840277 0.4402128857847687 0.1191012117402465 0.040703905477265385 0.7591092095085958
Ni 4.4901290209198645 -0.10357102611793523 1.5605809351505087 -0.12424778893819248 1.3201249477424426 0.008422933956372591
Ni 6.004058087951903 5.812125291500557 0.20327675156127895 0.22417217063967199 -1.0438087481093636 -0.19128904675840605
Ni 7.608978054803165 9.032949385619506 11.523165493518679 0.5824425406490549 0.2796956576282731 -0.6520435887766448
Ni 0.23805086337466153 4.738931129758225 5.5377333515138325 -0.6657781647539179 1.1302569497012793 0.928746225214865
Ni 7.956084774233073 -0.16423132390279674 2.2853334213331147 0.2373192495445913 -0.40223314874357824 1.2258863035718308
P 8.528611478842617 1.4725572086978997 3.6403428941818836 0.2958743242706646 0.44836773831811166 0.2963993435361992
P 1.8444145404192709 3.1811107352536268 1.55625705484137 0.1054010885453346 -0.5534939759355049 0.7984684280325087
P 4.6204254518661765 1.2114749535193943 8.255763846558002 0.6115042339017017 -1.0991455730084554 0.11670262960108288
P 8.547734068346456 1.6441348695920772 12.629056564460988 -0.48706309800578057 0.16710653597493155 -1.3733118161780673
P 6.210935505299854 7.753738776198829 1.4101495956256733 0.7356185825858235 -0.7288825494135704 -0.6592915285883097
P 1.7555171563229794 3.280946965573205 6.078070665886532 0.2251867279471154 -0.9456064913053134 0.24271753774202712
P 6.995795456111049 4.020066769831849 5.975431299579495 -0.13669604200387428 -0.20635982504859943 0.36785107171928255
P 2.508412475295291 8.593655471671557 10.371219795523444 -0.5051299828098204 0.7216811465691249 0.13243675250688805
