# total energy = -340888.63579361007 ev
CRYSTAL
PRIMVEC
9.09036510033677 0.00000000000000 0.00000000000000

0.00000000000000 9.09036510033677 0.00000000000000

0.00000000000000 0.00000000000000 13.30466819253111

PRIMCOORD
 96 1
Ni 5.3597700122862655 2.8892088372737375 9.543770419516418 -0.4625298887511067 0.49924061390857893 -0.1964857604679971
Ni 4.499912402235286 0.4556627188461188 6.162495588365267 -0.387342604784991 0.43924417875028865 0.029188705748814246
Ni 2.689348075939761 1.7518587501700444 4.815225342197579 1.3056059281906611 0.11418500538555174 0.412617834412012
Ni 3.487236668888324 3.059380467045958 2.792543715656652 0.18849168651892698 -0.7093416511671654 0.2842357115904718
Ni 4.9177055702017 2.762852766021928 0.7604908320039631 0.9009140334939452 1.0331641239113238 -0.19121834142147065
Ni 5.375287265065174 4.706354587712163 2.9063914448910158 -0.34546550493523087 -1.0298813393949942 0.3608386449571915
Ni 5.0456160938408505 4.380774080665056 11.724991644982529 -0.2860018023519591 0.4832388391636838 0.33640853693928513
Ni 5.415048520867722 7.895209121149453 12.789670628459723 1.0877427304881524 0.616593475499151 -0.6920759221081823
Ni 2.186578177465297 5.694313619063896 11.600951798691508 0.24245862765368564 -0.5593838590573785 0.7369015630633051
Ni 0.8520489866549141 7.811368686246184 11.772847870673546 -0.4590000212209772 -1.3001731872108642 0.2691867876771493
Ni 7.887355045929197 9.090364838259639 7.040231218943652 0.13522948476067675 0.6402617656503683 0.5255764235896303
Ni 8.566214401685588 2.720500756240477 1.5955753797977172 0.34483198511629 -0.2527947194723711 -0.9695838280565171
Ni 1.2080913062750294 1.5478709631994982 2.817104063376662 -0.08836315922644136 -0.5288257837648634 1.3417026739132183
Ni 1.776520909976243 6.573824597895194 0.8317574742629511 -0.8169484891145673 1.0442352941238209 -1.0790899399091611
Ni 7.790869913535909 4.2940429097432204 3.542181561080217 0.5794868004548408 -0.4497031693000836 0.8088029771892974
Ni 7.6538781154233355 4.233155646056558 12.637677910291053 0.438199025315226 -1.30847502220834 0.3741605588770782
Ni 7.108574399870655 1.0188571814369787 9.402236166094166 -0.34126792191411554 -0.6928894191484131 -0.6515267970412263
Ni 6.705789424252209 0.6196329017256785 0.4739107172224412 0.8047750869768269 1.3999430456123503 -0.42570500661327326
Ni 1.8906686212502692 6.714443451578232 9.434193343683068 0.19637751702490694 0.39639365924366576 0.12192788255576421
Ni 8.86737818877713 5.205770141561309 1.45847086116115 0.06310669865249777 -0.01737294406080879 0.6573457177158486
Ni 6.607677116552872 2.158961649086664 7.412229855964363 -0.09867971066110102 0.07157205581103158 -1.0694117933894485
Ni 3.313983405435934 4.5489367398080205 0.4848682429984794 -0.44738789090334563 -0.6655922739953569 -0.2927265226703023
Ni 6.364891652452634 5.785071821609081 4.949841827977915 -1.067309659444781 0.020357994831061713 1.216847333298014
Ni 6.391926397481617 2.1900143353741592 11.541027204641217 1.5219753149564628 0.5057475617891612 0.7934079827904659
P 0.07723264870233772 5.826687511838634 12.721737422986923 0.8252503241120432 1.2041558538732746 -1.1756780581485557
P 3.990688344725658 6.260661529217149 12.606931569298608 0.028661629600750638 -0.32667074082623093 -0.11040265552498406
P 2.3168067441382045 8.860724041715523 1.4778424286314813 -0.34328212413066683 -1.4463887386693994 -0.0495785822590759
P 5.982096389113521 7.971477282142451 6.057455513622693 2.3369311991210333 -0.018110079337149452 -0.791938854444107
P 4.858600018023335 1.21315463948994 12.609725038413405 -0.548595510192623 -1.549380703552609 1.4795035189454973
P 4.40676343373764 6.3378569074236495 8.311865084474599 -0.30592399519718283 -0.6443271939689935 -0.38988234048770914
P 4.765160157850864 1.4688847831198604 3.723444344991598 -0.8193727822853436 -0.18311525269836207 1.441081467523873
P 0.0608709010299542 6.194538215383648 3.6798187750963063 -0.08043567684924857 -1.9245540199649178 0.6037037640206764
Ni 0.5643871184576393 0.46505215668755717 5.086360927118897 0.6164752047537319 -2.4855934123478485 -1.0828517209444384
Ni 1.9312752809827751 6.479421159049868 4.95078631688461 0.21356534165810317 0.3112623766909607 -1.2433646628622523
Ni 8.61379337124904 7.3382697386038 9.71340571776318 -0.7179605031844281 0.18340938690001318 -0.018337879077239386
Ni 8.76568427733152 2.424200314337404 10.436061542273823 0.8942193950825891 1.4095494583538628 -0.3069429233800004
Ni 3.8575599516693453 4.591906894398474 5.11669547458417 -1.4901167756849691 0.30407614335516664 -0.3772484537737826
Ni 1.9826358423189419 1.3692998363167257 7.128228677687456 -0.189989354110376 -0.0794422025877277 0.39080099564723664
Ni 1.4817840108253508 0.966805752373104 11.671027603156682 -0.28586270567093347 1.1771749544090564 0.09545837551032592
Ni 3.946536442706231 7.045332731690882 1.668711001067451 0.460721117677142 1.5976878752984291 -0.2758801405369249
Ni 5.713667005804552 8.258205569870837 8.332713836231147 -0.6265302749968888 0.4655211101689466 -0.25660715123992583
Ni 6.772003641734091 0.8404796793252611 5.072657202125221 -0.19717121657079592 0.6084559339936811 -0.5463691919652655
Ni 0.664853830650085 7.587927518521762 7.1445404283532294 0.7050044572443923 1.3608208827999078 -1.109681953763405
Ni 5.473399572764511 4.4609965503626965 7.649838357289213 -0.06650955368645965 1.600249208267702 0.0889390863345694
Ni 0.6021075873539977 0.29821214562855897 9.202372677650738 -0.34258715494617126 -0.7528673423639421 -0.09172179128602913
Ni 4.7375072680128785 0.6849008122278989 10.524604422907924 -0.33605706713713734 -1.801247511894072 -0.2234005825809701
Ni 8.055172271208308 7.741563774653189 4.828184566311002 -0.17228319507986456 -0.25694936507069294 0.7056963411050943
Ni 7.444890627791747 6.633839186557384 7.064645211789765 0.10775236238633056 -0.6437826343194333 -0.09784461635431536
Ni 2.6319151508916367 5.225314425963567 2.683298438139899 -1.684436638849899 0.14512154706340813 0.49609486919074564
Ni 3.614047258382046 4.697973271331287 9.655064665267714 -0.2622149843450065 -0.04296519070761632 -0.14412267348524857
Ni 1.2226449803810833 3.548705715924636 4.231323028505164 -0.6879426166660991 0.900767737724068 -0.8018046914945933
Ni 0.3650408717735085 0.4940658741418305 0.8270113947808956 -0.7706105252799761 -0.41451428010377644 -1.538939453614627
Ni 2.4646615282324977 5.713667005804552 7.184094423837465 -0.4431039188160111 -0.2710582936682493 1.197908330301666
Ni 5.380105158429452 3.024827990295733 5.2951111562282085 0.7197595040663797 -1.2018683433906785 -0.31756569320116923
Ni 4.181885988368773 6.738851081168959 6.109011517802882 0.7304745764910386 1.4295212734900993 -0.7405371029333634
Ni 0.7068394987285548 7.9983665813340235 2.891729595443387 1.2662947892958645 0.02946355667675571 -0.5357685336312836
P 0.28445660555530444 5.862094482883655 8.198721858515201 -0.623433638349436 -1.117298332658082 0.909845274545304
P 8.938837546770689 1.9355932042809485 8.225717514975381 -1.1722865159685036 0.656728910067456 -0.9165036604020861
P 1.8958864906674302 3.5602777503637406 10.623870297905235 -0.4172712740236233 0.5203912798442651 -0.0156562184800182
P 4.124643960982252 6.275478823903511 3.671955609511212 0.6424484888890418 1.4367758981699836 2.0042222225205224
P 6.860198361394887 4.219620092812389 10.497529680273653 0.3249342177510985 -0.043526976748357295 -0.06249349054853108
P 6.430642261327765 8.060762845583838 10.475536451583965 0.08093755618633158 -0.507966423817351 -0.36175781433735116
P 2.409919351176498 8.476583404380348 5.795952079283994 -0.3964664214631301 0.7593346952558407 -0.16718264062850563
P 6.823955076784745 4.0237227305478935 1.4165215545420333 -0.3537051192362038 -0.29655026729176664 0.25932506439172115
Ni 2.39094775975905 1.8340720097672647 0.861953848182682 1.4170668497768304 0.33992503473297586 -1.8990332499859943
Ni 1.3211754448629793 3.816726032815883 8.221220511489893 -1.3918245302702739 -0.4576247381400054 1.4868666441787877
Ni 8.012611183035576 0.11164331576108576 11.35722366375754 0.49405624149416205 -0.4793770422154325 1.2219766841047792
Ni 2.828167037384824 1.917585191536356 9.494131573280617 -0.6699688057964979 -0.4102061396467258 0.10135931437579317
Ni 6.527609183057482 2.06673989780252 2.611679998761671 -0.9181527659697348 0.8934444645897774 0.7224861589689234
Ni 4.2199018941223745 7.156017013961533 10.264750889787368 0.3093430481810608 0.546160161278253 1.1457375618353818
Ni 6.771503671667987 6.121278965152114 11.563685848037062 0.4992598971822886 1.4327271820219065 0.7524137997662913
Ni 7.832512874859976 4.114826366956931 8.522105224380901 1.0778632665909114 -0.597296574942752 -0.5061373410284122
Ni 3.1749462752347526 8.29438522192711 12.426346926604161 -1.1842570580668186 0.7958482168008423 0.23059247234371902
Ni 9.29698883103328 4.973965838185689 10.52213002559895 -1.219347216901732 -0.10460327523438759 -0.2610795851889826
Ni 9.178359569893992 2.292317301263933 6.0847702418886955 -1.571400659467126 2.9541669361898735 1.0365410108033568
Ni 3.377152350697 2.6594225948922103 11.919066389096953 -0.06175147017618397 0.16559189910261804 0.07337157091361557
Ni 1.016702764970311 3.2605320601869674 12.826511150039737 -0.22228112426454621 0.8453375817802217 -0.9600440068868821
Ni 2.9558412115381807 8.44591251341606 7.917288708305101 1.1913823562576902 -0.6361860529190979 0.7381246368371289
Ni 5.396540538057026 8.39571551877919 3.6180842894067173 1.1661984007928947 -0.8889149521505401 0.21960512009427985
Ni 3.0738977796926585 8.631919558736529 3.6074412902540827 -0.8484661001068743 -0.2482515801863789 0.5648119720514854
Ni 3.6195742002037083 3.241360480743078 7.615073166001773 -0.09751320115682562 -1.099036558234417 -0.875672228208021
Ni 6.642729563369201 6.0721091817419675 9.198314738786939 -1.6268812090329337 0.1894548217631447 0.17893643873032408
Ni 7.92280746879841 0.16383110029753434 2.758922092265865 -0.7072441452081885 0.12430718142121817 0.1016778740574765
Ni 4.316005231192456 0.6417043075529729 1.7177926079386667 0.9528600875439331 -0.6310559307813842 -0.7411107160486462
Ni 5.605182591824761 5.666169849524644 0.655988906859814 1.298005490135584 -0.02234160091999378 -0.41814930575320247
Ni 8.150357481429724 7.555783988453676 0.4431171063328367 0.0037445546440967765 -0.34242388989542966 -0.1979273780105301
Ni 0.14482405645721727 5.151937000989135 5.995828294238195 -1.0304456965388964 -0.5788126572059515 -0.020838791122222176
Ni 7.113528648707506 6.557252862795046 2.8755914707460244 0.3651892086164033 0.007875803203650953 -1.0662930452548087
P 8.39231572232968 2.080002740101541 3.991453753445039 0.017643681223692195 -0.17335431665685627 -0.8278311974653421
P 1.4835202705094583 3.6161653133893608 1.690237894040934 0.6535739093782421 0.2830769153956802 0.6296662495227091
P 4.622068724931819 1.2241358002145577 8.344022250089942 0.2902754900266485 0.15920630729124838 -1.3272109080549463
P 8.423113878401704 1.8916231095582865 12.499057118799463 -0.11679004710856661 -0.5459668143205243 2.0039918516772715
P 6.256325425189299 7.911917211722174 1.5233442498293899 -0.6373736454692958 0.2655157665834653 0.25575971563796596
P 2.0475592279937924 3.784864304057783 6.208676459816593 0.31053089784157484 -0.8404085199097203 -1.3306824115433147
P 7.0312244854619035 4.131807168474801 6.336853331145506 1.3847133731467896 0.21543761898015157 -1.5235128346469116
P 2.4065013739973122 8.84826115152227 10.086175217722177 1.2438112634813674 -1.0042512975317157 1.867761950676538
