# total energy = -340861.0868703511 ev
CRYSTAL
PRIMVEC
9.33872121026501 0.00000000000000 0.00000000000000

0.00000000000000 9.33872121026501 0.00000000000000

0.00000000000000 0.00000000000000 13.66816246363169

PRIMCOORD
 96 1
Ni 1.2463923891320121 6.318728001835279 6.871696081123785 0.6338435208288503 -1.4658015959783723 0.23381175061196507
Ni 0.4318103155385934 2.4805230376808725 9.530126421911534 1.5924973322364253 0.07775221647981448 -1.6063476078559562
Ni 2.3619212818499316 1.080686124922231 7.703170967010321 -0.6674846059220634 1.733951457750575 1.3064266243197435
Ni 3.241320615813099 6.668379052234198 0.9668928764989555 0.32611306855054806 -0.7085924317059666 0.45673873599062625
Ni 5.717202309190982 2.496893815473915 5.536877211234921 0.534455471246815 1.038276762547541 0.15131276347578454
Ni 8.905469651391831 1.5395068230112048 3.287424947180168 -2.942012560215527 2.9390727608609124 -1.605807676192086
Ni 7.793891037627966 9.049949002924153 11.906335946786768 1.0748545616715748 1.1922179647851079 0.8531131119605824
Ni 7.3738914024515285 3.2474654941860726 1.6747735263445331 0.6711934222322182 -2.3719925616005404 -1.1413263201415633
Ni 3.0856441378838246 2.7987679695869208 6.066845888613154 -0.6531465920328364 -1.213559920795994 -1.1921955961876047
Ni 5.0841771108444975 0.17268135487357078 4.8423836178447495 0.41316547938536585 0.8839992600164776 0.5027607112466954
Ni 5.7998406507144455 5.007179356763702 5.836810779138346 0.44380814397188734 0.37593976226468806 0.3100537010948402
Ni 7.0402002261246635 4.482147127269895 9.124208644027812 0.3781709655880519 -1.0152664176952968 0.22782930777628504
Ni 5.2246408123762444 2.6721816073594873 9.912424706815129 -0.6234274677018489 2.0523162498142717 -0.38581176996276134
Ni 2.956181449609468 4.15601097617667 2.216429612968627 -1.3795320860561662 -0.3206368759273252 -1.2490791967485262
Ni 7.598637060390696 8.366326614570422 4.680456733995974 -1.3264367488930835 -0.04636136087335887 -1.519952628099479
Ni 7.084988731712475 9.393072287391902 2.3323763704387233 -0.03006262371333532 -0.14886970125193072 -1.1766820739330381
Ni 1.6020295596480671 8.13566954628157 1.7807287862899417 -0.07145892727193501 2.108959452229613 -0.980208397649899
Ni 6.586357066292217 3.817715810430541 3.6758877217706925 -1.1632040940512611 -0.5023333939012896 0.21460843821063688
Ni 1.5936340495305856 7.808104570885815 9.02683660249061 0.2272469529102538 3.1024321710885863 0.5962419084259925
Ni 2.3569530823143365 0.6203366782167592 11.122329779395402 0.2516685762877278 -0.011945345287334267 -0.8455990629717243
Ni 4.359875254112847 6.272361252410033 12.72616638154373 -0.6218277273148968 -0.9450259362114952 -1.2581729315196784
Ni 7.2944095486029354 4.585087848098594 11.697869547175513 0.6425629029797191 -0.22975583537503658 -0.7252066432238801
Ni 5.653456200112084 6.074501772032856 8.130697611257602 -0.09064038529639229 0.6670223215736641 0.16407777645093677
Ni 8.554585889829944 4.934692204892854 2.3373380328696665 1.3460776630524622 1.6952221595011772 0.11446268452697062
P 9.07425769350903 3.8733839259036316 13.422312928538789 -0.30765049096998626 -2.222886833078404 -0.17365539283704287
P 6.805004539463069 1.3337561234468511 4.006357039376166 -1.0580670578005908 0.9866572385990361 -0.876404221278039
P 3.0448712822965893 2.250472986252573 9.374377101958993 0.10086386279661338 0.3487094657938253 0.2817862216087147
P 1.1433769585358617 6.166871060767017 0.8878574135108909 0.4592401622562413 -0.16601304580043666 0.26599167777861926
P 3.600805339352961 5.039369927814825 5.642245065633734 0.14711132379992728 0.37206305291810116 3.235735899581459
P 2.820835367148221 7.828192159609622 11.605445159987855 -0.5305103705561379 0.01580945622843084 1.2703964701690638
P 7.131037964626047 6.730136013754671 1.623107986662714 -1.118011813785339 -0.8352822544267485 -0.05004857991695897
P 6.268709812525789 2.9667155268202783 7.756094432401621 -0.37343165113085364 -1.1585413984682693 -0.1565974089134916
Ni 6.2592123333383825 4.539972487278178 0.10451149368938803 -0.9558487378586119 0.8143807283873911 0.5500150162479689
Ni 8.389794820271458 2.7676420127219976 7.293631633149336 0.29881695183875634 0.07044205597164642 1.5471068199167677
Ni 0.17713779250211606 5.896785912705076 4.724906244013969 -1.3882437548975513 -0.9765471467482277 -0.45992998923441436
Ni 0.1932031941206962 6.41419774591872 11.084742361517927 0.2685787217795052 -0.5261688057579906 0.8893497256951135
Ni 0.7786420060882709 2.223325324504499 5.470230495434677 0.3312832998975778 0.43955965310817846 -0.14523159027871116
Ni 1.8843297546885018 8.540325662967437 6.708976339867919 -0.5963658355983665 1.4651552206436251 0.7917665905323009
Ni 2.07880861808845 4.27109203421641 4.424370328610458 -0.5156103135158538 -0.3654182939080739 0.5023423927623543
Ni 8.635991520190442 5.823056710950329 13.535950220322507 -0.20244146383079975 1.345359039718883 -0.2323588202155224
Ni 1.8294834466573902 6.180925835769029 2.977472799461354 0.2284733691181872 -0.24640604233720795 0.6074444620100313
Ni 4.640345059850694 1.2522757833189013 2.8194681784038393 0.20073527977297043 1.1549030303847336 -0.29912985509348483
Ni 9.098921255489307 5.480092184738415 8.807640946401074 -0.18042253635754735 -2.372796802669391 -0.6726854333967125
Ni 6.340169705094164 8.358724895732124 6.675366283235198 -0.642922600311983 0.3544368551959057 0.473043643798237
Ni 2.0121021344742447 4.51738212134471 13.275543722634046 -0.07569996193647609 -0.10794956599880119 0.8784942710378484
Ni 4.539916454952588 1.4076347447365027 12.088696885905911 0.7813785624297576 -0.9281201615950919 0.323521653674288
Ni 8.635188390190326 7.463356348975971 9.29437788297079 -2.8788238433721838 2.302215907127035 -0.7210594538247259
Ni 1.828680316657275 0.9025957828850949 13.490872214385819 -1.1630344012426161 -1.7514611844995642 -0.8213702723313466
Ni 7.567212264455963 2.3293291457987517 10.185596302144953 0.07905422312068966 -0.1658585225004434 0.8752994182496345
Ni 4.36238737004344 5.111941128174056 3.7538651076772096 1.238711480360957 1.6010999863037716 -0.6024747767095818
Ni 9.078320037114263 7.8914433164791475 6.312585925078586 -2.5265832244966484 0.7158992497800251 1.312263542716495
Ni 3.7036339955304807 7.596881380855562 5.861605083211664 2.041415286631052 -1.047374611083751 -2.215585414320984
Ni 7.509601695029106 2.035084726686839 12.789504388517917 0.9839280125933312 1.6730962741364153 -0.42558750719880256
Ni 0.4477739250990195 2.315974774866606 1.1049565267512889 -0.8799150626447748 1.2351903545815759 -0.24796515929421162
Ni 3.038819791132932 8.796113229283144 3.6808082938295366 -0.14072213244413181 -3.2526018220988626 -1.2421989246889251
Ni 8.014107415915321 1.1506985157462126 5.662842548520405 0.047797836209569296 -0.5047124356564275 1.0632167203223302
P 5.329206470647035 7.677269090634518 4.055808368325109 0.4144399752224152 -2.713828697313301 -0.3415761971831537
P 6.6155405692033735 0.28483379002916953 13.599547843738593 -2.3058277928480093 -0.37911893132361807 0.8258843581516163
P 9.216981365506216 0.5618706819525712 7.506391042772832 2.003550393264478 0.10414664731294322 0.04713809113838333
P 1.399304605665542 7.545957335615709 4.94505911899899 1.5474053249937931 -0.7777355663605315 -1.8874871970196072
P 0.4617119660893879 3.5036733029437 3.3459936693746037 -0.10096722114369708 -0.3856618746484584 0.015072063841774043
P 1.8485344373577932 5.856592057815598 9.131931766238221 -0.4262783626182401 -3.6859977695984907 0.17942700521349744
P 5.027350993975893 4.014239853714503 1.972589072340678 1.273696481076574 -0.717874371228525 -0.5933651010988297
P 3.4147126473495626 0.17620205266477273 1.4093101112716262 -0.8469108398046123 0.1585730445826237 0.036056636513241126
Ni 7.3737419829166235 0.6178404381117505 8.532637094024475 -1.039408562159139 0.09373959304700631 -0.37986377990944253
Ni 0.5226798056911437 3.836467962061134 11.34244249788042 -0.20803567008912557 0.37549367586620497 0.5427246532341428
Ni 5.07848049107624 7.992124066842406 1.9117108844598654 0.3949960075651907 -0.3637365353302767 0.401506812100515
Ni 1.1515670167928487 4.097149018144984 7.480325738780728 0.9053332456075633 -1.1726338720055933 -0.4579564104478113
Ni 0.607660298424246 8.41359921992603 12.43180803003645 1.574231958268334 -0.527879360691194 -0.4524773896111111
Ni 8.079908043599165 4.092694448260625 5.432082754301306 0.4809140476852491 0.3273225154776169 -0.19510224985690916
Ni 8.125714469768518 8.100135713136947 0.28656238727360317 1.478507473580815 1.0188749609821612 1.7784287142273436
Ni 1.932013263765099 1.5639649331309873 2.707731316329695 1.1419518695407043 -0.05784313626071329 0.564413451061486
Ni 4.491084283201408 7.426991369668437 10.365305044519532 0.6793291639654752 -0.3867229689231211 -0.8524608230885642
Ni 4.236464057002148 3.815157000895291 7.608218588066487 1.370682606085336 -0.24291422713386554 -0.30230748149051806
Ni 5.578036689868723 2.154032015192248 0.6841911164584635 -0.6698898729294462 -0.5142172898230692 -0.25177990505461156
Ni 5.122437850501141 0.4462003506220499 9.949219267285516 -0.7251894168326994 -1.2064346226051224 -1.0093479953283329
Ni 3.139911445217179 2.3807761594107717 0.6659638009442248 1.5823859548340362 1.2007740818852353 0.0049740561758236925
Ni 2.524246929082484 5.552513965562742 11.13722877476963 -0.589218683030624 0.7404262883871119 0.7863071100796264
Ni 3.127332188122354 3.1618014070807794 11.382544833304767 -1.8685047423798335 0.5183243700129074 -0.7718644522917352
Ni 8.906842443368772 7.403747293269759 2.7510181555917095 -0.21542244947149997 0.42250244051557556 0.11514376975439523
Ni 4.798458943943108 0.9296164380285 6.917073860002377 -0.36764718323859263 0.4598207173500597 2.796751145140145
Ni 0.1046272938289395 0.17632065442060368 9.985166805767408 -0.2726456927600272 0.12607610039618286 -0.14706838637713382
Ni 7.07918938601397 6.11657270982958 3.850102494621227 -0.8271799370345884 0.4933070220329633 0.3092322336348094
Ni 0.509459912340413 9.328831226103633 4.212021822707949 2.0546508114847195 -2.5961079108603484 1.5750272004761194
Ni 4.288312635614226 8.662373406822127 13.381240300009651 0.4455960891102455 -0.2863571288088487 -1.3627708074374272
Ni 3.9811434267330195 4.976679094201194 9.407809722894015 0.19719409938893134 0.03995777133986021 2.2829655435378555
Ni 3.3771896666465135 6.665708178047769 7.909150465237497 0.7387144479023278 -1.7281425643782817 -0.3136301055921889
Ni 6.547648068030859 6.852221112493088 12.896266513951815 -0.3998098840140663 0.22432797949124592 -0.6871255200814425
P 3.049139077762317 1.1571235557471329 4.65212305468959 -0.37318611077895086 3.2545599742664986 1.675123074758457
P 3.8151943557790173 8.6347961639112 7.9556358164185745 0.9499161744242608 1.708439943743032 0.5560468242643456
P 9.253626506441698 0.15045146356806116 1.5315315553356441 0.7473330428092742 0.8296829059621001 0.25422630971257504
P 7.377991100940489 6.563617280823843 7.038570619322105 1.3515479421384142 -1.1422611732510068 -0.5182400378292172
P 6.907412953198667 8.63924139507463 10.227844675639377 -1.3419001346360049 -1.08435453074221 -2.8669756857843463
P 6.159549503556666 5.933076182245157 10.432306631715175 -0.8811522774859857 0.3472503647497955 0.4110975411127436
P 4.775887255451503 3.4761053987537047 12.55359148808878 1.1963481849033977 0.6775777284920073 0.980228195144241
P 0.14144613497374803 1.5553639711530112 11.68231497359189 0.2909419199660538 -0.3052164276071969 0.2830846287051641
