# total energy = -340862.50018445816 ev
CRYSTAL
PRIMVEC
9.39160455585069 0.00000000000000 0.00000000000000
0.00000000000000 9.39160455585069 0.00000000000000
0.00000000000000 0.00000000000000 13.74556258542686
PRIMCOORD
 96 1
Ni 7.6183660647287015 6.120301878267913 5.358776133895913 -0.26272277721936044 0.4945516930733418 -0.2660600691227096
Ni 3.1142277964393537 3.206359434189605 12.420050078213484 -2.6874795178958104 -1.1848689806192043 0.23004868402510703
Ni 4.389372864282408 0.5754545850522395 8.795289978621987 -1.1019010242664056 1.2594248016489082 -1.2836700473495182
Ni 1.5504505550001253 4.192909894853508 4.246265476952053 -0.44728376122531355 0.038735468896984905 1.9461551431744613
Ni 7.81446276159162 3.7647372652233653 0.22490732123870455 -0.04553809364111512 -0.21062168564874695 -0.37784983480320733
Ni 0.676531725856223 7.014110246904933 8.35407147151999 -2.1372554709608287 1.3902433018260831 -1.0295820629870203
Ni 3.672032739613505 6.501986066831416 1.5004102092039082 0.6703138478407423 0.8893078167135845 -0.6768315943546022
Ni 3.6231306562531014 3.2967254503397494 3.3532159499389094 -0.3531114515162629 -1.1127042855294966 1.1043335449672982
Ni 1.833814038608747 2.0851051936835145 5.292192477202951 1.6162175586715006 -0.5138236539290764 -0.8539677466513936
Ni 8.616609072691183 9.00680205471052 9.41492642673562 0.7211062479022613 -2.151509923997314 -0.22425753126462666
Ni 6.457948834475562 1.343638037681238 12.196973180644251 -0.15949967016195113 0.06808281171085048 -0.9462973467247511
Ni 1.9634087857357312 5.156047086107486 13.649741659778895 -0.13156694830742502 1.3012715624813656 1.6891558987024393
Ni 9.30048691139636 3.314184442651443 5.629412115416956 -0.8788706805406605 1.7684078396562317 -0.7009873656651993
Ni 5.143124238651384 3.1706807296214907 13.289511651977541 2.99908462263817 -0.41497605023154344 0.8851773394849788
Ni 6.240091790551752 7.21229187991266 12.532708945385828 0.40904220124561164 0.8728460716131355 1.0594405411093497
Ni 1.1451652649415784 2.76556448843955 7.401724294395602 -0.6166878349851702 0.9551990200897551 1.8578341500398647
Ni 2.433768501683319 6.413573504366496 4.869090374710561 -0.7970702621334015 1.5288635574358638 -0.6831341395338623
Ni 6.08856764748727 1.4370281504017781 6.346518389139888 0.04618729718933982 -0.10104692534169693 1.0917402816833197
Ni 8.721682341106048 5.404689808782093 10.705057677489792 2.1399972953720243 -0.5089393292535817 -0.13037575621280129
Ni 1.0060756059118923 0.04885324701827288 4.578687883712152 -0.22922798789602458 -1.25617312748083 -1.6362019722132273
Ni 0.3747071657618042 0.43144278623204296 6.78346277714503 -0.045109747854444895 -0.8902668381927442 0.602091425228234
Ni 6.237912938364386 0.7960192284830219 0.7548811843609602 -0.07160702281402506 0.342406663504249 0.6626578739573813
Ni 1.993452527750314 5.232025164537611 2.4635483396183107 -0.4282874226284688 0.6640352139208822 -1.3084518822798885
Ni 0.9851041536084968 4.772709975194947 9.045047484721769 -0.008142169491160171 -0.6528928241508176 -0.14884501866158237
P 0.5057491591046208 2.916863233001889 9.780765100598591 0.10344884991497022 -0.5818666135409268 0.16312801094315776
P 1.595812003556059 1.566247233358527 13.368879160383619 0.08454789924540923 -0.7728399288311271 -1.2910861373079312
P 6.20602844191565 4.780204475391145 4.090871992934147 0.6409629054824509 -0.6474297441537172 1.1002172088060793
P 1.8045967577686823 8.393990485409638 9.925835333218426 -0.07812374088662029 0.27440304177076613 -0.001498181812081291
P 3.455546869911054 4.425718372752691 7.762050096560367 -1.0697354952774543 0.5297853194646553 0.7971054862467112
P 9.441849338655972 4.308163662281753 1.720270482315499 -1.0000169477353937 1.2329918042683603 -0.16132078253108992
P 3.6277701087555094 4.349524287424679 1.148691812339664 0.8936403826506675 -1.3623293490246344 0.44810702845755734
P 6.911150089447644 7.662797744463302 3.6749169012804876 0.8099522603023923 -0.2632583380078563 0.47208513653970957
Ni 3.800077872038268 8.978711766381162 10.908945649243398 -0.9930747120896058 -0.49209988909873964 0.8425811020810069
Ni 5.812614139636544 4.372514934643091 1.9077193899795983 -0.3571974486601784 0.13225883216812706 -0.15155933226895188
Ni 2.571261587989504 7.926297985070723 13.659170830451806 -0.38602208620135453 0.6854013383014841 -0.4209978309455911
Ni 8.915628360594368 8.515339403999954 13.612560298529841 -0.1903778477980463 -0.635714255489002 -1.1956264762460247
Ni 9.455936745039802 2.37517428273084 3.4220676790596682 -0.7370339748761113 -0.8761219141509297 -0.7797541394524571
Ni 4.774334722731215 6.713560127508037 5.541564927528241 -0.7081936536056513 -2.1232774115141817 2.3261405362634324
Ni 4.6295349683139495 7.569304324095947 3.509805924339015 -0.4573138917678059 3.221784322497374 0.38796789707381574
Ni 9.15179903281716 5.8816142561045455 12.944526096204344 -2.638862271108739 0.724938734274474 2.928626625826924
Ni 7.053611334405193 3.728025484187103 6.297048113722004 -0.8049535215362201 1.058335223860313 0.8209709800103989
Ni 8.636096651522148 1.5308784517308567 13.577399071356224 0.3925886836752787 -0.6599391894746377 -0.017183967978454277
Ni 8.458595331085885 4.49723543916127 3.546382466273993 -0.5696970680579286 0.0982354240348308 2.138874751731807
Ni 4.13856068102469 5.121899213033081 12.861736287207425 1.628215868683957 3.4288033783965273 -0.7167711108620172
Ni 6.568750981486517 5.669833580134295 10.653071391291757 0.596662798013495 0.15660512222297546 -1.048622624558239
Ni 4.080483000306285 1.083960180005963 12.913158137989681 -0.3496443189032688 -1.0898476926462972 0.3215017950307818
Ni 5.059642268420806 4.029852861762799 10.714927314402306 -0.9689983878666925 -1.1537874287230518 0.43856720728792215
Ni 1.2101551663923162 0.06705887186830978 11.857554028713517 1.3682827383945917 2.6879148056610163 0.6628869592490519
Ni 2.865087318739184 7.080771853913219 7.439771561557052 1.482182608439557 1.2904461897310873 -1.9894124112011997
Ni 1.5683509527118458 1.1173567247398972 9.07055883852246 0.285241784257483 -1.2572478486022476 0.6508516253510727
Ni 2.7140233642832423 3.1811617599710607 10.184815394697488 0.19426124201285255 -0.13026956965224015 -1.6623716886300592
Ni 7.431482531640806 9.043617143393597 7.235402739665546 0.62525706471142 -0.040120522169969614 0.8020103797474962
Ni 0.40138026100894875 3.4637645236349552 12.441231902452211 0.10647272434295857 -0.3194364278613208 -0.9572515317434094
Ni 0.29187885118743456 7.658289774420477 11.344652223807614 -1.426667606091388 -3.0608767162443025 -0.7966488583252667
Ni 4.731246042405206 4.229433843804653 5.931264850324143 -0.818975546846925 -1.0124276626949211 -1.363060570763704
Ni 4.184222660916813 5.515473172584536 3.655288448385684 0.04980098268252713 -2.6851544693070597 -0.22624036602261036
P 2.455547631952721 0.0650791216911688 7.315814594464876 1.2534061062586543 -0.4064158193663582 -0.2515220234075346
P 7.045262198221709 3.3682519083525846 11.593213239525197 0.712233885113296 0.3611872865458618 -0.04482152719006474
P 1.9000718066340294 1.5519062536597876 2.9077082971732504 2.5100877979447866 0.15154853363567447 0.8114126468980026
P 4.661832695349945 8.62725915191736 0.4528500089729118 -0.031636653068674546 -0.2831455638500866 -0.5370797962435396
P 4.4284607211954095 2.0253651990118176 5.238048939507338 -0.9524492252587597 0.0976173308348577 -1.5602502992772613
P 6.785715823006017 5.617606868867307 0.1974133997795954 -1.0110007004404071 0.6338090680464891 -0.7897768137957818
P 5.8458134606811045 7.5465766417967 7.298769771900867 -0.39168699779661575 -0.10060083894321385 0.5276716155557621
P 7.361599604372751 1.4671188504376398 2.5820346972314323 0.47852009353177594 -1.1671170559524222 -1.0674631543035098
Ni 4.762651567036891 7.779169112797998 9.229856412429537 0.43486070497061236 -1.6029072147158394 -1.1857485550106805
Ni 7.71497749770901 3.7674702220618284 9.344632147201159 -0.5902607511418931 -0.9340365270795268 0.24632376703604675
Ni 9.332446540679143 7.152326486738821 3.7720984046391295 0.04887924219920614 0.23297485653296648 0.6540698751780543
Ni 5.938348937414359 8.571059792050132 5.409002433456396 -0.7582062380783523 1.084984451016725 -0.32529802884842035
Ni 5.362624813319975 5.464561285913373 7.815602902348285 0.9158526570816484 0.7217762773860925 1.0192187174748253
Ni 3.310211794051203 9.437435284655704 5.228632917080384 1.064093980720961 -0.16772411495427245 0.3109741560265806
Ni 8.599722968239098 4.989787515965518 7.518341722761802 -0.32343860704217847 1.2649611580861053 -0.16798919569020102
Ni 7.881359158706304 0.18838149396670892 4.825310472311318 1.3764493333657843 0.019989041527417185 -0.9048113116658222
Ni 7.864623319922313 6.029691680407115 1.949629423971494 0.8808799976612054 -0.41375477622993256 0.2534230970849894
Ni 5.447477957771914 0.5667119406504343 3.4370914283878107 0.2749828255336361 0.7978732176506711 0.20803232765501592
Ni 1.123696057612621 0.27114124983001053 1.4156275017838882 -0.6444056126154127 -0.24685958493485874 -0.6427079131980157
Ni 6.552672555000438 0.7008118403389676 9.546567604429963 -0.6829881008743012 0.3344724962588369 0.1824681060326664
Ni 0.5081299307834881 6.990678194286494 1.4722870502596546 0.14152251685824013 0.1364499874313392 -1.5369895289771078
Ni 3.4414218971102 2.2951765976791947 7.2213275423672485 0.14522413407954343 -0.8566900306785633 -0.40579078418784953
Ni 7.893784251136842 8.672207369886035 1.9872784871124938 0.5499939332020464 0.9617710168803179 0.6657789360848663
Ni 1.5892003141599147 3.1657595289914053 0.9582141123030412 0.9443649055887283 -1.6060246772988986 1.3582245828276414
Ni 5.3070359077293805 3.068518858525952 8.469108292889924 0.23325202145375312 -0.3508347396669442 0.1396893203042433
Ni 5.956671957317594 7.1967487748691665 1.7401741092150003 -0.5909521207819629 0.7836293061371472 -2.410371418489055
Ni 1.5187351074279947 5.257157097526365 6.67235728131661 -0.025363161355136964 -0.8476009238931015 -0.042065561711482395
Ni 7.21726943016828 2.4485696699905963 4.400545116705211 -0.7429562538978172 0.9094896909780982 -0.3838834425917969
Ni 8.510108280429424 1.5330479123139664 10.567533598889565 0.06504993842179764 1.646432905912616 1.8227607033754993
Ni 4.219647792170019 2.07785487519797 1.5439017893524951 -0.21095901438350764 -0.40376038402138203 -0.8777357956052689
Ni 2.495865789023244 6.326024969493118 9.476341883606569 2.345232262787561 0.07525258998641234 2.927997476883357
Ni 3.425456169875192 9.14953565619149 2.181475262434448 -0.3009499390213591 0.8195722998906595 0.43630052274093245
P 4.401140544415035 1.7105398411459745 10.689249729206285 0.38734440455720387 0.6506395093402666 0.025436694905549742
P 2.0660120622312967 7.567444786453281 2.7105832196443105 -0.07251410800932673 -0.3200244391543069 1.4016865106660181
P 0.1595746262326268 7.499665578538545 5.962179194053246 0.12463653973617889 -0.1495186476898393 0.2440653100191732
P 7.802366375310038 9.083822601213049 11.67695160055196 0.3658314701860925 -0.675805724193249 0.04577849178669535
P 7.8495591866958705 6.721148543746795 9.16171938439265 1.0114776400768257 0.1501511390675156 -0.7250284657748031
P 4.808754952329041 6.608223894174009 11.03470392603185 -2.441090444839467 0.012795609102771511 0.5942989257670088
P 8.272913923342744 1.9555855793905774 6.806101239203846 -1.5015504714432075 -0.6413336585583084 0.4843392713167142
P 1.3746397233299208 5.5356839049432045 11.786242638438141 1.1010152792273424 0.39336772793314834 -3.884957188417961
