# total energy = -340874.5706064397 ev
CRYSTAL
PRIMVEC
9.16485938215086 0.00000000000000 0.00000000000000

0.00000000000000 9.16485938215086 0.00000000000000

0.00000000000000 0.00000000000000 13.41369810396055

PRIMCOORD
 96 1
Ni 0.6585024676051611 1.5163534542785424 7.726356673044091 -0.711192074112343 -1.6573271842276167 -0.09865785628423009
Ni 3.567989676778831 0.9783945471614647 1.8302856258771945 0.2580819360132394 1.062690415505215 1.2514374125680576
Ni 4.334025270708332 8.28734228897802 0.6464690074353984 2.834897317192563 -1.3096834406941444 0.8452144259387959
Ni 6.198395924550008 1.1765846280229386 0.3099087983964237 -0.4271216844551418 -1.6307802869770236 0.14614047524622573
Ni 8.553572284767384 3.4931311065833848 8.602016814174352 -1.2325323481334387 0.8028760701819011 -0.7956785239921974
Ni 2.182977820133851 0.9352005656077015 5.239524360521543 -0.9537558598853253 1.853679504441543 -1.4618451824337857
Ni 1.4286274217233503 2.267056238715269 1.0469229490863432 -0.5238725535246461 -0.27319719438812307 -0.2062839775053415
Ni 8.024164191312446 1.2930241645475642 11.23301969428144 -0.15456906562955317 1.1016729674159993 0.07882153828459328
Ni 6.6151129089056315 1.8073743942866465 2.473284817607892 -1.434870967837787 0.8127262235031036 0.88581548728961
Ni 6.7871373166637765 8.075689029906814 1.535734382093468 0.8552921218897722 1.4514898073413904 0.6270241839141717
Ni 3.1747530617719746 2.8199721960966673 11.624163055440029 -0.5741620458078176 0.6475878669981364 -1.2733552956870715
Ni 7.671097154313258 5.587979640355898 1.2557351017960694 1.1065531783264362 -0.17541711272315594 2.0890596279818925
Ni 2.472129128858915 7.575058594435921 13.089904491103571 -1.6129000642624933 -0.5334373143949458 0.4887129749043777
Ni 8.634213881137331 3.930203243290146 10.983363429924673 -0.9891990311842835 0.31875097175852196 0.955594969976593
Ni 0.9303706847931813 7.890888808381229 8.448564077161071 -0.5578370833955489 0.23552770486180727 0.6327765130169166
Ni 5.19455972816443 6.926094912317957 3.1532385547281687 1.1337423371467186 0.5046967519271437 -1.207657953489262
Ni 3.5855403822054077 5.326881965735665 3.6661379872510484 0.3724422906343908 0.00911584625833914 0.4153383186669686
Ni 7.160907770664863 3.2808179776475743 4.231135978556131 1.4861472495142598 1.3474488323683762 -0.47928191139846493
Ni 0.7475903982420186 9.122270129743855 3.3658321283564354 2.0041425183225225 -0.4895840646554213 1.7290720181710866
Ni 8.526370982570997 0.7744416028157964 1.7057929275466508 0.385085176209382 0.7634667151463432 -1.9397320132569367
Ni 4.261998642015137 2.534074412398462 9.173842625606223 0.7050615357345728 0.9079925376072814 1.3033793528529873
Ni 5.7304290473769335 7.3828073423558696 7.501248484136455 -0.4968060363251573 -0.7992837248449525 1.1838024870279031
Ni 4.0540846455100095 5.832268963147231 1.0691633129812121 -2.3153789268715546 1.040084505180241 1.8518020849131722
Ni 1.5436097456303124 3.610826228822601 7.158514825919756 0.14629422721527063 0.5946501384588404 -0.2295069525890241
P 4.660889975167268 8.049523356803483 10.874122890325676 -1.9082917924697842 0.3177364144510786 -1.8537424964689944
P 2.5551260940511233 1.438992877513146 8.666938843991993 -0.32477738045826 -0.8145496498650874 0.8380978694986727
P 7.627637391841807 6.918139814505807 3.5006802011316207 -0.03093088525090157 -0.553052260412396 -0.5134847825324189
P 8.540851460155327 0.32500515452104894 9.22631694361688 1.2703864428667349 -0.20353366845371398 0.0071425245820522145
P 2.2857250569679777 8.021038974314814 5.176466463071402 0.5931560704118172 -1.9905717216166237 -1.3406328378878072
P 8.183880193123908 3.180261142169558 1.5744999036670106 -0.49346900153212436 -0.13541691818113452 0.23801061918466104
P 3.170555556244365 4.626521753052561 9.954144239414058 1.5119004472189639 -0.5500538399057043 -0.1582100048162501
P 5.787645263553497 9.367769213953627 6.946980710018545 -1.2394637851459493 0.6798775802697775 -0.14807163083066754
Ni 1.7171280254430425 4.219464530325977 2.666160196601548 -1.1116195371057502 -0.5351933778541041 0.8071150479639133
Ni 5.9830767217865635 5.602020204697159 4.796295271383673 -0.7034373698675885 -0.7167690539794882 0.12331396427001343
Ni 1.3953498178570838 5.398303713719641 9.04206661364513 -1.0434230826351707 0.10146164428161236 -0.15209849260187355
Ni 2.614248600947649 4.259991537843639 -0.014009403819877428 0.46468473031058033 -0.16034941975675612 1.355851968830407
Ni 3.794994075061275 4.438413017344733 7.545004271561053 -1.0630511412787433 -1.2886657007918967 -0.5507354393537612
Ni 6.602181292531272 1.3506711291079654 5.379482758803704 1.6670485252804388 -0.1510818784119011 1.392969956728627
Ni 5.665761800645901 4.3980143178563 0.5374695036341645 0.8013709463912844 -0.8226121151582477 0.18259100476377588
Ni 3.243764451778305 0.7477205392430929 13.021320183537386 0.032276857755834734 1.2602930631864748 -0.5769362661188452
Ni 3.767976070049501 6.519165997620602 8.554250484350447 -0.26626730003750915 0.592443874836141 1.27619122247397
Ni 6.639674731643608 1.4395610987854421 8.552855592775552 0.4396776667432815 0.8620088717883154 0.2049122939687955
Ni 6.971405976353986 7.597246718633176 5.500890565517232 0.13467155537467773 -0.08211846386831019 -1.1810460073286884
Ni 5.171830877272571 1.0285813163081667 11.599011932253525 0.17706107608448216 -0.0822866140150583 -1.4250809783305587
Ni 0.2309159602020592 4.358440455698619 13.53147015829109 -0.4654005254306824 -0.9153682612460623 0.150117971836735
Ni 7.5946988877670725 0.011303937375007731 3.7118385578043775 -0.8203379744120904 -0.9595783801043731 0.32493627463362745
Ni 5.337073289200079 4.1735119261438065 11.344782403140696 -0.5919458521537999 -1.6588559621673171 0.22980417211446874
Ni 5.246946063526473 3.3937107136499622 5.730318152580243 -0.6228098887225081 0.822492558861248 1.6743694844218842
Ni 3.0942672680089474 8.065140276932405 2.965929911231172 -1.2478270695089801 -0.7626802146893058 0.41265511540785066
Ni 1.8231104575855668 5.285392647998791 11.53477451742041 -1.1736227182814238 0.09602556086770558 -0.779169984814213
Ni 4.583016166284957 9.249817475655954 8.788158771091293 -1.6411444038201672 -0.1724084078038192 0.7093485931457009
Ni 7.861240488770275 8.682714316185605 7.242390701112178 -0.799074951268256 2.0278717436186624 2.945066516550502
Ni 9.271629840624755 2.33701160922235 3.5660311463612544 0.08788827647255186 0.6486674732155603 -0.2932307160002305
Ni 3.900252483324583 3.434439348070697 1.8736922321651073 0.6988078415153772 -0.30438776105831444 0.5918316951734387
Ni 8.652030367481595 2.9344321230274857 6.073280015791784 0.5991325997102263 -0.3319628424631057 -0.5538364468765882
Ni 6.2973855690995935 7.8372743818822865 12.027968586111601 1.1028430764647006 1.0733388963579966 2.2675440667764626
P 0.6902715356420727 4.380170336934344 4.711279287702965 2.6950131072686943 -1.7808218970498686 -0.25070801214667143
P 5.292202138407118 3.870805790616702 3.672053903884393 -1.9003391132816112 -0.3375130828573736 -2.1516819307988038
P 6.772207760977148 2.8588953532489763 10.22536908348409 -0.36963670286479566 0.8770045738661995 0.7002121780620715
P 0.8993008955155637 2.6678905220242832 12.25958290858703 0.7940016505104067 -0.6503052659292994 -1.0285993873587769
P -0.3285299593811332 6.0623344244126915 11.084878909678208 1.2712665314788427 0.21243662737029864 -0.7303115685506132
P 5.062732392991646 -0.11686570247884799 3.005821794004154 1.289703912248424 0.6464498967389511 -0.33053356621574687
P 2.3042289077545353 2.140892786546989 3.1521653497122664 0.8960579909532245 -0.1496394895384197 1.0819124969596206
P 4.493301359276728 6.016024390720529 6.325685737917727 -0.5253792199771596 0.2671545877384689 -0.11240863021141931
Ni 3.709825038231417 1.9371213064140864 6.877095908927539 0.5336478877438551 -0.07637590495757814 -0.08751572362448154
Ni 5.881099333127806 6.1145466274493545 10.350733359927464 -0.8746036777341905 2.6023204674289633 0.4173370942645522
Ni 8.25398220137868 5.457059626246942 5.21755252700213 -0.04165212832314762 1.535432468902633 -0.019704420407462838
Ni 6.6799634528212755 8.4108387671102 9.591598904998595 -0.9024029593346459 -0.022720067305335063 0.48888266771302247
Ni 1.3140666813409954 6.421294465897148 3.9304818550107554 0.08629007874749656 -0.36424869908000496 0.36365374580848336
Ni 2.0628173507616063 6.217477161468093 6.787934659416837 -0.03849249964824339 0.40735427202022745 -0.9754652265379586
Ni 2.7329885171391526 8.913677933655665 7.068039335595388 0.36067743678897884 -1.3123954403086688 1.9485203009725278
Ni 0.18266389283893436 7.893583276995022 5.9649642104891525 2.5077133841753394 -1.544761459613043 -1.7900992085867362
Ni 7.788389022746328 6.394019844826918 9.179288384961039 1.4860302643204213 -0.39609875371106623 -0.23867036425584703
Ni 2.568094369862406 7.545767704334962 10.591187189130796 -0.10066743051509114 -0.1757978931013424 -0.14594944228134218
Ni 6.91912961930271 5.425175080983726 7.113284412644956 -0.009007602815249002 -0.8210357718100634 -0.28322475382745416
Ni 7.16725901811166 5.68598864496781 12.389092450860398 0.17214795505358094 -1.8165162651276845 -1.0918079016964617
Ni 4.021787681581416 6.0873728198306605 12.147712970874776 0.9930510579405218 0.3069406093871553 -0.971066840359947
Ni 7.09933824635377 3.007485215954506 12.794011511928485 0.9254994361427931 0.9752682800358041 -0.5217526789681659
Ni 2.785530655108116 3.2877191166482076 5.045159691902916 -0.11542736243308509 0.9059580236757558 -0.40885862447989585
Ni 8.620851516379133 8.232719727963715 11.100693790766512 0.7856800180185888 -1.2383985771062285 -0.484640604607217
Ni 5.672635445068844 4.52682641434222 8.877721441436297 0.8441574454291914 -1.4837792635027154 -0.011267859604335432
Ni 2.2664421931468195 0.7494893570745966 10.959071970534 0.5868640667555184 -0.270327843260128 -2.6094326529937124
Ni 0.9374551209784263 0.23791791265422876 12.677741525299625 -0.9062971521827294 0.729287498161473 1.167532803333602
Ni 4.715191766108504 8.390822714550595 5.29466840202607 -1.044187214494705 -0.7686958247557664 -0.08143429331709201
Ni 4.605451741681438 1.4684029107841041 4.46367595181385 -1.886408876353764 0.8388080081918199 -1.856988771320434
Ni 1.105126220602041 2.7607305460301435 9.957994396776826 1.9003568538934237 -0.8046359902958014 -0.0928636181999562
Ni 0.20240866556531398 6.652734656047197 13.095109214660622 0.23777279214224212 1.1425002858450066 -0.2504555298162332
Ni 0.10757895062049276 7.350666181034196 2.005012750622439 -0.05236205854148402 -0.4284239482063331 -0.40792274292918773
P 1.7595246642437445 5.866673844698861 1.382750885872794 -0.4323482229614038 1.411643364768414 -0.9248237502320072
P 6.834592957759763 3.2066009475982695 7.195590347451178 -0.41373137919116487 0.13161682770875396 0.03893344384040392
P 1.5657795401091057 9.173657495449765 1.3867348501803307 0.812621322494123 -0.7240974693201013 -1.1055527620863799
P 5.95217281646102 6.5278176247342765 0.5137930062978624 -1.7780942137060602 0.5363619442409086 -0.9246409447972397
P 8.985631243475012 6.095584533701268 7.381598497423354 1.2159541320597833 0.19152455980797983 0.09178066954842258
P 8.035794397676062 9.138959338402756 13.183518945714415 -1.3745320617384136 -0.6613057308048611 -0.9551296003044003
P 4.589468227183292 2.720780924644009 13.19838159792866 0.21835762084042395 -0.9244493976117241 0.2953513618876591
P 9.050472622531426 0.7728542491970586 5.226352624835341 -1.1848486689042304 1.1578140333839415 1.2518089369748635
