# total energy = -381173.88944223453 ev
CRYSTAL
PRIMVEC
9.19372368434006 0.00000000000000 0.00000000000000
0.00000000000000 9.19372368434006 0.00000000000000
0.00000000000000 0.00000000000000 13.45594392786717
PRIMCOORD
 96 1
Ni 2.5227761791227983 8.879289185285163 4.351477701438546 0.9079624557002942 1.5567057764591123 -1.1690068167759673
Ni 6.977181295214851 1.6687252131691523 4.421973336260005 -0.1255330834085193 -1.0098637586224866 0.22917990826690854
Ni 9.26148147448974 2.663127565594065 4.493087708688532 -0.30142199356177124 0.04698125384554489 1.147261711789392
Ni 7.748746171857596 1.1969860548285796 8.561963213861803 -1.226240858697772 -0.7450277917148653 0.7432064222354103
Ni 3.8026528471064243 7.166719103644803 4.904637396509645 1.0351001645917723 -1.647548250463982 1.2947756703443767
Ni 5.23742537250312 1.974885407121705 1.3157616104488856 -0.09910419979302931 1.185925704018493 -0.0347541156517337
Ni 0.3259910560394465 2.7103097557794804 1.0561115454770416 1.8594004660857202 -1.1091726182271542 -0.6771678946480982
Ni 7.381079966147361 6.10407173996768 12.397969971290454 -0.8624544439661662 0.47725665343831997 -1.4713641776678146
Ni 5.2074814143125705 9.148214798128805 5.21756876798978 0.0903796754358379 0.2507123830220456 0.49783859135472963
Ni 0.42470406773484765 4.670889728776379 5.942279670384293 0.8677709710830732 -0.37555203990796615 1.7488952235446011
Ni 0.2890460772280494 8.978323977311137 7.771265278763317 0.2525219254269586 -2.615627726060831 -0.721791446894744
Ni 1.0933084323186568 1.3870846804060974 2.8735709824150177 0.693620897997799 -0.5491403269524994 1.3885522872769054
Ni 3.5884850528022083 4.3514997663755 1.2496523012192944 -0.3362295881592597 -0.5749953403423904 -1.2870801014723319
Ni 4.463828682915913 3.374409195735298 3.2784598173933137 0.2680408469981642 0.5357441081512515 0.11801260666175803
Ni 3.3789049266395588 5.644597009083722 9.095693812573034 -0.2840953293578656 1.8118839085619955 0.3920410387019248
Ni 4.09448921948671 0.1453058841896849 10.525481500963 1.1544314900649537 -0.035056477383500914 -0.5329629458616886
Ni 4.5979743058690286 3.8059717813731693 7.624837760278499 0.6660458165930078 1.098756565100153 0.4862624564813562
Ni 1.1197955503865018 8.172392961363425 2.5099371439330223 0.34272933695099034 -0.3505814860055575 0.31091167821976134
Ni 5.603997525089414 4.526548266206034 12.918285088334 -0.35225450283260623 -0.3969189356195164 2.1791685662548472
Ni 3.43375468241629 0.44892769102022007 6.950829324885846 -2.315302307997348 0.7600535756997362 -0.695502431291228
Ni 7.075388652105069 3.663698906642208 11.4239353944183 0.883418190702027 -0.2398445870696063 0.4529479014896264
Ni 0.4700695781110969 0.3178114000363359 5.04537308063285 -1.3854898463014977 0.029964921793206457 0.7236521542525667
Ni 2.431932994940787 7.985778757079804 8.662708038501666 0.310763068457039 -0.13412365329100773 0.10827018256301353
Ni 7.69674647043735 5.403712253618396 2.0620961510577582 -0.43796119827280705 -2.2422271852782285 -0.8028961247865591
P 6.543899483239358 0.2481762977560613 0.958258146950451 1.2068136032110959 -0.3095723905830475 0.4276515888166828
Ni 5.5785676852505865 7.744204472334682 12.299082278844173 -0.34609079722405556 -0.7672583209782915 0.4617271903441532
P 2.1132969178858168 1.6267374768915237 13.16573967877721 -1.5884938675039868 -0.9987280537206413 -0.46468395897963194
Ni 3.171457744382408 5.775175467229366 12.467457054618666 -1.1025124325981595 -0.2945275804347831 1.17854149573928
P 6.549047968528492 5.409770917556859 6.580736895483107 -0.625794939492761 -1.9858275220634187 0.11679210399109563
P 5.978264824438216 3.9972931722068563 1.505262643983915 0.1491034145292916 0.4890263923797385 1.0038242372966262
P 6.520988723702715 7.137400318667934 10.499780446274123 1.165515001572625 -0.8739112796528562 -0.6516980325117679
Ni 7.315390810092259 9.027013938188368 6.666666953703489 -0.45404987630455346 0.4314791900928892 0.7695928826487392
Ni 8.195551951440795 5.413080658099872 9.878196462338067 -0.1192444221863301 0.03583166498662862 1.2492200932017647
Ni 6.142363599305611 8.301022350078183 3.1812003334197194 -0.4062839217741841 0.4994619858907656 -1.5685986712419564
Ni 1.4743423123331771 4.258312182642186 11.331439178709529 -1.2499240612473248 -1.5741232006046115 0.7220763251250144
Ni 8.309269120264528 4.268489634811956 0.015137466122425083 0.40300062303722206 1.4037120257364792 -0.711662328880542
Ni 4.844623526113438 4.942840076727387 5.2433507274474875 -0.8072230342966871 -0.1027119717489457 0.8239151502403875
Ni 4.339538731801996 8.90933427443675 1.1457402387542415 0.9728167331715181 0.47985835272722516 1.5095016079694843
Ni 4.343124284056928 1.0041293121318828 3.160128318629195 -0.5167418560171358 -0.5113227418840935 2.076333695774792
Ni 3.4502022541703252 8.584326946836477 12.702976352914817 -2.7775720011085325 0.8799009215773879 -1.6300914884401152
Ni 4.717731751183762 6.535441257407211 0.9312414703957237 -0.629734126646167 -0.31001359188552413 -0.27344607717413555
Ni 4.964620008245166 5.7060294710515596 11.146123128216669 0.7341283711935421 -0.14638318738465111 -2.826663873539177
Ni 0.9158355475403652 8.497096896080588 11.795951150825482 0.6101646891546717 0.37480950531498675 -0.03293865970954973
Ni 0.7530266521123731 5.673768694480901 2.0129685689309493 1.5736015237731866 1.58833163089451 -1.1284260671401274
Ni 5.661835241078588 5.933445421251563 8.517773580750697 -0.2414204161971584 -0.4894881625075053 1.363286570731581
Ni 2.664405493192618 3.0440787020950104 6.677687470339353 -0.7720966229071993 -1.5661432677229286 2.0602969540269034
Ni 1.2621971372496916 6.39118253835044 10.871608650717198 0.1930826483237191 0.9904434451143459 -0.8180147255955524
Ni 8.391736822127967 0.3586315334001788 2.5208234322024197 -2.543667947893077 -0.11720296627626912 -0.2659466834732968
Ni 7.629549543690429 6.863399770325004 7.7034606468778035 0.6289010892219105 0.9215859600209999 0.6507523807690471
Ni 4.912647887996112 2.4686251463495923 5.66289343867998 -1.2375087183021076 -0.7603909044344969 -1.300149018841148
Ni 3.615376694714199 3.174611191622002 12.62590077001937 -0.07768922445236298 -0.16721812185213136 0.26650229886645066
Ni 6.792341479611233 3.999986933259921 4.476940771700487 0.7973075749551881 0.2977113774794034 0.5422847374832467
Ni 4.64062399025526 7.713304366876152 7.3499730019048926 0.5127026529507557 -0.4164719180507795 -0.41828711688264736
Ni 2.4790784102312795 1.748600284940564 11.035744200479513 -1.5477241417857928 -0.3729595965904416 -0.06393845052517376
Ni 7.045619374665402 1.1091951869251255 10.95387868752043 -0.28691454397421556 1.1981934656422526 -1.048048240112008
Ni 0.5108106454508566 9.230866374466858 0.47729860308046396 0.5175844065230891 1.06497535488465 0.3585585906737631
P 5.442859129263271 0.8575648071634795 7.265200433502193 1.0993952271254162 0.8565092821263249 0.7950545172549534
Ni 1.5012523416926293 3.733801050087997 2.8789796500857268 1.0584293262360158 -0.6161419897840292 -0.649574815521178
P 4.951803957364716 2.426104174095589 11.090779669475603 1.0915790735151072 -0.2271299677164153 -0.758569792065358
Ni 8.961379944475649 7.106785218645053 5.822306172561889 0.026839231680031196 0.4038891962897625 0.15041416292091517
P 1.3307179602138182 4.818357057415127 13.537352750084988 0.35619137599316725 0.1781298836686287 -0.3076345501303863
P 1.8660041369802653 7.986927972546128 6.155354330936942 -0.2398397019735998 -1.2690440699062273 1.6585168336603437
P 2.6714386918465234 1.8537856781423043 4.68062312408996 0.31662852609888054 0.46451040951624517 -0.31316139348588645
Ni 3.3194031466551466 5.78295335750545 2.9203973754920587 -1.282467542400985 -0.5057748154826709 0.8084047133096143
Ni 9.330618276943817 6.7519258700915366 -0.12236018850286527 0.3065318039845108 0.07805509243221397 0.32012805461170674
Ni 1.0219927173404293 5.9081350998212345 8.073001452856706 -0.3724615739081005 0.14424660065762257 0.44561845770774866
Ni 7.174202794761507 2.309086458452573 13.407825134561753 -0.30291786138100735 -1.2075466247223785 0.614752051415038
Ni -0.21168640826932875 4.885094297975518 3.8655829666699764 -1.5119994346906733 -0.2687576705595307 0.46859409266731555
Ni 8.699653017313063 2.8856064861507402 9.682776509465283 1.516759317973162 0.7711764250857752 0.3520033060537486
Ni 1.7186195518550929 1.306235073919243 8.606422223078216 1.5461771090136467 1.51023308681887 0.8948277180905493
Ni 5.692009042362402 5.698545779934855 3.1110816412712157 -0.678483013915096 0.2888786096791219 -0.40904940033446324
Ni 8.372117415686878 7.167399439200866 3.3376122358759632 -0.07165818776693465 0.065774475292648 0.44643426874082465
Ni 6.855631073772651 2.7689105508382945 6.861616187921269 0.1490843883658981 -0.5399550609088055 -0.13492172371227085
Ni 3.255424023213934 5.787375538619867 6.848483872944486 -1.2925295546226774 0.1569437365093168 -0.7379451738364711
Ni 6.301212757922835 6.888802028992639 5.167001448726761 0.6803249522198412 0.9015041016694603 -0.08774403758520373
Ni 6.026770910840836 8.69776830394829 9.098895986548401 0.4170843548237978 0.15747929729781265 -0.2566511171039838
Ni 2.5821308595275214 4.1016970988914965 4.831464549337836 0.44660319021852113 1.5033363596990366 -1.5857016494708305
Ni 9.323447172433951 1.9224719881335812 7.033354947208788 -0.30084735200522383 2.173634009589863 -1.6277803238084354
Ni 6.925006913043723 7.197545659313489 1.1648677809757448 0.5396254454835288 1.913818892935601 -1.4321337714122822
Ni 4.120323583169682 1.893907088502622 9.017501192244321 0.731798694619101 -0.11653499367496704 -0.9528194641139849
Ni 6.40229775034073 3.6936152836615648 9.35274205372912 -1.157441223425555 -0.7815359139432282 -1.0290778696570924
Ni 8.087433760368995 4.507195477753131 7.789202233761708 0.8156621662029759 -0.6492742535616238 -0.15973466899089264
Ni 3.441394666836415 3.83640300692144 10.24655311670047 0.9713982555574369 -0.7718207435379933 0.22279843022059695
Ni 7.79297717672549 2.9764404766090213 2.50559127072557 -0.577377981641954 -0.2886898907070835 -0.049396291044940734
Ni 1.3973724572606334 6.442272061121359 4.354746989597146 1.3708975503096197 0.3520536996757098 0.13611085892436559
Ni 9.120192328197952 2.1494190584233253 12.154915497024707 1.2034976514639852 -0.6715292083050822 -0.9219040054820509
Ni 5.328268556685131 0.8007999987336651 12.657630149358402 -0.08070589979149971 1.5163908788901497 -0.865273144361884
Ni 8.576622606350238 7.718664307811089 9.767360606531506 -0.09740547193436773 0.9178933416607612 0.3524591626442446
P 3.987933961449111 7.749150695701743 2.8670443579386684 -0.20943229332633606 0.6663954866229426 -0.1170525567413339
Ni 2.3077349810641756 7.392268727927496 0.7335589421128377 -0.09248309493208588 -1.102662327912462 0.8884413549482312
P 1.1205402420086799 3.678280152478932 8.123662548101779 -0.606804257322871 0.03830892288252757 0.007423031936948507
Ni 2.7611234668384803 2.0299833934391622 1.655484412252349 1.5299171955113586 0.3761472502898038 -1.0843339619169197
P 0.4504032836789806 0.4343547195348535 10.106153922865804 -0.6876340842867449 1.34506104886249 -0.4205034078076758
P 3.426353734813161 7.418719071100418 10.95165840323949 -1.2412494162914625 -2.01621847565045 -1.4605750574721106
P 7.648985075656907 8.728971802289932 4.6703693640132276 0.005847717030028639 0.07945428677258574 -1.132881788918636
Ni 7.657112327434754 8.782911379417335 12.51023361239238 0.8833333442977046 -0.44657902184880516 1.125723837717616
