# total energy = -340892.9160687805 ev
CRYSTAL
PRIMVEC
9.08796997999209 0.00000000000000 0.00000000000000
0.00000000000000 9.08796997999209 0.00000000000000
0.00000000000000 0.00000000000000 13.30116269180680
PRIMCOORD
 96 1
Ni 6.508067832469759 1.7963735470014552 11.422292977316587 -0.2577003843041046 0.4193101588305231 -0.08141295316085333
Ni 4.592441945986084 0.4996511258442911 6.337232176503689 -0.25827785407412934 -1.0677706582415998 -1.362572318273376
Ni 2.8960996823774656 1.6263467203460018 4.702373663659666 0.04662207073391326 -0.7670842572942724 0.75182347448046
Ni 3.24652270920988 4.26303030529015 4.96165253274927 0.0016555333255519875 -0.04807834356446559 -0.31222499771454615
Ni 5.22306525714374 4.472389865163029 2.6882178263911753 -0.8005967872294212 -0.2643837098615511 -0.33344894009032894
Ni 7.318914672378513 6.119066373911845 2.703142090367528 0.166939414269448 -0.07925862582201189 -0.43606526680167484
Ni 4.915492007834468 4.696917246602423 11.352994481336266 1.1394257606847409 1.7625675788253712 -0.4656890032053786
Ni 5.892503287241234 7.789444307852676 12.366862022194804 -1.254386982114685 0.4462548057401669 0.8756711997667566
Ni 1.7549778446434676 6.739638390490371 0.12822034806330979 1.0994273659149323 0.29457411740200234 0.702846530361125
Ni 2.741313381046786 1.7020949484807608 0.33487805451993585 -0.09611169282360868 0.7208853901407068 0.8051918627992715
Ni 0.44079198075279985 9.38214736406492 4.951051415998318 0.7702994217974605 -0.8216921744471397 0.8503962272500515
Ni 8.684654771249729 2.4121562035047543 1.3779734149950542 0.11286680079476046 0.5266089786192027 -0.05124748532106658
Ni 6.859545063796911 0.6003503750161204 4.801453436616304 -0.9324491279877489 0.17527493071833686 0.4319723276792238
Ni 0.8718861889509985 7.4143747069708965 2.3442236293827 -0.29267201528328307 -0.5208378804633804 0.9634633169810761
Ni 7.530409905150213 3.862905171718805 3.907961508305068 1.5123992412322536 -0.14829068882000915 -0.041598906487709
Ni 7.669955681156119 3.7120357853642596 12.833520182541742 0.4172843866497458 -0.2158273982194025 -1.3658569025619185
Ni 7.839291822108123 8.798954167200643 6.841865327382591 -0.5485867684418745 0.7119973436224577 0.6185166606637928
Ni 6.9435542564637025 0.7187511717297472 0.42781435990379735 1.0795414256242828 -0.6129977877280927 -0.6781839946174385
Ni 2.028325799752919 6.444433868054693 9.278319126897074 -1.149255345180653 0.02036802213339073 -0.2878861638588655
Ni 0.26583856567840775 5.039579147240827 1.4617181477411838 -0.8665990622621591 -0.45981326115089194 0.00725462467988428
Ni 6.439262813248613 1.8958504642375764 7.197883817209914 -0.08188372214968478 0.5244690494580645 -1.8058479867805608
Ni 3.6457117818936573 4.283278301964924 0.41369529005014866 -0.6710039319292315 0.07330240823857699 0.12688779766420083
Ni 6.084068602280536 5.530038700447386 4.816390423750352 -0.5534384401072211 0.7822478524085883 0.35517681868572376
Ni 5.476801373463172 2.9360685734796457 9.229197741427225 -1.507799537676713 0.15725381155056786 -0.09553319461231934
P 0.1481339074500985 5.574978711020438 12.566831891688699 -0.5741880139497466 -0.2816293843158763 -0.15586335896094447
P 4.01886382115139 6.266018845290255 12.726153089940704 -0.21726335933498067 0.022547289172896653 -0.40453608584514206
P 2.3903178121180924 8.729994652493197 1.534341931864817 1.2917906195741238 -0.1224737277569052 -0.3148470087184255
P 6.288802385534268 7.555819868661285 5.780977539667853 0.3053532102953774 0.1600015494990341 0.6831714205297008
P 4.817941740192176 1.0663732862752826 12.663078944464221 -0.09428158159340536 -0.11622209042023855 -1.1128696074627673
P 4.045555188401755 6.224123304594246 8.241998847894598 0.4726834322453407 -0.8907556049037048 -0.7049129259718505
P 4.912602033443723 0.962897662334987 3.6832914457400934 -0.5382311362391633 -0.2149172277003073 0.44298384829837906
P 0.18822457734736014 5.726556959017995 3.7798174991879296 -0.02887991625914381 -1.3782089963693684 -1.0042453839944447
Ni 1.28381205128455 1.2488506315323704 2.651520604410593 0.838030506595847 -0.6952455780854155 0.051493282783285514
Ni 1.8791831276569948 6.522872135244988 4.783656465391792 -0.22327228453322193 0.5412285283045905 0.26928346115601365
Ni 6.033884833143148 5.638858050619624 9.249043141040648 -0.6670973977859737 0.040000451652337565 -0.1142996765865451
Ni 8.736074504277498 2.339452445247037 10.39602853687813 -0.045287925303522006 0.5407708719418816 -0.7367321273649764
Ni 2.151104271510639 5.403361489653096 6.999683375432617 0.9021839013453044 -0.4246850499891912 0.6180322648282066
Ni 0.6001104526138699 9.011730803711634 9.313407778226205 0.6847593338421111 1.53286316551356 -0.25680795439682225
Ni 1.6591179393806677 1.2998432299803766 11.428957185557884 -0.5963180130795667 -0.16629252471406847 0.4605321415947875
Ni 4.210956238438061 6.626902125341999 1.551620888811742 0.40865345044762524 0.8947228170815688 0.4461367921050639
Ni 5.712034383306015 7.8459533039584874 7.937149263129054 -0.40673720726151885 0.005484163043022814 0.0073034756399487115
Ni 5.222629034594194 2.869226555731457 4.711830605015038 -0.1255888763471192 -0.37515274758701844 0.2688944532477111
Ni 0.7562917573061194 7.7681602826227305 7.058221715190797 1.20460245449239 -0.9233193977723388 -0.15029897749928953
Ni 4.860309855316861 4.600030400754234 6.798317593780174 0.757000133585393 0.19968704101411416 1.0898582341692586
Ni 8.167867369584094 7.432523382625979 9.106773700491011 -0.8124017502841492 -1.5191931242256351 -0.6247739544274143
Ni 4.503779712790799 0.283242936608327 10.497117659953618 0.10770916785322095 0.4637419067813368 -0.40748385561955636
Ni 8.29300871348519 7.315043197251291 4.79749017299428 -0.5064803261901277 0.077457310947215 0.5946269985303888
Ni 7.213121616143753 5.897192679648857 7.194372225686066 -0.03416738991032826 0.4494416881085808 -1.1606054800861496
Ni 2.393616745149036 5.023048130206979 2.6418237406529697 0.016602384443371407 0.6319419329307633 0.24121292817204262
Ni 2.4981920134329805 5.266732951947281 11.43282775188813 -0.7942021965569871 -0.4860855645838597 0.4593280939843573
Ni 1.0205153907542277 3.1740279742571538 3.963427205479881 -0.17937506892963945 1.3433651492173055 0.14764431348526183
Ni 3.5793332506043614 2.5024360953212748 2.577579064668538 0.32932283373709736 0.7884251848638938 -0.24901416938401633
Ni 1.0214968914907068 3.3413920257664183 8.262602184187855 -0.6687148787847387 0.24456950334910135 -0.9747394041155278
Ni 3.6008717389882103 2.7149491807085813 7.224486122356413 -0.43496329198674766 0.1391031087834701 -0.5140221430931277
Ni 3.9960802809073783 6.710447831549898 5.979125271220413 0.6688259504413062 1.710843410978202 -0.09761064596663835
Ni 0.7591553765844953 7.078565135548283 11.163599373480956 -0.7175907785498351 1.0121222156393601 0.009368328588777413
P 0.17291225706130667 5.775177597352843 8.042042610355375 0.22488873709072235 0.06867853631332042 -0.1492815919783687
P 8.532467629276763 1.5936027652206823 8.238048307430269 0.868682170043433 0.21693760056444575 -1.2210266614866843
P 1.644995234339106 3.6113501681471036 10.265305361936798 1.062178508865803 -1.2223901174931142 1.6905100987374886
P 3.9956349703880494 5.9907078887078455 3.8343789433694115 0.28495202093120603 0.5556241349046301 -0.32312827489061124
P 6.757496251112423 3.931392111997574 10.505816664629153 2.095602828417049 0.42931149301760907 1.1225850349783182
P 6.319356139942073 7.718303680397501 10.199770194243293 -0.7159956661485734 0.6031718027766063 -0.21152105753456477
P 2.443627842860564 8.748161504087845 5.804041898178135 0.5581445873336388 -1.2939354338312685 -0.2624787795293544
P 7.050846827712529 4.150348567960471 1.6347131053275084 0.5098988649533736 -0.495863727016546 -0.3693184002934285
Ni 5.523940672723519 2.759171241668838 0.43692868479838043 -0.274518741413024 1.0227354723788322 0.2756258584342737
Ni 1.58157029322903 1.151282187950514 7.134078090165963 -0.683495636638339 0.03831123687537273 0.178912270360608
Ni 6.857545710444823 0.6647250089684377 9.084188277988252 -0.8170523616822831 -1.0610307684146048 1.9515989398978522
Ni 2.6365381774276337 1.7510700176371152 9.354481766453903 0.7475377026209127 -0.2436981564877416 -0.37220574914355253
Ni 6.583679741057786 2.0574981827538283 2.5975307935284118 -0.29777154129337746 -0.46887691401505704 0.27600509615056334
Ni 4.141605941029981 6.944563021109529 10.525103154100968 0.3299285856418963 0.2622782334827741 -0.008013614333095876
Ni 8.14598353834852 7.278282359482232 13.783994590184442 0.016472029513094212 -0.32683683409045 -0.6226173130957278
Ni 7.591290214721269 3.7420715254944787 8.319278398937659 0.40602912545090075 -0.1115514244174466 -0.3058358063587507
Ni 3.068307621780651 8.77785190136634 12.598062699845277 0.776862676837275 -1.971817838047888 -0.3481934453893552
Ni -0.14396616450797486 4.884756494031018 10.016773017114662 0.267974512536603 0.1160220585942905 0.5285594174773542
Ni 8.711964120445284 2.69023899087074 6.067444887954909 -0.7754303152661226 -2.0794904962362186 0.21667097716662037
Ni 3.9282658503924925 2.846024968877463 11.517835712433987 -1.5346467397765442 -2.4805139409424117 0.05756957088435246
Ni 1.020951613303774 3.4590630585065334 12.606163716109144 0.5519903948067849 0.19756228136162748 -0.1414006465683952
Ni 3.2468589640918215 8.171293534191989 8.211871319269576 -0.40343591080242774 2.291599307953453 -0.49634118087359685
Ni 5.649354655718081 7.7851911379946 3.666704992090573 -0.4014384207564248 0.18705366852081978 -0.22517644353447028
Ni 3.2300007801458133 8.154090007394256 3.560255784437537 -0.22650544675853895 0.8726753503632261 -0.004940117614094718
Ni 3.3599314841221357 4.398150240012118 9.132351791443057 0.7438178305671641 -0.8853498605071011 0.24896866085806155
Ni 7.3843753187198065 6.16102553039633 11.311162556428732 0.3820849559304775 -0.763981964219865 0.9555548607672769
Ni 0.5599334470036772 9.229560351421535 0.6203620844765569 -0.9528215209965138 0.047266646296447626 -1.5067862659208502
Ni 4.855393263664682 0.47809627911483443 1.4754182621878722 -1.5890811074660247 -1.100352448832363 0.9234111861551968
Ni 6.0952377171428775 5.375697709636034 0.003003574013021936 -0.7099299195704677 1.2345380657095577 1.6001800455926636
Ni 7.9679683862545 8.81782079246852 11.229267225533283 0.5956685524210257 0.1943574012710846 0.5943102386209184
Ni 0.10176163283937012 4.938075612743271 5.9759990096153315 -0.520519063671381 0.6193530405221591 -1.2025082909675224
Ni 7.891902079177364 8.788957400440205 2.719343214098282 0.48684686822991635 0.2301553848063004 -0.38008489478131313
P 8.473922927939736 1.6609264453673285 3.826917720178213 -0.4976598996850204 1.3557182714660199 -1.5064448234210315
P 1.7360476035871144 3.3250609440677783 1.5069680580838085 0.38460412280790535 -0.7761587087917148 -0.005135264344036317
P 4.630475099524652 1.2099722968040563 8.321872105513503 0.01677516257580982 -1.7913276816771988 1.2314871946983759
P 8.6838005020902 1.5443005291521679 12.411221311498771 -0.36728414347221905 -0.0896970475465165 1.1937829952793828
P 6.289420367479458 7.804330402355944 1.4914857927628276 0.3649876341285585 -0.08334642273814033 -0.4823749485014918
P 1.7709908473997296 3.1490451453258457 6.1099020651834595 0.05723507036306917 0.5736889628261411 -0.307763876619399
P 6.725279398234472 3.7170614326538245 5.997507507698898 0.6688858571449641 1.1568884362458784 0.792496783830106
P 2.35083058341437 8.485146570620772 10.36003563255567 0.9673616235942178 0.1590756952506551 0.6365076979245747
