# total energy = -340854.6603753749 ev
CRYSTAL
PRIMVEC
9.48988902153144 0.00000000000000 0.00000000000000

0.00000000000000 9.48988902153144 0.00000000000000

0.00000000000000 0.00000000000000 13.88941183568988

PRIMCOORD
 96 1
Ni 6.489622542806966 6.285950547922559 1.2260528352198097 1.4091172559124505 -0.897272580086616 -0.7959885990334484
Ni 2.2221428874353824 6.741360824807652 4.549934809660121 0.6343083762804108 0.5257026647548495 -0.2916325182751752
Ni 9.481120210657682 5.532073776250888 9.199915823721945 -0.8249831864935857 2.602327409407499 -1.1565441655325823
Ni 5.412634034958597 3.1272695078847863 10.832352271957133 1.3006735238860503 0.20965160842599379 -1.674603454809561
Ni 1.753048190802674 4.0623367277126405 9.191012409986014 0.8290804964914108 -0.762010699426107 0.19484745353362573
Ni 3.934972929215592 0.40827494786676477 0.24105741207978285 -0.2004948816273902 -1.6898264424069027 -0.25828556738361325
Ni 9.049263837942895 2.1560837710254317 2.820092244106297 -1.0265669303097804 1.5004266422514096 -0.6423669849188292
Ni 5.703992602983063 7.4500941951343815 7.4465165070311565 -0.6166186723101317 -0.5599363891267388 -0.23673663756824387
Ni 4.956227319742365 4.87016351759873 7.211049588483495 0.8017447847909354 -0.8118664466059695 0.6827253341312177
Ni 8.96993785689552 8.678427450649165 6.16576015642081 0.20549130640071708 -0.28314093586439626 0.17308615059713417
Ni 6.436536104479533 0.4755345352185141 12.382340565707384 -0.15306445605956864 -0.06065695156042456 1.4351730724592378
Ni 2.4506973709316124 6.609090753765863 0.37033721913927437 0.4051094418501088 0.7559585796947561 0.25589624121583027
Ni 1.4954261777038464 5.506147399863589 6.8339375376813765 0.6093699611675184 -0.6153269500819016 -0.26250346211970277
Ni 7.089440458595986 3.705526396165773 6.992971942297506 -0.5943292647843119 -1.0043867946683154 0.8624346464718244
Ni 1.9784805008613415 7.990287139165934 6.901579567554505 1.1289138054098236 -0.5295714036816362 -1.0502527039624945
Ni 7.25832252089041 7.565889819101372 4.444820055614032 0.5620611487792256 -0.7700446254741771 0.46109984117279945
Ni 7.585941954279397 2.261535416126333 9.216222299763782 -2.650964710799228 1.328395158171035 2.560299385802171
Ni 0.35894745451993476 7.5582979080069945 13.00473967205774 0.19410029095495604 0.07413287455967232 0.47736566821235854
Ni 2.0229216504300527 2.093260706719459 2.660558671335712 0.6477683584400586 -0.15507120207695227 0.6054274315800025
Ni 3.3373756474216796 2.5887657640717325 0.10969931935820552 0.3252928866420978 0.47703271035297196 1.2899507381519075
Ni 3.837208094097748 0.6730637250386844 6.586553216693316 0.5503112073321491 1.0415945140668643 0.023988392494797398
Ni 1.8173896373275222 4.512916651163936 13.59627576183168 0.1554131587974033 0.17927479590634932 -4.967519403146439
Ni 1.6393023828311655 0.7331935588839266 7.439571806357574 0.410274530990816 0.7165862485447207 1.5362575359070898
Ni 4.818614441267908 4.3458566475321625 4.306120584864192 -0.3128397484804096 -2.334861203965882 1.1192114905203951
P 7.717661611766843 1.2876071013841346 5.122470243942607 0.7341057454857228 -1.4530178139501426 1.229468107385818
P 5.739361418793993 5.119178201494307 9.329629318702702 1.2684987389257185 -0.49723746743562103 -2.422346074352428
P 3.1600001345904207 7.984593205845151 9.458841747551231 0.22664402921893226 0.6825435571377149 0.6896120339487221
P 0.7576243287856329 3.92174402413364 2.623848934227737 -0.8980999610839179 1.129148804238765 -0.05447961910511907
P 2.296742903826508 9.527943322332256 4.944421897990609 0.44311831699371423 -1.6869354940123527 -0.22787610185382046
P 5.43268617013662 5.708737547417049 13.144494418449698 0.0003548122362574534 -0.5041041126484673 1.2738294071100125
P 6.802627547339277 5.260311828738782 4.370081486845434 0.4060442949595523 2.0714480855477166 -0.09537867131232607
P 5.9939846270105415 8.423585974988654 2.9274295301252646 -0.30702185624705186 1.167064862558248 0.17850037963417
Ni 9.042620915735315 7.712072067223608 1.4374012012095205 -0.7932354617683436 -0.9091518480227051 -1.55853228814489
Ni 6.2920335666869285 8.630826168087419 0.6666457131972752 0.86370939941919 0.6005040261364561 0.033238964558787915
Ni 1.1374580797150864 8.694911387612832 2.812578150100637 2.4418414640728785 0.9651281062780089 -2.0438881736515766
Ni 9.536958716756828 5.594982249556672 4.512600637864633 -0.32477352380351804 -1.9082424272890877 0.6333686380749608
Ni 7.754757587351745 2.7141936252397145 11.827584438219041 1.2570822695586608 -1.3886646444850537 -2.9056039396795055
Ni 3.9449183327492268 1.870030050878161 4.31820406035978 -1.3496252711944048 0.9889642894656581 0.9467452328954469
Ni 4.297192497417204 8.568885663446167 4.965353745866694 0.5273893084286531 -0.4115024898606461 0.29635923432688316
Ni 0.9113178239468684 8.73688516607587 8.884445346061735 -0.03301707835596895 -1.6985342545935458 1.3095721119272608
Ni 3.5994199487329817 5.818298314397782 9.114412874010407 -0.8255264605915652 0.5581543575256517 -0.5631723795655333
Ni 4.585096745893729 7.425562832410675 1.6163662704261645 -1.4717246463310267 1.3892567695430977 -1.0085882343441726
Ni 8.93957021251801 0.6821531405964277 12.369201814569676 -0.8613599253504068 -1.496974422036751 -0.9748695019354888
Ni 7.42783091585012 5.664505175403432 10.700250171948307 -0.2546250878128905 -1.1424226385295357 -0.512537331017485
Ni 8.082452939851674 0.14506054325804163 2.366380657328571 -1.7239879187799596 -0.48137941735744194 0.022830624741270355
Ni 3.2001708341685444 -0.0003492279103413581 2.9918070382278112 2.050791071418997 -0.21579243121640898 -1.1266301515819694
Ni 1.6887257240555618 6.88879573826046 11.406317832492023 1.8973314368035388 -1.554763050910445 -1.6908394570524494
Ni 7.5792231129608725 7.478820088737732 9.200304909165533 1.9924005472952464 0.08135536045004053 -1.5659473496620386
Ni 0.7227281094403274 2.362147217904569 12.315824985642882 1.605383444170474 2.211257219259276 -0.4388585132760959
Ni 4.811772231394101 4.453538416517038 1.005581839061318 0.9576842484054539 0.872747341251742 -0.6075467919158505
Ni 0.8139041147171391 1.7186568335451444 9.466328320879175 -0.41190101085064545 1.3878763442558033 0.2955020285329104
Ni 5.663660575294182 7.846676650926918 10.15643778430251 -1.8119093624832925 0.10027662283457568 0.44050839017469295
Ni 9.387768173863444 5.350835878650364 0.5961415328415663 -0.15551677425480315 0.5539153797436396 0.7933174799591886
Ni 1.4474927490317215 1.7745617688663657 5.6223368542186005 -0.9391663921069244 1.2269211725942484 -1.4478059307319
Ni -0.19593678646812462 3.5709692619068027 6.232984631183748 0.8156894198964855 0.14190921077369753 0.21548929815369341
Ni 4.8203605808196155 6.519306915185982 3.9165919634672184 0.9665784655712903 1.1499194611272132 0.5326757536385729
P 3.8525532443972583 6.2086459132040615 6.114604910478009 -0.8813376540239145 1.805272573893065 -0.9518499011118641
P 9.326093386110497 7.595488782480576 10.611704763865697 -0.7652081233174821 0.15574688798773823 0.005793980973957763
P 5.018936505381923 2.7049694532600457 6.218789655415036 1.8669785355432944 -0.17998879125423842 -0.6756242043100623
P 0.03499681216730599 7.011082446213143 7.466211822387744 0.950158372342054 0.6802632457439705 0.46343491706387924
P 8.289237618284778 4.2651736123766675 13.095479142446626 0.5398241917578961 0.2386739638002728 -0.046434380203139385
P 9.11605367579568 3.5667557512494232 8.472041347548517 0.24470037250001078 -0.3246110300837248 -0.5766675858384908
P 8.079463624858263 8.55886434080159 13.338765729421494 -1.762507157901081 -0.46672695755158966 1.304875992003172
P 2.839564547074488 2.087604732954148 9.00622814091553 1.564858487473234 -0.31225842205564286 -0.3980795315865209
Ni 6.037951282135855 1.4585484695629085 3.723015312360558 1.2835111531741508 -1.0943147272787153 -1.0236021912545017
Ni 7.931146151740735 4.658842672286737 2.469606923489933 0.6326145335177557 -0.1598825074226666 0.5006349231529442
Ni 0.005052416833308127 4.455853949400822 11.172878903195448 0.9745157181404959 -0.6204956387670346 1.4053140801162765
Ni 7.513467672994697 3.3190981214619657 4.623410274220391 0.20669946777620532 0.09413554293384434 -0.6196849699402812
Ni 3.1078911548163877 2.832276312423886 11.698273314526284 -2.044157111042247 -1.2417019304478485 -1.6160180410661844
Ni 8.160640134234894 1.9834911621836304 0.30044323863777606 -0.41180973668841975 1.219434634409216 0.5040161809203513
Ni 7.816830950437147 6.129822896266688 6.707599596170955 -1.1086033759872456 -0.40302633406883487 -0.8787452107063899
Ni 6.270909074066823 3.264265543582825 13.294152812864272 -1.5429089797853361 1.660493240660424 1.722162949756079
Ni 8.64303016517163 1.4042378355715066 7.638315701952846 2.80953389872711 -0.3782195594378002 -2.6102363798419304
Ni 1.6796154307423092 0.4705096390629231 11.292675464309175 0.4553099739638998 -0.9337953576029983 -0.06108066936140448
Ni 0.978388562510145 2.7453109708377936 0.6677769079503374 -0.8220143336732489 0.32069498285877024 1.0634362925323042
Ni 2.6684903204515633 4.5245038054717295 1.6659794094279203 -0.9257814861595862 -1.9850345938484784 1.717221289480088
Ni 0.048041613405219875 0.4736479453115613 4.218672207934719 -0.3303384194858052 0.09922812696540331 1.5291913730889277
Ni 6.005002387986257 1.4864772125013492 1.1104859175745374 -0.731028906332612 0.5860109747266036 0.5806823634248386
Ni 5.107296860631607 2.498108855715999 8.44929028797644 -0.5530468610957572 -0.31651796866294524 -0.3468287038313446
Ni 4.777779449469026 9.41473843802622 8.528099070080513 0.6988749473078867 -0.8850690960418887 -1.866018228512554
Ni 6.654385993332692 7.167257547313354 12.23629402299596 -0.27760663630972837 1.2678297378831518 0.9843543014974724
Ni 8.658356335693405 0.2966121705017759 10.113672549107882 0.07205465187440493 -1.3929028509361172 -0.1641291985141625
Ni 4.8049869608535 5.388387368900927 11.081208474708616 -1.1378414469167564 1.191820215126057 2.938007038600559
Ni 0.4249173659745267 0.5992105629014683 0.5644101914337293 -0.022397136748277556 -1.3329172144111043 1.2553015235091542
Ni 7.000396831347807 9.585546947760843 7.044695632583499 -1.8404876883416172 -0.563279594567359 -0.6101073535541751
Ni 3.6531706792811733 8.234756166293753 11.994979434927853 -0.03881800130846218 -0.4659805663038684 0.3139764331880141
Ni 3.1098081123677184 3.0887405590808212 6.774296433112835 -1.9842797179603247 1.0462602949736497 1.0659112364353578
Ni 4.326136658464518 0.48355728726749736 10.525812728710571 -0.9263838956302756 2.156716665009234 2.252505427275785
P 6.60240987200281 0.43544070374022054 10.308179209323603 -1.3564788037811284 -0.15005909357434155 -1.8603947116781896
P 4.794310835877033 2.9984632462798064 2.5157894676659174 -0.3886014168927565 -1.491617785710528 0.12642936997054355
P 1.8772233866400834 8.646759691496744 0.4656754896735783 1.8449652644969967 -0.2946869888307828 0.12762544716117374
P 3.220972670567139 6.237713442806658 2.555582469667096 -1.2485132969427273 0.6328251068666649 1.2051171893452794
P 2.5482724082720978 4.739639586108648 11.246076314011887 -0.8522533350634484 2.2873878409752675 -0.375909680357701
P 1.6602560574516467 3.718299786582063 4.905309321021264 -0.055919436875439175 1.5777101466249215 0.4579546106755984
P 4.816697483716578 1.9721792146530082 12.415453634934396 -0.12121542986977189 -2.2923256445965166 2.2224402324592885
P 9.370411167123924 7.37538030007684 3.5349522866861895 -2.097387431121297 -0.6018703103563635 0.9475756992165422
