# total energy = -340892.1530308281 ev
CRYSTAL
PRIMVEC
9.06487384040084 0.00000000000000 0.00000000000000
0.00000000000000 9.06487384040084 0.00000000000000
0.00000000000000 0.00000000000000 13.26735915691985
PRIMCOORD
 96 1
Ni 6.259920864856309 1.8635114402656878 11.35222887003467 0.7485895409241946 0.23750591163410065 0.2808392843144131
Ni 4.770661806070904 0.6081923002076024 6.170715254342547 0.36454206195070765 -1.512190467655557 -0.24466334861448835
Ni 2.8525073062798776 1.5872231504062306 4.869532385076026 -0.7849750215317642 -0.8671593056410033 -0.7855992853793246
Ni 3.3146980289106773 4.034684698761303 4.495074230959508 -0.06830932589935977 1.3145384547936005 1.060952863988818
Ni 5.094595072848939 4.336771619577814 2.874492344811199 1.7613725300760055 1.4764379926462958 -0.379660662759701
Ni 7.339955258875307 6.265604540755843 2.5097200083958793 0.5886345283923798 -1.0119782338623282 0.3313581189995713
Ni 5.3570594300978875 4.65841147327358 11.678513565087567 -1.296717881672412 -0.25036348432305916 -0.8245525267140702
Ni 5.509086429318103 7.991139536257896 12.464312125525439 0.6147867613077155 -0.1153844250102916 -0.5804118833722713
Ni 1.6287312077331264 6.738328646792158 0.5100568824711447 0.7107884109160211 -0.04977295765806912 -0.47748496739904217
Ni 2.8201729012820533 1.8136727638771155 0.5065705319911438 -0.1883731586631917 -0.948800829872895 -0.31002259074658867
Ni 0.2278954608488363 0.1949845298746001 4.679025902879846 1.7304696698495616 -0.020313514746371466 -0.09308653284403968
Ni 8.613996082881249 2.4000794527779417 1.2580032492029847 -0.22663143081344198 0.09234168425821516 0.16867953688900628
Ni 6.909808865279357 0.5578559622450519 4.870951944319834 -0.3145549313993034 0.8964593401567011 -1.4517751997922934
Ni 0.6266610741752411 7.491782830870977 2.8720248861511464 1.1554650735357908 -0.3329856273006652 -1.015191598593303
Ni 7.587498833778751 3.8244793392169965 3.944080378213574 -0.25128985279207045 0.7154277094602453 -0.5174867046029604
Ni 7.450356357408668 3.943510197648852 12.62792584649172 1.246969349494375 -0.923183643525423 -0.5766038224800908
Ni 8.262442145503728 8.874448038137063 6.987706045674031 -0.7352102914038112 0.015050209464903114 -0.4364401336425903
Ni 6.795319508642821 0.7674267806203525 0.37825271030717955 0.4078859761539815 -0.3709952737752191 -0.5551189131334375
Ni 1.7762892241487647 6.361873500968036 9.583464397662942 0.5717917458034282 0.5686159191786078 -0.9139289576963743
Ni 8.94199947801477 5.07092668724498 1.0795693659908536 0.46049203238547143 -0.4927012701281644 1.052015452289872
Ni 6.792509397751506 1.9735136843499592 6.762094026546235 -1.1414101381046213 0.5508233710818773 1.2233427112143704
Ni 3.7771788275044518 4.594204971843922 0.701745424216446 -0.7749538898503363 -0.08363258651999146 -0.7644753589165156
Ni 6.130583244865013 5.855645621208155 4.809112281450571 0.2679444306296159 -0.0011459406789851234 0.17493297399788582
Ni 5.422118029668783 2.78670538705386 9.107723501611693 -0.20399441014021638 1.2417099008676484 0.03467055479899191
P 0.3970333159350159 5.615236102019118 12.161936035233339 0.15929372479873213 0.38947122109221954 1.5600129864554746
P 3.928299339340372 6.446303735941329 12.685320095228397 -0.24497265232479098 -2.0917767698027396 0.6539449195644158
P 2.2715667363063536 8.641127250293216 1.5790411952755785 0.25126671286361885 -0.29994258080276726 -0.225569822318147
P 6.598521097512246 7.866261834197335 5.89138388633401 -1.2993920860704655 -1.2357832509705686 0.1437768601100556
P 4.6324949989565685 1.0845668309404755 12.596163435033388 0.6801742855745898 -0.667981857273456 1.7423034292596962
P 3.8707917796806584 6.061771787523133 8.047847574044662 0.7330297388127247 1.713358721200888 1.2170324527256264
P 4.705947671706041 0.9932563567203792 3.9126905330701858 0.5047006085818857 -0.4892719327316412 -0.6183513387305222
P 0.19207561185839553 5.427847029937531 3.662732982262363 0.36095383037881706 0.6604989186328496 -0.30724399956018694
Ni 1.3448828130886439 1.258476435617587 2.5711744141268156 0.2548001799381741 -0.4265316162796267 -0.043510778798441195
Ni 2.0318008231601667 6.196711499549377 4.8649283356511885 -0.85449199458598 0.14132042814976306 0.14161044858635613
Ni 5.878316870689389 5.642811448249391 9.37572468380392 0.6856147398638708 -0.5004994260163446 -1.5541603843294396
Ni 8.530399816301507 2.326010368607148 10.237890273931775 0.5665672641796953 -1.087863572336733 -0.2320909112661164
Ni 2.2126994455701974 5.187102110416305 7.081134980911226 0.6190681622918887 -0.27536540568403545 -0.5569402826128924
Ni 0.6265758643611172 0.002986875931254015 8.939108689746252 0.27266857557816265 -0.16827844479584567 1.4179482239405192
Ni 1.6167655742604246 1.2435556532720813 11.586596650807376 -0.1280162548416892 0.3931353002073681 -0.8951010263565939
Ni 4.080897425612694 6.955649932303185 1.5996456535206176 0.2204507559240268 0.6461879013268161 0.07068219700691053
Ni 5.735563237410517 7.953175844603597 7.972090610364309 -1.0267332806843155 -0.47377589397857117 -0.9458173217645388
Ni 5.31303133784265 2.884034937505679 4.916830177326418 0.3862786822968509 -0.2249548144419674 0.24576120966435738
Ni 0.7844478942352712 7.191699247173761 6.987785816563849 0.10952719489856622 0.8525004180772479 -0.751601331167325
Ni 4.934971709348325 4.44706393962506 7.246817306088471 1.225958808680979 0.026350979189703007 -0.8579519281101224
Ni 8.192796719768298 7.2357998584197425 9.15989094409052 -0.4105231566665124 -0.1009746773428648 -0.3558555899203033
Ni 4.373502488389471 0.29900395722252066 10.575995564475887 0.3358778612467957 -0.20909085082651732 -1.056284511978871
Ni 8.421621330186035 7.128716503712901 4.797861866524078 -0.5371060214957848 -0.6582412329469244 0.6089765823838416
Ni 7.468495169968423 6.1340278969253355 6.9897093827933245 -0.5299033330997583 0.2708747169025335 0.5094926306538903
Ni 2.3510475501613923 5.43091095729645 2.5244069169962366 -0.8256699281479651 -0.4589753386306289 0.5838767019924203
Ni 2.600050569753552 5.078296429679304 11.450076024782923 -1.1477803032970233 -0.16040418425409148 1.7696571386823008
Ni 1.050410386300217 3.3454370161121414 3.7493025274625933 -0.11497870493144069 0.6173637780062722 -0.6018566835096086
Ni 3.6675935676169558 2.6628610806113944 2.642459675540438 -0.730065256867762 -1.430035751232673 -0.3543725776168736
Ni 1.3426891136186485 3.206807900431815 8.076611325235746 -1.8848680142292056 0.9023659354491234 1.1384700816396909
Ni 3.6827500366823784 2.520905156230703 6.969423101620173 -0.35390720794468083 0.8671698471639646 0.30195704012963476
Ni 4.1632064801067346 7.030571114615218 5.921315193276067 0.2200740893108984 0.22427167233201373 0.7185279456521237
Ni 0.5780570336040795 7.584770306752021 11.328666543454675 1.6037009142617284 0.12025717972156062 0.018534825579393885
P 0.33311598398094855 5.552969483591854 8.158046525891324 -1.5045648327894992 -1.53637837775567 0.677205432754253
P 8.604695522318377 1.6472326152465997 8.0348059400468 -0.1843010454763471 1.0369325898148205 0.025806933760774912
P 1.9175380883697057 3.3193301794444277 10.345488513472894 -0.14113068073646018 -1.050105636861669 0.3708091259063421
P 4.210225980730147 6.1087731583988605 3.8502806896362016 -1.4935926500487116 -0.043962778734195254 -0.4800028487248895
P 6.916326509572443 3.7990614329613472 10.391048569407591 -0.3518248714943554 1.1364455950104944 -0.24232055941392464
P 6.055226948608519 7.773673212765381 10.08076518966228 1.5297804128231784 -0.08505620634039546 1.1828817749858467
P 2.283351072302197 8.3880812969671 5.841379322754111 -0.1488912985184855 0.3931396710827423 -0.2172510180398065
P 7.0063407068329955 3.985099838840334 1.7129484181711097 -0.38023016210992583 0.015163338003999691 -0.6327687997074328
Ni 5.41376928085942 2.9007324351244037 0.3815423530247883 -0.17850552184049256 -0.08466616999082839 0.36935465284800256
Ni 1.6068576671500736 1.119702281955773 6.999792241968844 -0.35920856555293623 -0.9891704919391932 -1.0782445611897302
Ni 6.683014786602439 0.7841269977012305 9.126948286057834 1.0881805893565193 -0.793184296815434 0.37403226082933
Ni 2.7591844300666453 1.6527984477861746 9.073321398890291 0.10680285398886767 -0.9215785038218322 1.7803346730008047
Ni 6.340235647104899 1.8423177652208567 2.6100609099383285 0.34861356364590934 1.1959679187458434 0.341060948109632
Ni 4.153325767617912 6.664051070522976 10.54985881372449 -0.5158527685439632 1.5467085560370846 -0.206730835234773
Ni 8.095974802251684 7.0329098520667 -0.021293388657103736 -0.6120120267760557 0.8894389429748101 0.9003910711109395
Ni 7.558935416299596 3.890671048018261 8.144791867358155 0.8633335041370099 0.07579355009154688 0.48005992721507007
Ni 3.102579980985506 8.427468173814741 12.643528307350218 -0.8693018059053029 0.9747789991042115 0.049547214800508214
Ni 0.01971882007058227 4.64215815447316 10.349137125194684 0.4246457121108235 -0.22096934743165816 -1.3956181929847513
Ni 8.869235735677362 2.2759632001201875 5.726855519596973 0.0945075815612824 -0.29076091430349926 -0.19747923472951795
Ni 3.757045742699246 2.7046773436489504 11.62585480644645 -0.5529820692960927 1.310416205095111 -1.045676911666354
Ni 0.921725437225613 3.5183494846665275 12.84330815548774 0.5931259885048302 -0.6047458321319455 -1.8323684016685926
Ni 2.811398103402072 8.140954706260432 8.077645627341226 1.3308973557675983 -0.03893627205388133 -0.2768450755533555
Ni 5.735590432032047 7.7641822898518065 3.423761152064819 -0.8434411360884572 1.4405960432470222 0.22395208420906593
Ni 3.0168625339265134 8.132841644170986 3.7953937850044874 0.6131150300322473 0.8570772388146529 -0.9950310644850283
Ni 3.7091741439345953 4.374544948881412 9.483083610675584 -0.45962119974474397 -0.13587046077878534 -0.6273260314253066
Ni 7.38599575312368 6.170813154980051 11.184145259776427 -0.40269440465071293 -0.014227970673923883 0.428825554520126
Ni 0.4550403501434758 8.972548102865533 0.17789905565539657 0.2556100774339791 0.48274055937102667 0.6410318110471734
Ni 4.634752152543465 0.45026316162823804 1.7017242913787614 -0.841141541421003 -0.8547658170726569 -0.39424730232462424
Ni 6.03839347788215 5.502478136286588 0.44917718974185195 -0.12555390934412572 1.6599731064908958 0.8467344621277483
Ni 7.751428012354768 8.787552157478485 11.24269346695331 -0.8592860735405136 0.8801436337158133 0.23920978169908477
Ni -0.006338159790994863 4.598474527423955 5.932619090958233 0.19797365786743323 1.4406906598433575 -0.11453441830517049
Ni 7.8644035350595285 8.893475208333426 2.54526337873411 -0.20023545731841647 0.25186732256209526 -0.4168789236812111
P 8.390129958455606 1.8730023631792627 3.442972339200195 0.49888965832706333 -1.6215058036536334 0.6419561226336556
P 1.9282618341259228 3.528955387062786 1.4733402338297898 -0.4330791875901574 0.013012095988951783 0.7851388008031382
P 4.647307002815959 1.0045149300333305 8.324444976102164 0.39441468114042394 -1.0764599584854815 -1.0633589023271492
P 8.597144482407193 1.6032951717297919 12.378326358200693 -0.6202115318677125 -0.16771717297573696 0.25195602562115965
P 6.315932720331935 7.749995762287581 1.20166868421855 0.41031001221444174 0.1693343968641858 1.0864155270362967
P 1.801407989567596 3.2961059726587747 5.894276487577298 0.4744767767003376 -0.5315547526602522 0.07880019812835462
P 6.793560923117289 4.208875314527547 5.996209180966569 0.3604007860888245 -1.194129322875208 1.1011011540729294
P 2.3916581849778358 8.577519030537195 10.239947093806741 -1.2523254715999659 -0.5081571996719184 0.4539310913385022
