# total energy = -340859.37747298577 ev
CRYSTAL
PRIMVEC
9.37650567283780 0.00000000000000 0.00000000000000
0.00000000000000 9.37650567283780 0.00000000000000
0.00000000000000 0.00000000000000 13.72346384391292
PRIMCOORD
 96 1
Ni 2.090763880485339 1.9039370029826577 13.00925384179347 1.4139979810435197 -0.24162044802310642 0.4442210631395898
Ni 4.282334574523065 0.8723404015256565 5.504549912416855 -2.7245959631321335 -0.7045807394434124 0.6587891350305946
Ni 4.8514322158353735 8.422971393823019 12.172822644421993 -1.629689625016006 -1.6866485588995535 -2.7557266230986666
Ni 8.081825984328411 2.9747902211543624 1.431137951247666 -1.050952044022364 1.8033689291124488 -0.5315048732589233
Ni 4.344688337905391 5.855252794244636 9.413939595770904 0.15557385274498367 -1.0486686473048261 0.006858160572413995
Ni 4.818398786001399 7.953827304037866 8.702227176971004 3.2773440620405494 2.211182400157282 0.8445407969105391
Ni 4.352845897926838 4.8230682858757445 11.421599505600971 -0.8360103908420247 1.4933329686294217 -1.05902145129406
Ni 2.704418677225137 6.87015640247614 11.16572591489607 0.8282482303981027 -0.5082772701895505 -0.13736144350201504
Ni 1.7169788543991713 1.591127393930364 6.3711865854815395 0.1254909173166742 1.2358398152401167 0.6679864852591463
Ni 3.0911526577821307 4.1123479013864985 13.135056544432263 -1.2457123371588223 -1.4835810314489803 0.6038929972133471
Ni 2.4269866244497624 8.822644952345065 12.344393009383413 1.5550695264072703 1.040392266228647 0.4792253471289166
Ni 8.826554955251897 0.9121952393085999 2.8973524729369773 0.27292902832840094 -1.1032752789061129 -0.21941614401192536
Ni 6.391738948482699 4.585383241066938 2.986541795838132 -2.223065010527481 1.2132115363176397 -1.5619719099540583
Ni 3.116994307689151 3.668182822977363 3.3552081874234863 -1.0053229333293394 -1.0880522913087713 0.3745775918098388
Ni 2.829670041324551 7.624196243631002 9.04436649607742 -4.068275815376381 1.129940704012441 -0.9540037142300731
Ni 7.422554487008911 2.0028310093576027 8.637575232024016 -0.6017957483646862 1.1395877401839019 0.4535012028899351
Ni 5.78192851910933 1.577165776836186 11.206073019232033 -0.5072313454235393 0.9983812119041838 -0.20450271723520264
Ni 5.256084698922235 3.265996360908479 9.525826626193803 -0.583156278886628 -0.7441849840985958 -0.08898819440494997
Ni 1.1531039268017438 4.862252703496006 0.7505405292008344 -0.370815039443613 0.7060699223944292 0.3717681473855017
Ni 6.889387615814058 8.75474967405162 2.456376344140825 1.0242079431593005 -2.4989258677906965 -0.6972584947503863
Ni 2.4893028818090013 3.778488036876562 9.27196992188041 0.9847888179317298 0.8287321120130566 -1.2846162133128716
Ni 4.128062925059998 7.568012221046507 3.0007584538893024 -0.4690617763323534 -1.0994559051600226 -0.2576754446034401
Ni 3.8854927207440952 0.827411936469604 10.24514245352404 -1.54680317263342 -1.0941751163770574 0.10490846517963223
Ni 8.845654897509009 7.603446036358057 11.650040253369381 -0.3909192663926558 -0.12118971883815902 0.22575442752512734
P 2.661455527778849 5.799978292720004 2.6515520623826974 -0.3293475163274457 0.29437177158320915 -0.054645198148705894
P 2.565036918927654 9.193345108032318 7.052597888229361 0.23374387348850714 -2.5925816428746447 -0.3948245149843329
P 0.0324042662966884 2.2741589568755494 8.0990534383829 1.85169461280103 0.1878702508848442 -0.03475514409299821
P 6.780104441043982 1.3892512246639783 2.7500316272025294 -0.8526027479830671 2.054731544123984 -0.24750441760770925
P 8.330247128245903 7.560923582683043 3.5776245302335288 1.27634728843586 -0.21565616274886085 -0.21078880735423053
P 7.56924054330261 2.7080942674876742 11.296702573419733 1.3822893370863292 0.7794363511017222 0.6491438986313466
P 1.5191158296031069 5.861488170582869 12.479377186473933 -1.1239196946293417 -0.8853349481087656 2.2896421842270827
P 0.0504371621969723 4.324125660747881 4.97380874326516 0.399879303799421 0.22086316087109703 0.255889813457927
Ni 3.0230698493732486 5.446718437768259 7.320233367774382 -1.6735451887483757 0.26710085168239805 0.4432594705572689
Ni 5.631388718943431 2.075705212215863 6.855940682075547 1.8745357790652621 1.3400520256836728 -0.19449984038621987
Ni 9.356618203036293 7.537294788138162 9.246760248462406 0.28816384300028436 -0.4588606674296355 -0.39040144621597284
Ni 0.6166477773821499 3.1651426648272323 2.89554093202187 3.0569498703860707 -1.053493065276663 -1.1949374205988001
Ni 5.217444118636737 6.256173428034329 7.137669987446128 -1.1958460484559985 2.2376223395163652 -1.7614764026437213
Ni 7.269773701963556 8.765476396654535 9.21529269509232 -0.6733233240910276 -0.8725858759732134 -0.04439883783034935
Ni 3.7050418671662233 1.3708920263628368 7.93903774148404 2.120585980724948 1.3039997600458058 -0.4875919739260571
Ni 9.510496039256944 8.999354580119999 5.052183204409146 -0.38602902817989 -1.9360712765758978 -0.111500259464537
Ni 0.9831266301709478 7.862256348670679 13.803334175545558 -1.0954187589761715 -0.5189167521812675 0.2942306180196546
Ni 7.916865118285517 3.565772626938001 6.627253332205339 -0.8453671494665764 -2.698374567541759 -1.5858314901804753
Ni 1.3940613721249007 2.669144262511707 10.849263219195093 0.6356435501520665 -1.4505495549153082 -0.9075410518921596
Ni 2.1066289282511876 5.6592650706029275 4.808591898614695 -0.7833344006045476 -0.26663779600305043 -0.9777275402095742
Ni 0.40128350456306155 0.5874690290709532 12.13177511510488 -1.8698142052198767 0.12580587745393174 1.3463178040877266
Ni 5.579367864921606 3.5309201549843015 12.677186765187098 0.3979592039585727 -1.8981968701276275 0.5887198890173345
Ni 2.4354817386789938 8.89174979988307 4.165812737297178 0.3825091879520896 -2.143856006996482 0.11974038798614214
Ni 9.592540464760004 3.350975632718105 12.535451503940898 -1.8111444592928096 0.2569329100104607 1.0766116535719974
Ni 0.29740307241868486 1.5122053448493065 0.8496323798475639 0.3026882618687045 -0.9254999503634255 -1.4305124337587751
Ni 6.146880876758482 8.58992007908953 0.3146642818939514 1.1289654845833654 0.34028344651365916 0.6078555814055209
Ni 5.862332056102328 6.517534149916877 1.6604844694736303 -0.09014441949658024 -0.2094492626072006 -0.17624706482361904
Ni 7.29921593008694 5.685566169292765 6.501244346439566 0.9209915209701105 1.5473855274994512 -0.5343102039182023
Ni 6.784042573468129 4.808037747123584 11.069881148198109 0.43457505540939345 0.5313133260734075 -1.5169621780125875
Ni 6.3829156565514555 6.491673746998312 12.98455143733772 -1.9836035178289062 -0.10909679222936695 -0.6981969474042556
Ni 4.289854532152032 4.650015495351806 1.66564436059984 -0.13868247630628375 0.5519202036904818 -0.5767326347484713
Ni 4.854479580211201 2.037017749401506 3.635771055476057 0.5026750935114246 1.6424001306041391 1.9639983420034695
P 3.7505835556997504 2.6627026030464958 11.406010127104814 -1.0600416650284583 0.6365526922298972 0.431378917069599
P 4.7471654716532 7.401935550816772 5.091899269906667 -3.1446779671316745 -0.9140647119432903 2.5440315018800836
P 2.2861327547461103 1.47425862599092 4.185134902741081 0.14879668192215018 3.4104963525572227 -0.3796704329517138
P 5.996781772363856 3.78696439809425 4.9748514107069814 0.518087828522069 -0.5582345759442837 0.7634466605416852
P 2.2931838870864873 2.9393188998197255 1.24387412857602 -0.13822841948800066 -0.09685319897532352 0.09128238975576537
P 8.248812175618008 9.014497636941421 13.862208317635975 1.7120950239971158 0.033360577738316737 -0.5935070259933327
P 1.2947735525075408 8.900723115906663 10.484012688662398 1.3109689922747874 -1.2340876084357002 0.35678170127899844
P 1.3665788337078189 5.946007993609678 8.862544797355714 1.3200372731246428 -1.1746136214397835 -2.2851512383352643
Ni 9.382975560760762 5.389662400146988 2.9854156774949416 -0.613300406570176 1.3480859517317427 0.38169029159522005
Ni 9.37168624781154 1.864968244995147 4.879377953637582 -0.2962628179583349 1.8522142327499262 0.7920692093743842
Ni 1.8115502916133268 0.8421893095659264 8.832023333417999 -1.2849921085950513 0.3207374060609315 0.983741350503822
Ni 5.295559788221421 2.56791550619959 1.4838770456116102 0.8234214984334206 0.21714817391335506 -1.3801560927934104
Ni 0.6763414260770217 6.544932299782013 6.356859284662261 0.07845258498094876 0.007281621263077782 0.49363972278203366
Ni 3.7730871695520176 6.179576752384674 13.706996204643998 -0.01707238210125447 2.526343597682017 -0.7847613628590614
Ni 4.527727107076274 1.0827238744787764 13.341402494000057 -0.22568166530566294 1.1219692557711902 -0.08611190129841943
Ni 8.245220973907418 5.402761378710162 12.756179138061444 2.6676462852199667 -1.392770439123311 0.19616051591809444
Ni 5.869945778789012 8.882692095307533 6.844070025768476 0.8588101623453597 0.07247194191748163 -0.48796992609076606
Ni 7.0226933983714295 1.6026886255469663 13.65400957052768 0.14078409603031886 -0.3274502993047328 -1.1486768469693638
Ni 4.232807871036533 5.001456308183825 5.269508104585113 1.2371209959453857 -0.14436307163082882 -0.20011127303572634
Ni 0.5760325049811154 5.2345187356471445 10.605039936911625 -0.9116658726938106 -0.66081567854232 1.1638823510652083
Ni 8.141066747794506 6.8051115819373145 0.9582751392734268 0.825322057890243 1.13854052986631 0.8491135038828861
Ni -0.10623299744251585 9.363744347422845 7.490747000535323 -0.23123627657530502 1.3838895916939133 -0.676539259925164
Ni 7.936387003302359 3.3316600308282425 3.6185754815411935 -0.14820275709189315 -1.239350913717169 3.16315957087563
Ni 4.607174240480551 0.3560887467430905 2.2499891379476367 -0.0009461659633532093 -0.9087317297661511 -1.3922680455655958
Ni 8.122482513354841 4.738042131537259 8.659107439878328 -0.14797444313117097 0.3168961779379704 1.0963060466771313
Ni 2.2450167769368625 0.32638585175925133 1.6274379125315752 0.28482140889061275 -0.1417199775810269 -0.3456729929603466
Ni 9.091788174018188 0.7113467350748013 9.868707626906765 -1.2719262765500288 1.3265390787989026 0.32939508173592946
Ni 6.375105027243565 6.58894561787474 4.2762314069162155 2.085189603503525 -1.2938400459039845 -1.06561555957181
Ni 5.757212049894923 8.960498340201749 4.373283867557583 1.40368940002866 2.257177635940474 -0.10118267958861282
Ni 1.2615525925581308 7.5145473851358275 2.4901908369055885 -0.427681927833986 -0.123918944843864 0.5294117381753205
Ni 0.6683638949663928 4.270407659181363 7.158557091703341 1.7263294224289432 -0.42045301418571457 0.34796564564926524
Ni 6.877610724564704 9.266735018708026 11.840728375948883 3.5236326049632862 -1.3283550489617189 0.15824959980493392
P 5.705697527184773 0.8531513824637124 8.946093214384566 -1.6804398589856802 -0.9727611973432344 -0.34530506809796657
P 5.935028105350925 4.79847371123637 8.299676906478174 2.0329267895440664 -0.8337940999169964 0.903131095749922
P 8.375657545698626 7.530421809407449 7.101028478191173 -1.9375481182317404 -0.47478145242495 0.5965908071249789
P 4.061583499138091 8.50070262667106 0.4156398725502312 -2.4732557167181017 -0.7098856965960936 1.5766781058159813
P 6.423628444612517 4.384932300677863 0.5935881367376157 0.9125235927084155 1.5904473916859319 1.6661488962843045
P 7.643146161795767 0.9445610619316239 5.929442520862677 -0.29595094314487097 -0.10608885864097857 0.5361480284578896
P 6.491092403640462 7.299112788523451 10.840754040207203 0.15053757587265687 -0.2577908871353818 -0.2651974640120981
P 3.2082183323427818 3.3388049282263372 6.977791187531537 -0.17642549938301227 -0.06975942808232502 -0.0005057359918249354
