# total energy = -381168.9849392788 ev
CRYSTAL
PRIMVEC
9.26229286387982 0.00000000000000 0.00000000000000
0.00000000000000 9.26229286387982 0.00000000000000
0.00000000000000 0.00000000000000 13.55630185319607
PRIMCOORD
 96 1
Ni 0.6527100775584646 7.0686763052445425 12.430925188070187 1.7736634316282163 -1.505422038583472 0.49453626645437404
Ni 3.543938519239782 7.563551353972946 6.729524482559133 0.0025376788201891777 0.39922855758929954 -0.2308837783318927
Ni 5.713056374928784 3.851270660808166 1.2822227424844583 -0.1645698855960069 0.636050298672182 -0.4681557195783163
Ni 6.982499931863623 7.969202734947872 7.127591898086474 -0.6512282919642011 0.48034506255565657 0.6004263788209854
Ni 1.4228734392494258 5.95473738423965 10.488280582937309 0.18370120710881913 -0.4815126005011965 -0.6402247417648458
Ni 5.312110238760127 6.0753602250113286 7.006913483557242 0.9064354775328066 1.9470018074454727 1.2865157443284294
Ni 7.035267214661462 5.491474541266735 11.422255004854005 -1.1395967390449666 1.6952273017074997 -0.9059587950067043
Ni 4.005478575728513 5.795963158906922 0.2957200049274065 0.9146002727317861 0.23102750299860858 -0.6572328462870681
Ni 4.36556873780181 2.4090668162227584 8.962464167652822 0.5288221842204376 -0.9177619582892194 -0.7452882444651036
Ni 1.6880991971774775 -0.19316511896593394 12.638675639706255 2.0311660980992183 0.017413824601073234 1.5129610272729943
Ni 4.514534194926199 4.471520106579145 5.822309751134139 0.9638394693735722 -2.714299209191816 -0.7668819114754792
Ni 5.9862569670658825 1.600005529160935 13.525054843194837 -0.4477591581998353 0.20702934031179826 0.9927697792546771
Ni 9.087948785981212 7.619754947446228 5.710985326230593 -0.9548776321945941 -0.6480313822934581 -0.425586478757538
Ni 7.497863172543726 3.2629298141663 12.009311171467074 -2.8455974772188863 -1.3677795735059284 0.4160024346135287
Ni 0.16548568278670608 4.106622814477398 6.777825487708188 0.05596520251171007 -0.43281127864075136 0.865025290017136
Ni 3.8061262450881967 2.367321662006529 5.280694393614662 1.4288389027110941 -1.5769236461678844 1.0645629499375797
Ni 6.1774214307598605 8.782793283250372 10.528691966972234 0.7050651352789986 -0.48166275292581556 0.7834781252712636
Ni 7.868206692885797 7.641752893144818 12.677229934009574 -1.0502033387817977 -1.3464718131670876 -2.622582045891477
Ni 7.675541737737852 0.11282491635751322 4.330424819753743 -1.6377135237617473 0.6040806877441208 0.5558455068868169
Ni 1.2256329113961741 5.609791071099908 0.8936649231039543 -2.020973216726616 0.44320984826625603 -2.49187127493676
Ni 0.7867123004613488 3.763028796104812 2.320309968032734 -0.2870821799003314 -0.18505849246766193 0.35609264563177384
Ni 1.3220996922175696 0.9590641209938926 8.877249220277594 -0.9721577594312806 -1.2348453125373315 3.12446626807049
Ni 5.798037912522283 1.838648506392164 11.060966302076118 -1.652170836837658 -0.29896016228483996 0.11886415602877592
Ni 3.0656337125554938 2.046170179392967 12.504454826690326 -1.5783418666716496 0.6606907229286815 0.3714179631349345
P 0.7846958992914191 3.397455356619487 0.00014356554034869223 2.060480016571987 -0.5631610667116237 0.7690619498459336
Ni 1.458190562175204 8.407494436193039 7.035598804748203 -0.31937729248861124 -0.24241209068646638 0.7026719524564737
P 2.212113419450204 5.459556679844697 4.076176731401257 -1.0218296727351113 -1.4637747953563307 1.1492939117280723
Ni 2.349325026851851 7.635130353702927 4.687945621769445 -1.0133283201323193 0.9189654916790173 -0.12719890114671642
P 8.640793070406128 2.619469062323461 5.243889746445013 0.20611428469669665 -0.4133032905148108 0.6777754463251101
P 6.44633358127235 5.8065406974280975 13.549605476823755 -0.47599809844087054 0.10068388557532339 0.40627955089881
P 2.951874230841775 7.195903160872261 11.726323114395365 0.12126633771236535 -0.017759895086582315 -0.42627861972855613
Ni 0.6553053720362519 2.728050922291701 11.297998566567566 2.1181568024581647 0.8995644614445862 -0.05727158002795943
Ni 1.6737055939709053 1.007172470450093 1.6174297546128034 -1.0217129446515887 -0.33081947288728186 -1.427745155426283
Ni 7.726076807940592 3.1191049296156876 3.158794781031699 -0.5286360363515605 -0.29863260374209216 -0.3471446924098667
Ni 8.03045427806567 3.3501898758195274 0.7163837102763411 -0.3694004184842735 -2.367884195859122 0.9169245499895885
Ni 1.6192896230322882 3.2321697393599766 5.013852365571073 -0.43183503077041113 1.9435665565116784 0.5892533929233014
Ni 4.139522478949563 9.41252731697729 11.951317176771251 0.3770926449222086 -0.5437235268123023 -3.098137914588606
Ni 0.2992230041119146 8.894366863833621 10.854246743642683 -0.9200255575124154 -0.2219563939352758 -0.3268820855060886
Ni 8.459724506001187 4.024586686034278 10.05809801914861 0.020931350836028467 0.8420049178625627 -1.3546036982456027
Ni 0.05712426539009835 1.4257725369351766 13.036783809322472 -0.8454427398995181 -1.1251646227800363 1.0249512490832282
Ni 4.088209376141062 9.017518310574022 0.5313351386012173 -0.16218338764170132 -0.3484940073489095 1.316966347508803
Ni 0.3227214412644715 8.595898736595153 3.561118220158411 1.5655773679171294 -0.26660540010321826 -0.7538664730524178
Ni 2.2532843115050385 4.719156770241251 12.493989361913552 -0.2931294145356758 0.39920876009495765 -1.4514358141750034
Ni 5.821684546361652 3.985416449251399 9.876186586087428 1.2237168067243378 0.37609865644005547 1.471641856809233
Ni 0.3424603137184779 6.37834835119755 2.7859282120966604 0.32984836722326416 -0.229098918517328 1.6982375492887332
Ni 5.167544370775456 7.367829842159513 12.416095330866813 0.6358037298790147 -0.19430006567058794 0.0058528592363512105
Ni 6.58923223653039 8.21776562790255 0.7613465850549662 -1.7140212944855513 0.8889599464558626 1.3383733524296693
Ni 3.2044013851686617 3.656975542105294 10.63891788393479 -0.6207908014099502 -1.0822626812101876 -1.068420890231089
Ni 1.131250146483066 1.4398419598893486 6.796574221048434 -0.3158967901391785 1.3252345010548658 -2.945552712158301
Ni 7.18884529366286 5.0122527675828 6.151836199011138 0.21283103459523992 0.28394491982293035 -0.5958657560334963
Ni 1.2830869144144283 3.2727293200817136 8.998293495377393 0.8000596837790286 1.936062277714833 -0.23534232832387855
Ni 7.363772957858048 5.619525740964843 8.488020810889267 0.6542331402287959 0.07810780004702032 0.08092624333242192
Ni 2.4089278818288724 8.260863076885935 9.675132772236655 0.4024735468891585 -0.35976006718103204 0.4459012790554901
Ni 5.060175871180486 9.016314212493677 4.586015940580459 -1.111521320964989 0.08934840595784613 0.9226123444029852
Ni 7.666325756276759 1.180905298857862 6.752678362414851 2.4294196933697583 -1.2854459083030185 -0.8209342132351927
Ni 8.65505700151174 8.494133924220245 8.637303038431716 0.4776222643078548 -0.09724092133204543 0.0771138115648672
P 2.035073952467952 8.050914683138592 1.223643370875729 -1.2499651988979052 1.6531380858469336 -0.9113815086841723
Ni 3.3093246394312414 6.139455292057326 8.823945650719356 -0.683671757204887 -0.9689721626144473 -0.5581417591201613
P 2.3230386395286513 0.6572986174738673 4.763806579518986 -0.3981427807242885 -0.576098343598582 0.4020094627685463
Ni 3.3683532322468683 9.11042837091194 2.7979395535627374 0.33885417026630027 -0.7777512500898154 0.8775630174728305
P 3.6640519339005455 1.8856824298689807 1.1365092764062912 1.2544525452452977 0.43869164868092836 0.7613111022559211
P 7.39946983479378 0.41701621439478515 12.503723105549192 -0.41091113613355035 0.06597425000827993 -0.7920869499861971
P 5.990499097225863 8.908371450737313 2.7466829507410835 0.18197034046064145 0.6252444663059297 -0.48180596337189924
Ni 7.735876313856005 5.239290091778099 1.7876151248300207 -0.15035271355536042 0.9878198914485699 -0.26939247593005217
Ni 2.7723061578908013 2.2424474287819436 3.364755757674518 0.9627436652062322 0.25528534710470874 -3.2121223739275777
Ni 5.582346897160994 2.0144560884152947 2.8242926293950017 -0.7223812579599429 -0.9317922111300404 0.06289046887663362
Ni 4.17007878331152 4.560484430130706 2.9460010108975747 -1.129280701830939 -0.5192257987812542 0.7846963139490808
Ni 3.302711362282276 0.617099339946941 7.887788106360067 0.49300260341866714 -0.39612857850773714 -0.4249282763482488
Ni 5.328736054561798 0.9984288659282116 6.657892687759475 -0.2736042000185546 -0.027245208869198238 -0.05977866272052931
Ni 4.892778451133911 6.919831257928188 2.1686149131831356 1.722994701628755 0.4821358359074923 0.7997123277419388
Ni 2.434445498839237 5.427907424917505 6.295492509830503 -1.5220043684221853 1.694589411013185 -0.625739146554161
Ni 2.6781456880079104 6.4222794065442494 2.2791400022071917 1.7074312999728594 0.354703478593731 1.2162770626168407
Ni 2.839930158541498 3.98311940060582 0.9841519676125036 0.7202503276598693 -2.7224889440914595 1.1371480203941577
Ni 4.3993575823948445 5.461381351551064 11.223804821544654 -0.49050092004273593 1.3173021335816668 0.06665096436033037
Ni 7.436157777072565 7.230071759475249 2.935441070732959 -0.34326515484980236 0.39334381667374835 0.6207640619370729
Ni 7.0386109024076475 3.190869175204182 7.65514894740329 -0.2355415888188782 0.7029208352424862 1.728588907887081
Ni 6.524349874585707 0.9486718283312325 8.71701433135048 -0.3290896346803687 -0.12341963660994229 0.8451753451707444
Ni 4.2414447503042085 6.3096591868603955 4.680801615235835 0.559294641777682 1.1984783438725228 -0.9486241950857148
Ni 8.826446469809301 4.77244274144293 12.64135985219613 2.0462183644466503 3.455705859214326 -0.003126975664755905
Ni 8.897330797569852 4.6418629357761 4.455956675776054 0.31588727705748176 1.4124419494103093 -0.19764712776594992
Ni 8.90045219028582 8.121011716000455 1.1643044912470906 2.022318675010917 -0.0030755536015301867 0.041708435482379784
Ni 8.382087966697783 1.0630796705497516 1.9824604237326806 -1.617895203484239 -0.28400379808532383 -1.2478638362841865
Ni 0.4894177057365695 6.135064965210534 8.067639605474566 0.2912219131003178 0.48795064281705636 0.31020179663693026
Ni 6.543393148840992 2.7300423152707314 5.431020481569839 -1.64223403733992 0.6039534181376373 -1.5202812150834915
Ni 6.264987148079637 5.04388349792414 3.76569633646742 0.36440579348315955 0.017948356948304576 0.287659135449724
Ni 5.5443344469938305 6.695655982246937 9.428055551067263 -0.22098554538157428 0.8423664149670396 0.39425810095790165
Ni 0.428065203625879 1.6904610818735366 3.6311772776192806 0.7094900038195717 -0.26710008035144966 1.111789229914395
Ni 6.473351689736681 7.164050135500703 5.132808919845414 0.5317599266925229 -0.3691307097626546 -0.8578943353993096
P 4.700715545026139 4.445687571609306 8.22928514161427 -1.1736738832343334 0.16010979294212424 -0.962389367190607
Ni 8.013467232839897 1.6176872463561383 10.65435905247126 0.39167902737681576 -2.283429884768784 -1.2605285762360485
P 3.0351051950723136 1.2173616838135042 10.252102301853615 0.10887284914401893 0.34922111532292116 0.49832273007999983
Ni 2.8074565595439163 3.458280834262704 7.189056473941566 0.6977194935472049 -1.1845843594992502 1.2012911307309697
P 8.609032667963827 6.695720818297417 10.061351862653414 0.1618224047578568 0.18686597799004592 -0.053254231338450225
P 4.930577868563783 8.44521049298658 8.012113085614157 1.7778440453684672 -0.03773736664977372 1.0868194473429345
P 8.816563603257555 2.128502701209711 8.71244524225022 -1.951109916076575 -0.0201816171541975 -1.2657944526206781
Ni 4.8407614140630555 3.512113280747001 12.498042541297847 0.6215148240601683 1.0464590412480173 0.2724896267981372
