# total energy = -381177.20825717074 ev
CRYSTAL
PRIMVEC
9.15838675146454 0.00000000000000 0.00000000000000

0.00000000000000 9.15838675146454 0.00000000000000

0.00000000000000 0.00000000000000 13.40422475468757

PRIMCOORD
 96 1
Ni 5.758280790515031 2.0345539586453234 10.00999412013528 -0.332547254211666 0.38341215938233325 -0.8878759693630646
Ni 6.790183713659745 4.690376248607333 4.12433299008149 0.6285989846004594 -0.18623965725995667 1.0891866620235306
Ni 8.86337690648493 4.160087332399143 3.3840175354337387 1.0224585645683617 0.03880051780696544 -0.3748647840329544
Ni 6.274685592237165 5.8688042031916305 13.217168700254344 0.263577669020488 -0.35795900941655123 -0.6418383661088688
Ni 4.943019508641858 3.7446812210148903 7.942620166323578 0.6051109287808483 -1.471554953522382 0.36575973640789267
Ni 1.8131774313650164 8.627411068930028 10.416556893163506 -0.4906060781620325 0.14662898484687006 -0.17903748308456263
Ni 5.601754800619792 3.5590407192785083 0.4455857436176965 -1.2357845365221494 0.1731368013294115 0.31137010591341857
Ni 7.969261913711399 2.1667735898031006 4.598346366525518 -0.5883987582324899 0.6724440068098676 0.1983924905724067
Ni 7.125499731916981 8.901668121963954 6.713425441673906 2.2961866702138196 -0.4994905251358559 -0.32086416144678287
Ni 0.10808178673861556 2.939155304378311 8.154607515390756 0.009457288758157906 -0.07461907016747149 -1.1218119042577197
Ni 8.807675597577152 5.0177244702927535 12.468409212917843 -0.6415344617152048 0.8583203671931346 0.7318963965392298
Ni 1.5374367196590972 1.7503508974769268 1.1851291462527993 1.0374714930374263 -0.870805901254655 -1.4755229370311944
Ni 7.820135900402396 3.0275337376173876 0.11685094216104207 -0.5629533215761918 0.16712916168275088 1.2178613763848254
Ni 8.726019420296364 2.96771115462074 11.539267969582358 -1.028859068778067 -1.1225379837904668 -2.5083574455172415
Ni 4.078724223498008 6.227126089251618 8.080870595231401 -0.7022960571742938 -0.3989277385194291 -0.5776433194881987
Ni 3.978091868634694 7.127468785092773 2.960551127770345 -1.9641829472104495 1.083599140633424 2.279755778351306
Ni 5.294051318757979 5.074103499828479 9.814185061463629 0.7345945121966833 0.9186081083395985 0.17242974796005786
Ni 8.180381047703856 3.990776234441546 6.301312686206003 -1.6232973483364175 0.455312545067061 -0.2305148250282482
Ni 7.018960217526288 1.8760863907348837 7.7227373719408146 0.5541208108862263 1.499167830143644 0.5911192424874465
Ni 4.295750517017842 5.098794510814236 12.146801468118872 -0.05723224214959175 -0.15764307656918655 -0.36940916023502185
Ni 5.470148781381913 8.328856815545503 12.708545779850683 1.7668885747982281 0.6106164319801097 -0.931361551350525
Ni 2.957618612296443 1.6983770520228583 6.267882742474471 -0.31962514683335924 -2.0738312410679125 0.07037752128229814
Ni 0.8755939870181552 6.429993516679472 11.20909530138803 -0.44444140668051196 1.0656968064317067 -0.7615142194056627
Ni 1.9549675767958339 3.011524877378848 2.9817967536178074 0.7844057792918555 1.5053631603210784 0.7749929706183879
P 2.217694220767792 4.979021127404843 4.471998177186348 1.1243246433772442 -1.2830622385621901 -1.8308157124694922
Ni 8.539847732121862 0.5113310553993918 0.32215083714001486 -0.5376618939992547 0.19764558510405317 -0.39837726533259776
P 4.3008792136617675 8.851278677437385 4.742924324917783 -0.6194923943135008 0.5309014353469694 -0.8945937477028721
Ni 6.931479306199899 1.283428859981813 11.905297554027218 0.01978823837052076 0.3909264654815074 1.009176759857791
P 2.2787257108305075 7.915905151840844 1.5899023704877706 0.5048031955980209 0.08531511642873695 0.04373009389809888
P 7.30727539439669 -0.11467033024868724 2.2427277554222678 0.5836658715331948 0.9458908553149515 1.0425252534112497
P 5.796773490505068 6.838320195017735 11.090400775951235 0.13661916601935178 -0.10267186253962964 -0.028495793446847696
Ni 2.9221481799715785 5.873859632740643 10.332861143128072 0.9530508633985006 -0.03502331015272033 -0.3171219207955313
Ni 5.925980012384538 5.421993983250196 6.605896821501886 1.118327802363861 0.46661074368869965 0.6645198668667845
Ni 2.6728935230767896 8.268988440614535 7.549098936189905 1.3520017418463812 -1.29953323963402 1.7661956624962616
Ni 5.370139196825362 1.2901785911006938 6.21129032252481 -1.008460707627373 -0.7025809354045642 -0.6455289275865786
Ni 4.669907253965951 5.140776556199514 4.690030977422554 0.15139709565947476 2.52936515811716 -2.1175117126749985
Ni 1.5590688294322266 3.0523071740849215 12.371107763357022 1.5796029927722601 -0.1574906101517223 -0.587909220190581
Ni 5.638827950645884 5.751640960038521 2.2946558089420153 2.3000325263224712 -0.16023937654145307 -0.9934914879120503
Ni 0.6890193298216297 3.969455509821798 0.9409903642603263 0.5902234701460545 0.6981007881460235 1.0705777886730916
Ni 8.123983701394401 8.907291371498545 4.383422838629692 0.8546717146969538 -0.4253195982493965 -0.08590389905267141
Ni 7.48666987629172 7.432076732194504 0.9211917635374002 0.5265724689543125 -0.1487192917169955 0.9599177657216629
Ni 4.415395683011138 1.7067844511641508 2.203278919843615 0.4531345635791357 1.9741899378244905 -1.370316223884853
Ni 4.031192195673054 6.59496353926346 0.7482667661232084 0.06307584541456233 -0.4599191906011369 -1.164914906094781
Ni 6.475098571985425 2.9458409267891428 2.613542597003646 0.7126331774342437 0.6355090814567314 -0.166037728390785
Ni 8.694615311739183 2.1807218129972057 2.104637598284568 -0.5422258592208533 -0.9029860855316254 1.215465365348823
Ni 4.379806191657039 3.9844661058921447 2.810598112127508 -1.2425830475012214 -0.15780865561277338 -1.7965022838996028
Ni 1.358005604216611 7.041270047927365 3.6732668677642843 1.1309195229859426 0.9956573852151176 -0.8866374689702731
Ni 2.0885334908226416 8.649867433520932 5.474325921630653 -0.3048557018336685 0.6904584411094173 -1.6859366204341932
Ni 0.564914029425492 -0.10829517715255033 2.4188591040775997 -0.47122535964257556 -0.6591699154087809 -0.18127254306266846
Ni 1.0824205850873823 8.167724157057595 13.027097370953085 1.1126096689331613 0.979744570639603 -0.7605947929151868
Ni 0.6189219526020888 6.488964369697753 1.1171098070127345 -1.2952035019104147 -0.3586925451484661 1.0124353760044047
Ni 6.433583604330219 3.9114737625848455 11.615820177863755 0.3832234404102948 -0.6575987142669191 -0.2548752561504836
Ni 5.15968862507399 7.720474334546682 6.266729701568274 -0.3083745136202044 -0.4951805849065923 0.866684937107746
Ni 3.648783752160344 3.3323431692301284 10.086115884234061 -1.046920554265468 0.12765964283321884 -0.05139995173853083
Ni 2.488773313559857 5.404208395960012 2.128175568364128 -0.20430062852672556 -0.9149352874737016 0.6282945659861632
Ni 6.558778752763191 8.875887262941363 10.303170568753174 -0.5046481580773954 -0.5462797175752527 0.35936437440451013
P 4.419864975800844 2.830976438738935 12.049218856081323 -0.07570253303963737 -0.3328097638444332 0.3234820586856042
Ni 6.112655411836569 7.650238665685492 3.7273132561657105 0.022625193598683615 -0.09084195978423709 1.0490427428147933
P 7.695655106144827 6.795788646420608 6.3464177415119565 -0.3205057496660996 -0.5424096930968852 -0.14889335540101453
Ni 2.9347134867491964 0.6141879824320081 3.211357215399921 -0.8800880978875295 -2.430417795616969 0.37813342748189716
P 1.4905183037540413 6.637485929473723 8.953365384134726 -0.07529578451952193 0.7843996086442685 -0.04592427333594026
P -0.049486427581764476 0.7884107232648504 11.553610919250309 1.1285417667823854 -1.2664799087234768 0.8112049017625705
P 8.979331242571973 1.5040177659918028 6.447874351193044 -0.4695191755847462 -0.9212378326529618 -0.17744956977215248
Ni 0.5687495618441992 4.294834678331427 9.878029092132326 0.7826602573556586 1.518200678405379 1.5214096722609796
Ni 8.045441375647425 7.537361547584807 12.078064111348658 -0.3186316725718384 0.6817958803384128 -0.9587376293706327
Ni 1.447290717755239 2.1215677922416414 9.89214399796736 0.9778905481499998 -0.7769971455326103 1.186151446876054
Ni 5.231691862599961 8.476096201160493 1.55153880375252 0.4150904643222207 -0.12052534578128275 1.3697876050748925
Ni 7.695545205502458 5.792432415131458 10.320489078313289 -0.4762235841881154 -0.7338915725923878 0.40932347993145635
Ni 8.657862705253336 7.789327086991384 9.384204293223764 0.6764991507158478 0.8343227187269566 0.7662602187310803
Ni 8.2689975990014 1.2360158911860928 9.70208549040771 -0.10309738011282243 0.22856284350819991 -0.1929018997714807
Ni 0.4595055758125227 5.706535904732568 5.227138312651103 -2.256937752015526 0.03913553254888099 2.17335992999287
Ni 3.4373074410801863 0.9963409069512079 8.777327451025409 0.3042352946408502 1.0817649156381628 -0.2038586558933005
Ni 8.19584956311741 6.492865842501883 3.3356951388224085 -0.1782782363210349 0.4766321324804436 -0.6606128185028945
Ni 6.024112127633937 0.9380111410134173 3.7521773606632 -0.31485935001359966 -0.6680723601047334 0.2103882294817022
Ni 2.166746114642508 5.653911813811144 12.996427765022409 -0.35921345064894267 -0.5907436043155826 -0.3855047802453038
Ni 3.4530598664865293 0.41703447256869947 0.49469118230591225 -0.6157149295489396 -0.45377759647977334 -0.6605068890526495
Ni 0.4107454083090856 7.6150613017402815 7.185589739810062 0.22028234866696256 0.1280288532471795 -1.543939992153012
Ni 3.179526326014871 3.5963977792973885 0.5304015643666178 0.6242851877164539 -0.21951230327015747 0.5720964215280405
Ni 1.1414647052005769 3.15277467798468 5.738053577286863 0.36633900595013036 1.1875768664686708 -0.26290326866128266
Ni 6.40935051268767 7.29792468140839 8.64628833593442 -0.47780584107357066 -1.4207872360512113 -1.4420831693155098
Ni 3.5554323148540323 4.175143720403811 6.1708496336487695 -1.7285639681864167 -1.3723530518092235 1.6004296997096243
Ni 1.693092662802242 4.95808505503339 7.4421994971954515 0.6247068486349048 0.07182145281767631 0.42358796027027046
Ni 6.196244008745693 1.2973129744678689 0.8338207528533804 0.9624934968686393 -0.44216855148593526 -0.5994313618975676
Ni 2.959120587742164 6.538227332640032 5.761645581848922 0.030525165172050655 0.35581830892446464 0.4794477475523678
Ni 3.4282681132452675 7.722315170306376 12.18868918211945 -1.93419565681974 -1.0709310582474525 -1.091607355649881
Ni 8.777755147691964 5.624348541013658 8.162502960706341 -2.2994195753288205 -0.26588600543869045 -0.5401044420024763
Ni 1.1102712395412717 1.324797293447192 4.3355427921039 -1.5704786618734887 -0.5762089010345173 0.5685454709519886
Ni 4.193698612190585 8.13132872765945 9.729121964269376 0.4035279562956018 -1.1307459735225558 0.004559080125592148
P 7.312642209099083 3.7903449379195573 9.012839948430535 -0.37638147778779696 0.2886438679604964 0.6127201085866738
Ni 3.7873593038018436 0.6976950696980418 11.302576787787814 0.5968016375842043 1.9126346428195125 0.5474218015994959
P 7.86513105506598 5.110242494394427 1.4096689803559848 -0.09220515868035087 0.07036260888396269 0.13611137314499783
Ni 0.9322963076101858 0.5700958447132298 8.160786679008 -0.3873390052405652 0.31474107926818057 -0.6741882431944841
P 2.537111279428857 2.9196204651970725 7.841618728469639 -0.2876560501259304 0.8774702006487081 1.9350636612469898
P 5.940688381688368 3.3035766760898237 5.610070615892443 0.02375982142375908 0.34243134609459736 0.3067189802946524
P 5.529147109560786 0.1563162628360503 8.181147604684385 -0.4396802378464427 0.25654467343310655 0.9914801139089765
Ni 4.0556359302134775 2.482481501784184 4.494209097009293 0.6016911044660218 -0.16948172107532747 -0.6312539057248031
