# total energy = -340890.7168143958 ev
CRYSTAL
PRIMVEC
9.09709480124456 0.00000000000000 0.00000000000000

0.00000000000000 9.09709480124456 0.00000000000000

0.00000000000000 0.00000000000000 13.31451779005937

PRIMCOORD
 96 1
Ni 6.416126460271527 2.036657609345308 11.622149167697952 -1.125068206411488 -0.22989287517353313 0.5756818248864537
Ni 4.611381091568706 0.5135801322075804 5.9580467944247415 0.8106773113938749 -1.7972522746917496 0.24362796537143852
Ni 2.7849391514960056 1.408212098496672 4.743283509564693 -0.1997621172264237 -0.012220453325591858 -0.3329833133078201
Ni 3.1984112124320143 3.8833132943169058 4.418143330534089 0.4372518309106082 0.4943395770625358 0.014046965011369357
Ni 5.043684138976685 4.266910495555353 2.6079542602347323 0.8240305927723292 1.2846401245722716 0.434815967775606
Ni 7.566672442424191 6.170741422061413 2.547293921638719 -0.5013471187286205 -0.08421082762096466 0.09699898052456843
Ni 5.2207318001928655 4.530808121915448 11.55270103541502 0.6184737232409994 -0.8744190725272102 -0.40095376781052233
Ni 5.479052907370681 8.11593683914141 12.563539292135491 -0.15127651092121044 -1.0818487336012206 -0.41822052531077003
Ni 2.1728775085874763 6.394902937837175 0.40671746796236685 -1.0300266067236066 0.33730688038383844 -1.021213893527983
Ni 2.665812693597235 1.3639456346451702 0.5179085299676595 -0.250337259070814 0.9920100182705174 -0.535921000048748
Ni 0.41395784580441586 -0.0718370294073481 4.7390497215917184 1.245197602305933 0.43776990819760736 -0.07895497853866403
Ni 8.532356358829553 2.2702619096417975 1.355923816350009 0.38089582071838274 0.8350788801666909 0.11129997052827284
Ni 6.899436918862279 0.6063095497944105 4.570607912164179 -0.11206513082907152 -0.3771931750558149 1.5541465003723687
Ni 0.6856343980254683 7.451757939470601 2.5754139517273704 -0.06373661892701282 0.6613101016802353 0.3874181952179328
Ni 7.500218164077454 3.9601291637706835 3.9296202365576174 1.4123000245158066 -1.0562433743282904 -0.32275417938064416
Ni 7.776569713374808 4.155944131794437 12.778941215218566 0.9788786230948818 -0.6973636528696828 -0.41808271418132514
Ni 8.007135583970024 -0.16123600054616447 6.85793506215514 -0.042136009938101626 0.41587850744115473 0.6627979990796715
Ni 6.855252328865003 0.5252107680551236 0.4197044806615868 0.7735485248623775 1.1729089800438508 -0.8703022221453591
Ni 1.8287162138011992 6.13300667235816 9.286716579801784 0.5983466134738212 1.6748567084709478 -1.6756064421527788
Ni 0.31872854653521976 5.017593670763347 1.4433205168982548 -0.4552333550896935 -1.6865932801815855 -0.5515864745001469
Ni 6.360452239397874 1.8904218086028304 6.8942306514429985 0.1266450855257754 -0.4716387930309103 1.2828953739670228
Ni 3.6348807293106034 4.399964605767451 0.6298410052084426 -0.8860504861185514 -0.6735040726432658 0.005606547553500022
Ni 6.220911900512098 5.6331576952137645 4.821293827580678 -1.0617254804887843 0.06709576520723283 0.12619925623760847
Ni 5.217138447701837 2.8838427674009646 9.775213292203004 0.16307787443151267 -0.3947219279681976 -1.2390701492519562
P 0.4565258820354749 5.627153612570527 12.532556406277404 -1.0354956002579778 -0.4041769027335104 1.0175014776734026
P 4.1458372593449875 5.9775282231830635 12.514062012317252 -0.9775308508177359 2.476295017765058 1.2712760445605396
P 2.127419325302241 8.448754056569935 1.3367243975340215 1.3560838823355548 0.012531042587475193 0.5747631697269262
P 6.417854908305186 7.896724142998861 5.791962042289418 -1.1312136571875937 -0.9658603564583431 0.5624313876344508
P 4.589966530141161 1.25563562259914 12.84430202275664 0.659654054134051 -0.7676763823523166 -0.7019980663179006
P 4.011991701875372 6.170086431227605 8.013009578155991 1.4676306787673112 1.5070752579161786 1.1069051623492163
P 4.952995199779065 0.8398046849519324 3.7648663894082106 -1.6148253063096643 0.0006453468934827596 -0.2335034753429269
P 0.4159119017919421 5.564811221124915 3.6824758201911365 -1.290499668676842 0.6182847471586449 0.9773012513054329
Ni 1.5666743948035595 1.2623310844558406 2.684034174709968 -1.2091476506609111 -0.7880271780945267 0.14342127654284975
Ni 2.105186025332436 6.30113008346371 5.032608425918896 -0.72540256128477 0.007158208311336059 -0.8964220591608625
Ni 6.2286171399042525 5.727803870698973 9.15061585250299 -0.9499205452996349 0.4339441066936139 1.3068089473598268
Ni 8.41121944295479 2.4681874036855973 10.451231151194888 1.5887576626883348 0.5564404601583385 -1.3826588046106056
Ni 2.790752195146049 4.904789693829802 7.012104439372113 -0.4113250837425174 -0.6935476215577023 -1.5229808734028418
Ni 0.5350984005171453 -0.14959899673218144 9.031823257987561 1.0558551377509364 0.3408624589455807 0.5979990003264153
Ni 1.4111231688691508 1.0516787546273614 11.29899306506809 -0.5861737255567131 0.08525135307033706 0.5299136175124035
Ni 4.115016301776371 7.159768484016088 1.4451181028532603 0.5574681300919044 -1.3002945432800768 0.11362784733050109
Ni 5.42101344181939 8.119766716100202 8.155168970667507 -0.1826491116952209 -0.30359946082906425 -1.2209145613888521
Ni 5.263852030085204 2.8295694991440676 4.80731341211685 0.4446566080151116 -0.1580192289616827 0.082569949583432
Ni 0.8190169133639613 7.405826707249838 6.887706214970682 -0.541431645454332 -0.6277852304499124 0.471082406306808
Ni 5.262414689088793 4.292809924775498 7.527722320840428 -0.26536201461442044 -0.402244718707804 -0.41376068976720354
Ni 7.882141499851727 7.442824592265057 9.017004090372662 0.5921803367621092 -0.12808696017862456 -0.2693991607982715
Ni 4.437990462507952 0.2913581170674816 10.66401038181426 -0.07068219700691053 1.48314805767662 -0.46168168181819846
Ni 8.33442176769084 7.132850180165575 5.03935847034508 -0.6558801889139155 -1.0117069824788123 -1.0810285516927702
Ni 7.19076228638807 5.950991997318938 6.973132484760556 0.3274870660799392 0.42530468585106107 0.31883016173588963
Ni 2.312008478202123 5.653471508156716 2.6163563370972986 1.731620238514237 -1.1231920724346978 0.7369699544073952
Ni 2.267450907313373 5.391738990386152 11.422192292359858 1.0899348530434647 -0.6740185503858392 0.756444261081923
Ni 0.963737138093767 3.4696410972927896 4.029785619527147 -1.1157996366253686 -0.8107567584815585 -1.051848844805021
Ni 3.890017853268521 2.3171756281132723 2.3825928376398138 -0.6104765639681358 0.05177816101355599 0.5134135629748513
Ni 1.1598977957242516 3.835080497082902 8.236041234743436 -0.2034601349033012 -1.2710690707560561 -0.09522054846790698
Ni 3.730891469032912 2.4564794425312853 6.838789316199145 0.36217844681453754 0.6112880041258375 1.2148015065125788
Ni 4.1295898478285915 7.065768202269772 5.858973972554383 1.871412660055248 0.08611190129841943 0.5893634361386043
Ni 0.7459363110818701 7.3833204944326125 11.23371140225577 -1.290840082735396 0.6538551880640868 0.7121549522462445
P 0.03465720249384858 5.679734821173421 8.153052076681021 -0.7019628422045912 1.260102030221591 -0.9945358700161647
P 8.509586330259822 1.5727330600162803 8.27553172376509 -0.20903377233633674 0.27196640730481547 -0.9608662456778615
P 1.6177090972710741 3.521521829587306 10.344368486949673 0.6182906606959159 -0.4362557855459261 0.7256149344058923
P 4.187629313379883 5.741658746252988 3.943201289554721 -0.4778351516496093 1.715860404576819 0.09528122650251333
P 7.0994001621668135 4.269776080453262 10.540131601532417 -1.364805835589585 -0.7926153116858414 0.0753952862118637
P 6.1694223432988835 7.840358542911745 10.226934088704905 0.49568503534683667 0.3440598828369558 1.1921945677463401
P 2.3814375065857365 8.462599835029035 5.708279685594556 0.42779042838739234 0.000972648325914454 -0.31670823029688033
P 7.040223559751273 3.9829810661946405 1.729010234124826 0.9318552031574919 0.982597980927998 -0.6561301001411927
Ni 5.589082270355456 3.046025775527676 0.3727070689169033 -0.25555736981917276 -0.36342877428187087 -0.11225307847016153
Ni 1.436313024686004 0.8755817398296938 6.967554146159294 -0.3761367087668426 1.3712847584457093 0.1561937457171697
Ni 6.654342987689413 0.9340169290097438 9.324103820479321 -0.019809835637075564 -0.4306376680282003 -0.4555650273974993
Ni 2.5707025662714122 1.9076517063699379 9.249955219254328 0.47338971428374604 -0.6424741999206548 -0.681900010016445
Ni 6.372860676860564 2.028406544258314 2.560075339992883 0.760375220705213 -0.11703738723268231 0.18990425059573746
Ni 4.171800368229531 7.062374985866852 10.18269036759069 -0.9427337977432086 -1.1027772562237719 0.44523304934387187
Ni 8.565988318726594 7.234701254822668 0.3534567063693975 -0.5184868637327006 -0.11091019128902188 0.7440188908343767
Ni 7.815541667986365 3.845323825956061 8.353461987345831 -0.8695409184993024 -0.6051194134212804 -0.31091990574987743
Ni 3.0748908576897835 8.430760002830052 12.536097905327422 -0.4806412536398368 -0.32955911811761956 -0.25584430493197224
Ni 9.01588514769824 5.2128264247126035 10.355153092970216 -0.10289323452181635 -1.0839372406991332 0.07317513863209332
Ni 8.664800963682413 2.444589539478693 5.9943023564949796 0.39956408655184733 -0.023458488133256374 0.39028086147770846
Ni 3.408181124053836 2.7493513161924557 11.503010883575794 0.6520235341719867 -0.13325899129786728 0.38137944522302064
Ni 1.3514735175180823 3.2925115622223835 12.60761016844634 -1.3046505062559275 0.20830846413453805 0.7986692311894052
Ni 2.8009864269242937 8.183109787986353 7.967167497465385 1.1931821284705901 0.15656912677871745 0.8654814037179482
Ni 5.647576590652447 7.651657503110737 3.605638117709565 0.06545951515539049 0.2673304511947009 -0.4431656252918819
Ni 3.263228013694232 8.2944855210184 3.587490323065635 -0.7565851575351615 0.02948515394331051 -0.19938185106886952
Ni 3.6926381849195606 4.625090413604098 9.543034506679538 -0.28884287134518 -0.6107287891882579 -0.2419786026934736
Ni 7.336807048137353 6.514174949254571 11.784200267948412 -0.28100974845400634 -0.604124910718495 -1.4164973504266056
Ni 0.4026328723459829 9.368279313381683 0.34597616522161906 0.17707084627649505 -0.006089657837505641 -0.4005035676469812
Ni 4.795424418773749 0.23213966801533661 1.6531968645305704 -0.2032855569986499 0.36286930223397507 -0.4991555103939404
Ni 6.06843549265862 5.577692707523134 0.3760420639123741 -0.5822900742315907 1.0346034274610119 0.9037317054483983
Ni 7.81482299748816 8.953897542954277 11.183476334431194 0.7191010445467744 -0.07195977816775348 0.6263053034702761
Ni 9.325613938235046 5.006622574297068 5.9990555885875425 0.1811211050864687 -0.7982941072381735 0.058537077003944345
Ni 7.97841605532654 9.041366110552342 2.4366368591048784 0.2764925773099432 -0.5318830825339486 0.25449601843419395
P 8.571301022156367 1.5960307200910226 3.7988986214814675 1.0138823928635763 1.7705043171739445 -1.1047696040634523
P 1.9604239539660255 3.2527845487329654 1.891326969546773 -0.1674477213644342 0.7509899228355711 -0.9080390745745006
P 4.538959118958388 1.1419492274589385 8.481494501165404 0.535075107108685 0.13532204447448307 -0.6643555733747784
P 8.367635261221837 1.663685814966407 12.421912989385934 1.0687034544685141 0.12986513512496992 1.3088444897326168
P 6.400033699368668 7.69210318709836 1.3003960587044718 0.14769830665164885 -0.8840522247416 0.6381663165739203
P 1.8981816305644688 3.016805906663923 6.00945447778373 -1.802085434414335 0.3159214727295269 0.529138687019592
P 6.8723821585880565 3.8001021671385895 6.114785191245427 0.032098680306757624 1.2193878403316805 -0.5460272352448144
P 2.3314034845587615 8.390441678171223 10.371077557617165 0.8094138713004189 0.49459694448898045 -1.1794925467986395
