# total energy = -381173.3064837783 ev
CRYSTAL
PRIMVEC
9.20815062501411 0.00000000000000 0.00000000000000

0.00000000000000 9.20815062501411 0.00000000000000

0.00000000000000 0.00000000000000 13.47705921383363

PRIMCOORD
 96 1
Ni 2.0511523985388798 6.239102205173415 0.7690859242773815 1.8971419465005523 -0.40677654513988654 -0.23672403916275356
Ni 2.6981999392920355 0.1002518989944618 3.527458365875692 0.7180319798523118 -0.11703378768825652 0.34435144593544564
Ni 1.7696131912280062 1.3084782128822592 1.5301045877362822 0.4228120013361944 -1.1041108874335308 -0.604242924353598
Ni 8.749842612742318 8.401378566225054 0.9019521721965983 0.7614075186244694 0.1059127380744305 0.16241273004368803
Ni 1.5051919360476618 6.823700067954949 7.038070420066177 0.7887666273637125 -3.2764547174570606 1.5305126630035126
Ni 4.206227985751855 2.271199575549769 1.6146998681145321 -0.9140058336808968 0.573321037963761 0.7400709619302221
Ni 5.26857233072178 7.871891485316146 4.240934426513112 1.3526802559706446 1.377218093211009 -0.6286977149618528
Ni 3.746943845694563 0.4454221900103334 13.263825410816137 0.5625062067364441 0.15282354369335616 0.7217842478058925
Ni 4.85117606814796 0.029289285711019637 2.0725291203629905 -0.6451304065965793 -0.6503384331600799 1.2670049279890117
Ni 9.154329048050403 3.092686322952056 5.756146672140355 -1.2162184414647632 1.4914961725309992 0.6079730808199917
Ni 1.2338001107958756 5.874505478649326 12.076590918053657 -0.5973796215748616 0.2816224423373408 -0.14195317663775553
Ni 0.018290149713216266 7.725251685596583 11.66496079944118 -0.9081380620462101 0.7987435360707663 0.8399462355613211
Ni 2.964214204541547 3.2347496717792725 9.162230562156486 -1.5837170149406337 0.12490727689906228 -1.4091848759255925
Ni 8.902872869039928 0.9405941765622591 6.2999588730758695 0.9753446417996944 -1.270908891029108 0.059999263371767635
Ni 5.197494615554728 0.8614399924260367 11.457508530942468 0.7957643988377844 -1.9342144258728176 -0.31334805557539586
Ni 1.507411100363669 0.9377212335473452 10.404451526757294 1.5079779722361062 -1.4230855451670845 -1.0218479275675563
Ni 1.9377171902032246 0.8361673020454833 7.871613399165343 -0.21812493600432759 0.8594503670325199 -0.02704054905755988
Ni 7.137403345621893 4.549434178225801 6.627290213762278 -0.8488458520437961 -0.6659226607515821 0.694172913846527
Ni 6.5429711779046915 1.5623469273732085 9.629116030607406 -0.3542072556836029 0.16386411777823393 -0.4703362721694029
Ni 7.501180546734677 0.038644766810867454 8.10809528352565 -0.49910126011723727 0.18244239500105353 0.23852406848596985
Ni 7.461263213498614 1.573258585939468 12.117857245365633 0.44452419620230543 0.7998503959816999 -1.1095395146482698
Ni 3.7693933170739222 6.4594532511570355 5.058586899968572 -1.8025477187627343 -0.6665775207267617 1.13554930844847
Ni 0.15389029757194558 6.457676078074091 9.83717511623651 -0.3473025581439696 1.3701794411966723 -0.32225307137450954
Ni 7.066380879358974 8.495863400443103 12.866360190408281 0.34538142986185677 -0.42468684976140414 -0.4113551656495045
P 5.567708313999002 1.1967465124240373 7.18798924224603 0.47411065161017063 0.17017129094318434 0.8715435507516281
Ni 6.99484275665748 0.4168833685804531 3.2908825583783594 0.7136924719366935 -1.2634958863944883 0.7652682871314563
P 5.432311666270494 7.8359244487255895 11.840594303234651 -0.8363837150210435 -0.7611763764502697 -0.3412758923339155
Ni 8.937200854807873 2.030305145379376 9.975113213555133 -1.6866027932632823 0.3687553287011069 -0.23893415944019497
P 1.4894183739177018 6.794924597052366 4.665744171206507 0.6455636374792559 0.03407045932114777 -0.4862308319124723
P 9.139117183112463 6.139985671158885 0.9057901294037013 -0.480583660929024 -0.6523588060242185 0.19980582598016555
P 4.728643206931744 5.73675154434448 7.785602826026222 -0.3785764285565867 -0.812677115432723 0.615599744127314
Ni 4.577574286730855 4.104441088037567 5.726132704970126 0.5477532167969856 0.934508838730255 -1.6166147941099194
Ni 7.259089056974736 4.0838516630973505 9.253294568393638 -1.4122180063249614 0.012565752480152554 2.053403826451496
Ni 1.430790078481943 2.4049111317022196 12.080809171884209 -0.5043321694988735 1.4916226708065343 2.0563888772217487
Ni 1.2612219835472012 3.557274357806113 0.8104185502743175 0.7904524997065677 1.3410568127991032 -1.0247468463819063
Ni 7.302081912540868 4.10747977776488 4.30907382079536 0.2949767521570597 2.037286352064343 -0.9721695865058224
Ni 7.2189231036700745 6.176495988640083 11.516713256611348 -0.16857489299034192 0.31436904064074245 -1.0451115260811872
Ni 6.688183714267487 3.428535203025628 0.23542939273657398 0.6871090650212103 -0.8925687468530434 -0.8520995830944035
Ni 3.2915823778307103 7.958438893640428 8.153095515941947 -0.43579478674910754 0.17567036638454264 -1.0049611791145465
Ni 4.227498813843045 8.988609960103592 6.2124934121279125 -0.5231086787754281 -0.22781593803984637 -0.5660998376249734
Ni 8.662134977431245 7.552672525386594 6.752424377548086 -2.221766860541348 0.407143184450686 1.4353183397878506
Ni 4.906194768513698 1.1129431330050266 4.260192352863724 -1.3775613354830405 0.6004083810988563 -0.1311828254951289
Ni 0.3577596746376353 4.291458628527635 9.878913821678823 1.664331897680224 -1.4420687711378068 0.6025729928503429
Ni 3.96661348852721 1.006561368097013 9.481650259771055 -0.11953418551260706 -0.7647504669547732 -1.6716343448789082
Ni 8.870653549779723 4.1032900692014636 12.145539708781453 0.31213115244915923 -0.3884373805110665 1.1888058537797654
Ni 1.8151474963842538 4.19725003883025 4.894018830857863 1.622145494120161 1.3081317799363086 0.9841349863978148
Ni 1.1590759679560476 7.714008533605525 2.3810325553359544 0.056312558548799796 0.45859815779686824 1.3381334685047213
Ni 9.12478009248996 5.548721107278641 5.406375989040346 -0.8034687094605776 -0.2961471183160771 -0.09973052052311855
Ni 3.157833989075504 4.792492523808067 2.890897067126972 0.154378803995618 -0.5144805707867849 0.9738940253960969
Ni 0.7905961642864805 5.471381849643186 2.9526487672763806 -0.120651844056818 -0.5021829843663544 0.20073193733886074
Ni 2.7155020544363406 4.383438845758324 11.286457923746825 0.5752491082244092 0.0985886936091915 -0.05374222671846229
Ni 6.110068389570888 1.0261563127628357 0.5777681774156315 1.2962969920849092 0.9451318656617399 -0.0626662686809695
Ni 3.51790030546069 6.780753253142262 12.028355862300378 -0.2356007241915878 0.7053363866625143 -0.36066586682475305
Ni 1.8582876823614063 8.662908462089106 12.53328756776739 1.7612953969811667 -1.4169393230600307 1.4347940918532642
Ni 8.679860667507237 1.740045819366184 0.7433390141363535 -0.003057812989717314 0.31059388986902636 0.277587867256651
Ni 4.824168562177631 3.291545545227955 10.509599399473005 3.6443502692610332 -0.5019688114730194 -0.3306184126200693
P 1.0207142957057393 3.2928254781737016 7.955682894139262 -0.3104028569041428 -0.36218024658675047 -0.27464601101950764
Ni 6.721692174624128 6.502492147476611 5.503559732225291 -0.11165683964705932 -0.05379750543642993 -0.4103593773951384
P 8.213909826351232 2.263750181642508 3.50671700644911 1.3635814762641807 0.3713976514199604 0.43785321194003307
Ni 0.4152968042167683 8.489463735714368 8.666813638796237 0.2636907975595846 -0.08969473355367133 0.6095861909433823
P 6.758055161694304 8.161625946740076 1.7412364332502495 -0.3848722888676275 -0.5732583030466256 -0.5121411240203309
P 2.94308149871069 8.450614547958208 1.4203342233747804 -1.0740274377845889 0.7570433281185026 -1.2242497964096721
P 3.1377049716697285 2.6588995521521235 3.785247910929944 1.519000548598855 -0.556761590943183 -0.16432125992031055
Ni 6.298678940130123 2.5359615323055995 2.77894252942208 -0.8399405791343664 0.8192395991415891 -1.272250492658667
Ni 4.955835908877163 5.429889922639333 10.256864208331852 -0.12527828708523586 2.0190307482882646 -1.7620482159867914
Ni 3.5848435609684595 2.0807934356062123 6.742289886899965 -0.21879805081195222 0.3974375271271478 -0.06611437513057
Ni 3.9572672155780513 6.998231356110968 2.5116520144870975 -0.6800130774063773 -1.2249097985911745 1.4757481656681228
Ni 5.719458637350863 7.594818231089354 7.571277593853369 -0.062274432559189526 0.6240774425810219 -0.9500897238876476
Ni 6.8615363591353375 0.08281074077475534 5.821348666352867 -1.1793760758254332 -1.3281462753850224 -0.89026246731737
Ni 5.412504934138829 4.626092032710282 1.7802522885338765 0.5088634817103236 0.8386470571339234 1.0475635871661055
Ni 2.4108780133485794 5.852801867475762 9.139265434338553 0.49323965913013773 -0.07723413919281537 1.0281525296293454
Ni 7.530094139897592 8.409002914995403 10.32782129672488 -1.0729169783292296 0.4349031281727736 -0.2869543960732155
Ni 8.179922542158774 4.205288754381596 1.7410071502980977 0.8580205765645288 -0.1508839034684821 1.0783278649321557
Ni 6.939952970401384 5.790379813956205 0.28513775260006663 1.9598922902548959 0.2619697011034198 0.3852327575308398
Ni 2.32125508269423 8.027444774902493 10.280355121554114 -0.1986765974717288 -0.9400850472664518 -0.1337313029485955
Ni 5.150063431356582 7.096721735878658 0.614560264307907 -0.18366829698835466 1.0556800456256528 -1.306091352467512
Ni 0.29251624374702334 0.4387821925486205 3.5535634730785155 0.15820846215435336 1.6276602532908035 -0.33813528982240476
Ni 1.610210894653729 8.593874956374973 5.942480047034243 0.7019448444824621 2.566720973057799 -1.9066866527661936
Ni 7.688253336128878 6.446746003206454 2.9919206091491577 -0.7833164028824188 0.05647839470270273 -0.6712409876407021
Ni 4.85910428589104 5.013000108353398 12.563409270300678 0.6135459469220789 -0.7456183741110126 1.2858246317986757
Ni 4.833929201907788 7.875307709221701 9.817942972707828 0.7338406647497943 -0.0442527991707883 0.7022670037085711
Ni 7.882996515046871 2.517572855380013 7.853729328897504 0.6420610236426362 -0.9051522399450088 -1.3065541510365433
Ni 5.24848014591876 3.3885257882826765 7.911680825257635 0.322403995130077 0.13405217662312396 0.7904422152939226
Ni 2.8140292668067852 4.712077743842545 7.169619902436891 -0.2356937981260263 -0.3821134951755677 -0.49798745822776824
Ni 4.8261022738222845 2.5886505705470655 12.802478645004546 -1.7525155939060075 0.8956011059214639 0.522128831360662
Ni 8.882734643483463 5.229428482143579 7.8705618283566805 1.9818184009040254 -0.26671287221536 -1.2345956584203703
Ni 6.306947859448688 2.446191271240229 5.494394859844702 0.6350627379479321 -0.32565284108467785 1.1460867176446843
Ni 7.134023954319093 6.3035776762965785 8.82622053944586 -0.6004446336534304 1.2545736442041941 0.360287914660044
P 0.2730621837867394 0.6567833184764523 12.381617355326519 -2.844193397782508 0.5050736756505882 0.23521223050391749
Ni 1.0709815903160436 3.0189106196331768 3.042581091793875 -1.4532535841100327 -0.42952129503556996 -0.28707703769400883
P 6.909179330799327 4.010490326559469 11.506995895189428 -1.8158359512312081 -0.5203887087411038 -0.47119862016969816
Ni 8.605504850694961 7.892048127173988 4.5911084266132915 0.02915168186329173 -0.17658876443375393 -0.9871256935950227
P 5.367127167544291 5.450847673607103 3.855773137055667 0.3264784223097667 0.11835584893378971 0.5035135302523199
P 3.278055604468824 2.173243268522031 11.12497550593194 -0.9972910641637985 -1.3644250552113986 1.100128505747015
P 3.5371453404003375 4.2570569775541784 0.9021593555870969 -1.2204479061650788 -0.09255431448965351 -2.7034792357581763
Ni 1.6855059428362642 1.8234532483055754 5.036013118554913 0.46413605689596193 -1.7466725048616694 1.1637080302708733
