# total energy = -381170.4337582553 ev
CRYSTAL
PRIMVEC
9.25504406948979 0.00000000000000 0.00000000000000

0.00000000000000 9.25504406948979 0.00000000000000

0.00000000000000 0.00000000000000 13.54569250988649

PRIMCOORD
 96 1
Ni 8.835642670802562 8.821750849373823 13.7022808988832 -0.3284627997296472 0.7535412285025151 -0.930227951966714
Ni 3.4451161840618334 4.425336431337414 12.344907417613813 -0.33699757667353575 0.8212653713223662 -1.6243579283904477
Ni 1.0624883356700279 2.4520684454469897 8.326754062368694 0.5779109713272885 0.08578614252788452 -0.9013871164756219
Ni 2.8610303410453484 6.9980813988425865 13.24117238192702 -0.100639148380317 0.23948566106829078 -0.36268546835794313
Ni 5.908188877129589 1.5000760831531907 1.7964707264707558 1.3031358693836137 -0.8190326253371056 -0.7082286206086448
Ni 7.11042838107008 4.345197003121921 4.356606621681115 2.6090433879750936 2.65104492921786 0.5160075489542727
Ni 6.446129069484052 8.230751488297864 6.726303322237987 -0.17994868204492234 -1.2714454802588684 -0.06529342189117143
Ni 6.457947760999375 0.02300433800351409 13.191866133651466 0.2977928814496162 0.12985047983695056 0.4907698574334064
Ni 0.21189053623079085 7.362841203072751 10.107754982365005 0.5578622802065296 0.1543255821601794 -2.1330301200255715
Ni 9.260412181990718 3.222735980670927 5.772740378933891 0.6948969364967452 -0.3642944647162758 -0.45345929390840617
Ni 2.2561113934078825 8.335231682907486 2.8966113586887783 0.38530243442651063 1.8443255740304687 1.5891510414720116
Ni 2.4056821636343035 2.3703741697964347 11.943358812464767 -0.22767272759376272 -0.19392597016062083 0.5384995594092016
Ni 1.8363766262951653 5.004692946738919 6.110773466360649 -0.5141738381796436 1.1655918775571474 0.9086800505926094
Ni 8.171287828950996 8.642628722836966 8.57994986111545 0.1831805587186587 1.718679876303485 0.5566967991435187
Ni 0.332345862731248 4.803543814872015 3.5941196200753414 -1.6461932790979845 0.14266074422774142 1.2463851948561309
Ni 3.932736700794673 0.41534324861309285 0.5061065421304176 0.0856969252481879 -0.14671640235435376 0.7788905059005812
Ni 0.36547429364675277 3.2650870631878566 10.407047380039227 -0.8794342663536144 -1.0540939320854557 -0.1795005387639102
Ni 3.030212550050915 3.2001444176412446 0.6855896153932711 -0.013585194883602408 -2.58345422665208 -0.6103883751297037
Ni 1.7805872195180559 7.585462037614322 5.502518075268779 0.6881691308546084 -0.6832711793323587 0.8653636471931613
Ni 8.253000614690063 -0.09189796194314982 11.327789159897128 0.087682588219649 0.471922128599284 0.40485593107840595
Ni 6.893305042816765 3.1530547524650783 6.435355272465268 -0.24874497488302968 -1.8130810141938905 -1.390872964990282
Ni 8.620740543170763 5.457070254943684 6.213680303446694 -0.09562652565707402 0.7962320825028222 -0.2372896818582365
Ni 1.5269619867178061 1.4251842650310327 1.208442234601078 0.12666128347569153 -0.6216708900220583 0.5753753493896284
Ni 8.774133646675045 6.220805762019636 0.5774731138953425 -1.1793465081390786 -0.6595614944202448 0.8357278266045994
P 3.2485205339690397 1.6830575631449338 7.503284648653588 0.02278460199468334 -0.5964725363795598 0.8258720168564422
Ni 6.136483053800286 0.381832584369802 9.612213073253182 0.80518929169611 2.024044399452772 -0.15437906110593413
P 5.234819622172366 6.794202028920068 8.146461172733412 -0.0753232953233477 -0.16147042073507675 0.508144344156112
Ni 5.861506433900701 2.6228055018876186 4.276754099837569 -2.094275882075509 -3.4818097553902296 0.8878224904173098
P 7.764741499903537 5.117724802241379 2.166904798334471 1.2130228173456012 0.1873308334416064 0.3172499617329633
P 2.9896662011639688 8.491355024467381 11.173761160356863 0.14532312155125293 -0.3258713848533872 -0.40414450683367814
P 4.836436242158983 9.444032260036149 2.9144236168644957 -1.3990063927306937 -2.0121643601857344 1.3314881952740616
Ni 6.488415366691188 5.068876678656511 13.549079374795024 -1.0564999704237867 -1.0999418436575057 2.063455554260543
Ni 2.7876100749599457 6.054251985582864 4.006030172773764 0.2613454372558596 -0.47591942268413523 -0.3242284499333255
Ni 6.2479693169119415 5.155624208471019 7.055896734807405 -0.702296571394926 0.5570600960202083 0.43834892062952896
Ni 0.8388587013045181 4.9379178024295545 8.648139176187179 -0.7210964777102484 0.6137405794313882 -0.08248484606879343
Ni 4.539812073743861 2.761492340068605 10.923517720727872 1.1903294895131435 0.5234470359514534 0.10255384890452661
Ni 5.3035753459525825 2.509292384083829 13.27336975539034 -0.21504295464489417 1.0961458669501831 0.46034727927749103
Ni 8.868303721983121 8.29581444941981 6.301537513067533 -0.3106357988505553 -0.593173553913314 -0.21705072910354234
Ni 3.9766981610122025 1.1009337895107896 5.181525375326761 0.6858847056958058 0.7781471999766535 -0.019621887995985562
Ni 1.1925402175598652 6.564695441451795 1.9629467605357742 0.9512755166656327 -0.9492615715593974 0.7719513555785866
Ni 1.1770287633862697 4.71880462966113 0.29903047992176546 2.2978285766926168 -0.1166964589534958 0.46916307779690813
Ni 3.422793017315584 8.715836122904472 6.9462040992726255 1.3191828955441476 -0.23362637407403636 0.0499796743522365
Ni 6.047727179382157 6.2242671485715 2.908016349725844 -1.0154160558992835 -0.6044308719946881 1.103979761172305
Ni 4.86641333050521 6.389386393148542 11.727346079522212 0.8729795118672061 0.3505202937503189 1.7466449940578435
Ni 7.954358846627063 1.715218841935653 3.6410010467557408 0.43822345079525815 0.17527750182149812 0.6191095570527854
Ni 8.565719305066928 4.090026177930866 12.861404597930804 -1.7257087581258088 -0.4150210445368659 -1.2447090927052886
Ni 6.029920474232993 3.2101306103938163 9.074056312863119 0.548291862909275 -0.4093211659386112 -0.19272089410892615
Ni 7.20731018434526 7.653717989004697 1.4660101162545205 -0.8237475143142716 0.3862930804745541 0.1011284293119097
Ni 3.527060345907308 1.9529531637477977 2.857369045537548 0.3983093882091398 0.304622759887256 -0.3418132528946242
Ni 7.726740288187079 6.416772069102999 8.335396422695247 0.1729164577884893 0.052128345264123126 -0.07634068084426852
Ni 4.255321268348778 8.100671841275258 4.60321930744835 0.2732879543297164 -0.6912616537370031 -0.5387839234188397
Ni 8.231575187236677 3.740685277431734 8.103223456976727 -0.13952682658445004 -0.08267716458525762 1.0055946989334876
Ni 8.938170051074097 2.8306552857960994 1.6029292409825489 0.228275137064452 1.2301589628052554 0.9595069034364895
Ni 8.25899788336816 5.329406174471977 10.256189233156752 0.12200938652597697 -0.5436852173751991 1.2411853958227463
Ni 2.6964108688581483 6.349617467979126 10.772402283615072 -1.1107165656755065 -1.23652629978418 0.46479143109177373
Ni -0.004827431084097582 1.8394863211652892 12.484401295653951 -0.01634475990661056 -0.02588175286276833 0.5893924896043269
P 0.7429449756585501 7.0053466085838 7.641058013966474 0.05201058873933623 -0.3833129148003076 0.11872660200964712
Ni 2.5672567262611743 3.4062727633180496 4.789229037920761 -0.27406417037410863 -1.4594450576327254 -0.7131209157039395
P 5.271228966276737 7.50011201948252 13.747794430022516 0.4677816240683492 -0.3518384983411102 -1.216291203684228
Ni 4.60214479681019 3.178348788417606 7.025636442106935 -0.7105418421228537 1.3633413352289165 -0.322687844919083
P 8.152638914774506 1.4689513693191796 9.721310609442279 0.260340650140429 0.3719193282513853 -0.4007557928671034
P 6.881467841212929 0.8437971929196916 5.426946011393781 -0.00870189864937211 0.8775067103135984 0.2528739094497387
P 1.4721536146318672 1.7277871920357384 3.5507458551680875 -0.48824040614333336 0.9078902077014622 -0.039209323209609896
Ni 7.287671733622904 6.767214319868633 12.507632382241743 -0.33242152726707913 1.6872892778073456 -0.9959510051961364
Ni 2.8714607759222233 5.595146260203752 8.294379917560079 1.1617745606935863 0.12048497946165057 -0.5800113054997429
Ni 4.1292398004449025 6.245877676910012 6.363860981089606 -0.3847637883142212 0.8071101628679066 -0.4401132116188033
Ni 4.70823536912041 7.945964521486578 9.871640293297718 -0.5597723527450489 -1.1198632651717808 0.019468136026940665
Ni 6.836219929843771 8.345273405925592 4.0736234629953865 -1.5900547842332036 1.3518415621194333 0.21044145131714082
Ni 4.81663970249471 0.6890075032371309 11.724894418298714 -1.6473649308085823 -1.7946163797307997 -0.4038735125604786
Ni 4.196163025462368 5.025433500917336 0.883199618336557 1.3934867484640454 2.4931334294786356 -1.2466926987942206
Ni 8.811190843877359 9.19384990369925 2.4053221424127322 0.22663400191660324 0.0780113836784721 -0.07611596642797214
Ni 2.8428164139489067 3.4861160301173397 9.874985991796379 -2.096974511953595 1.1117069546132337 -1.5910801401739245
Ni 2.485747551495746 7.823307419957542 8.966517326126786 0.06472443676157887 -1.5663224736132701 0.7061467983789516
Ni 4.637462045692316 5.103786705591358 9.672870633309115 0.846954034337722 0.2630166543106954 -0.028806382708731034
Ni 0.3677778741621513 7.154260270668022 12.248801187047313 1.5146643831173463 -0.7316575410555464 0.3854839543096974
Ni 6.169107084803821 3.6621284617840724 2.3155010124007016 0.19454277780901336 1.0707567374531173 -1.7591660093429897
Ni 0.67284449394789 9.246890562332231 4.4297122162618034 -1.1565163976184405 0.1616570828245861 -0.35565247277056167
Ni 8.56772764967055 7.082626228124089 3.640770596153758 1.392338236681899 -1.2783200958915144 -0.1355750410255536
Ni 3.5189344170502577 0.7585508312835604 9.580936576693366 -0.2877167281605367 1.4058774088189143 -0.628332361202634
Ni 1.3968268094296619 0.16106275867949577 8.117622454830713 -2.245437721795726 0.4248161762504168 -0.0007443343651922664
Ni 6.90776142194514 7.623352188799705 10.483065537047379 -0.1897679821281893 -1.7738917455889387 -1.3441642480798335
Ni 2.1081324907935497 4.1856492951871855 2.5205557729437724 -0.15899650527328746 -0.4089118463153345 -0.5465131737422976
Ni 1.0540662453967748 0.8655335898600894 10.569419727480991 0.18109822226833325 -0.28073592596732944 -1.91706851022115
Ni 3.982621389336249 7.29895363257136 1.8289392727307847 0.4294649878763378 0.12610206853811187 1.1327748310271264
Ni 1.7839282904945881 1.0800636647127835 6.121447308901465 -1.207465634972798 1.3840772822246872 -1.3190034325434896
Ni 4.714454758860659 4.540830128612057 4.855453507096874 0.12765398640626402 0.746198672094515 -0.15573480380288018
Ni 5.673749351072696 1.038156824320157 7.3189954309084255 -0.719688027398496 1.0060749810040157 0.054036618030429515
Ni 6.371607453132148 4.535184551615701 11.28784253787799 -0.29626024685517366 -0.4001819226415043 -0.11490619982229243
P 1.5590399701102184 8.421646031128763 0.9030359546911321 0.23178366443834275 -0.420417790072405 0.36766260985756033
Ni 6.63400646788739 2.0953697847640815 11.4427784572598 2.8806135882827553 -0.2529708400389192 -0.4982705366858257
P 4.169860189685901 4.323077447349312 2.7456440022840787 0.1909853994750582 -0.3531273923558628 2.7433822426007013
Ni 1.8236416853984658 0.16359956631015363 12.62358327870265 -0.008017728098153935 -0.295819045552697 0.23963967014765183
P 6.392042590850107 6.515976888486515 5.341540462996441 0.027016123577527664 -0.8273578573733493 -1.553191335547951
P 7.594902182755771 1.9191907623007347 0.3310325719512759 -1.4057246852911338 -0.5588894359194633 -0.9864554070008754
P 1.0804708866600616 4.729919937812973 11.656664381032256 1.1588643290253267 1.5523487850419975 0.27515971743113254
Ni 8.2904557787954 1.3250539412218842 7.03024175212888 0.5784275059523909 -0.0413497665913804 0.6925775443349491
