# total energy = -340860.79715686967 ev
CRYSTAL
PRIMVEC
9.37858979099883 0.00000000000000 0.00000000000000

0.00000000000000 9.37858979099883 0.00000000000000

0.00000000000000 0.00000000000000 13.72651416150596

PRIMCOORD
 96 1
Ni 3.3516734838968874 7.6597005137886915 12.40510370017052 0.8176228894737724 -0.26201675229127136 -0.18775557968385084
Ni 5.642609718753675 8.12805790339996 4.0554165928045265 0.9180108410752319 -1.286934319923087 -0.6746865229871413
Ni 4.979609079097507 0.9168584291697708 4.134151728815751 -3.178333707512907 1.1792938005242724 -0.7933136233044467
Ni 8.042937823540294 6.466002998973968 0.031543010642575454 0.09449524026610823 1.8851122690295277 0.38543150380520713
Ni 9.049841967865268 8.371648012941069 9.448631792869325 0.888596906689489 -1.9489136797562048 -0.8950981981431166
Ni 0.5429781383335496 0.20432476816291784 5.82415951975802 0.3263745497420508 -0.12294372541478828 0.2322947997468064
Ni 3.4638695521385343 5.392482732211444 0.6647628766554652 -2.8448156047475393 1.1991841116902962 -0.29029348774877745
Ni 6.005279781355403 3.3525925856847065 3.691183119304539 1.5135791204729674 -1.31358946061677 0.7207974584125908
Ni 2.9637843936681607 2.3161365053044434 10.764634557732737 0.5096808354052964 -0.8981567824637822 0.49814018175554853
Ni 6.937080179590007 0.8660630496492842 13.275886056142564 -0.37690058351606054 -0.899869908500147 0.5774463729860442
Ni 4.926235525276291 0.09606770758335359 11.760753323935344 0.46702109175324086 -0.6865863597485208 0.27822832905412725
Ni 7.098663901042429 0.7053130848186691 3.9251789316115753 2.3044620228487345 -0.18235780570704724 -0.5029224336355403
Ni 1.7595828584212168 6.475700460694428 8.740220959882118 0.8944968171136917 -2.1452351467321957 2.529173353821328
Ni 8.357608264202646 4.423590011825564 13.226662528251042 2.4042941019467237 -0.35749389685467464 -0.6812469498134783
Ni 1.2720556315211486 3.251782125304412 2.691000610197218 0.9710347015704309 -0.4253381101921578 -0.7384892192653991
Ni 5.227400796811505 4.54391731731251 5.749213333974132 -1.3686627474418298 -1.5548381271227545 -0.3687319316623392
Ni 8.82894804532949 6.405783074692466 6.742326262186983 -0.36995860498058863 0.3988261799445583 -0.2231180183435448
Ni 2.807302624997102 6.335753145614444 6.595918974541182 0.4587087152328036 -0.04232652868235291 -0.04439086741054935
Ni 1.0915084017527008 1.5769254459766537 12.417622241664203 1.1318644033977152 0.9676143630349723 -0.3502667829786161
Ni 2.658923957802327 8.723945355365979 10.181792723999948 -0.7810224646419195 0.6937486818249149 1.0962289135822927
Ni 5.044893441801687 5.610750649639166 7.924481546692838 -1.228500087045594 -1.7820069184969054 -2.5718379825693902
Ni 8.767218168110857 4.403904352104824 8.78200445258714 -1.553471585792531 1.1793408517121238 -0.0011294856187528935
Ni 1.6535391450041559 5.574990087221261 2.2790273016917584 -0.28851582702306444 0.5082250767953763 -1.2601884192878103
Ni 1.6424630306019672 8.353566092054177 3.0391601188590083 1.9200880137737641 1.7575572700949733 0.013666698853815173
P 5.247002049225201 1.1931441780240981 10.015674454441296 0.3725384498926229 0.605048450974029 -0.1421123279234391
P 6.936770686130844 4.259567857058519 11.730431405668014 -0.42336016053018055 1.1799437754034452 -0.65645303069825
P 3.733353947762999 4.22326333643966 10.312593100573197 0.5707242237708623 0.12812372695383095 0.25700335823708
P 5.364037469737406 4.873856101960268 1.0542707114615149 2.130141742734183 0.013766714766789194 -0.5289736221966373
P 3.8686682395452006 8.777778460081105 2.8244223025836854 -2.2548021937297618 -0.3750563312184702 0.4239723401928827
P 3.6757225142308654 7.620769988061778 8.735772694800865 0.6917740745970473 -0.23564906093101998 -1.6867971686622756
P 6.900494301280998 0.3442158117048723 6.561068135321425 -0.38142829618308505 -1.190362142523292 -0.21614981455582774
P 7.3059119756059925 6.400559200245371 8.18694606794809 -0.8186870690722288 0.15297729566240106 1.6686017287001715
Ni 4.548081411126711 8.441359069970254 6.451667824660889 2.6660228906839314 -0.6527565556832694 2.714728840530067
Ni 7.835858563590819 8.806570730372993 1.1836183444946287 -0.7188552470845556 0.16855406705473552 0.7289661102663123
Ni 6.554715078677867 8.481855820172331 8.56814447230508 -0.15965805011668632 -0.15003081143956742 -0.1094462051489857
Ni 0.7758128812392393 7.281443235152723 4.860723262843091 0.11878368049982771 -0.7362348760135836 0.6740789713101294
Ni 0.655369281240366 8.536373561933484 11.699958492106973 -0.02625044905609673 0.3366185960675622 -0.35744890254935213
Ni 3.9033033712025107 0.6871279994453887 8.461943198581537 -0.2869855064214671 -2.6533350108036178 -0.3680991831743467
Ni 2.6847057008096233 5.530216700128924 4.2339155385886915 1.4816701875795129 0.8145943870600939 0.4313938294679344
Ni 1.8729700075511597 4.524728722844365 12.364761696698025 0.16556130297499874 -0.45521510025724826 -0.7329914293756215
Ni 5.74129123927851 6.9517764296054425 11.623214430683035 -0.12535542018007442 0.6114255581449664 4.356936138397109
Ni 8.679115696735613 4.771338738259738 2.041791186653175 0.7633350746644854 0.46634077785676464 -0.7143095366954021
Ni 5.530066642694178 2.1124616734057686 5.998253341973422 0.15585590276177674 -0.07029216065734345 1.4156565996928652
Ni 9.140776773321342 2.1429702256075642 8.133686932920869 0.9000655694507208 0.1961880267219202 1.0733748918022548
Ni 2.504421071551981 1.3269016239208098 1.245585500031955 -0.5647461518105564 -0.6865601344962757 -0.17342065111841748
Ni 2.3724643148722215 1.3632811732570422 3.8734578852904997 1.3954251031373388 -0.7145239666990533 0.07634890837438464
Ni 7.793645531478836 6.3691221676660845 10.63733427082494 0.8066815599709204 -1.500427670692674 -0.8704302630827911
Ni 6.288109910082591 6.404535722266139 6.144934484437633 1.8727390921761553 2.314612481019175 -0.6202562690627189
Ni 6.894867147478024 2.159889201375175 11.342341613620315 0.5075324216037259 -0.7088251165420631 -1.6218747569572778
Ni 0.5584087319202736 4.858456457719459 4.3326092512800995 -2.2295578173406763 -0.3599809249425865 0.09485082383331406
Ni 1.1053887144667054 6.624397999938037 12.887192282920012 -0.23251360062583182 0.24918823306803536 0.5589298022390954
Ni 4.897340090498015 5.407948026579953 3.1107028144510633 0.07839782048361336 0.5202077030785492 -0.038235389332114796
Ni 6.972353055344987 1.5456666066011284 8.508571670710921 -1.6726365608911773 0.13835800308732946 -0.1993700239943276
Ni 4.061492043193805 3.057438990129005 1.038247391007544 0.2190731588502098 -0.060743083516327644 -0.2053635225736012
Ni 4.553839865185089 4.976195272457037 12.399681937481352 0.867698723084241 -0.6425855286875385 -0.9286744914366651
Ni 8.08408169642971 2.0756694661239847 6.042274566174094 0.46436771329079374 -1.0926316831493375 -0.829714530530984
P 8.201360960273378 0.7172979845600382 10.060354055636916 0.0798324960476109 1.974771778469889 0.6513833294848266
P 0.7039081720858598 5.366400874334655 10.394306876664128 -0.4868787499091163 -0.13622810122852022 0.9052435141072346
P 0.9338505579368205 7.693575979682601 7.502239620355915 -1.4038382669016984 3.28035713783526 -3.4229263507904597
P 3.405975518095595 4.005192369395042 7.195163961609645 -0.33392690816801196 1.189066820750636 0.35815518458775736
P 6.96538476321897 1.7748230666376068 1.7494164672171757 0.4157484096211937 -0.5778852602956758 -0.026255334152103172
P 3.9993307508502762 3.3152751773813116 3.211290064397173 -2.0791822209671804 -0.3284368315877182 0.862117886562354
P 8.605681339606791 8.226992645845929 3.2933480347290534 0.5190537919797642 0.4861480423906788 -0.592411993156941
P 0.6370519577527157 2.1483160217203903 4.7207543770068625 -1.2624242505968644 0.48969436498104046 0.5699518643812119
Ni 2.970583871180088 8.374817976250077 4.922794520725772 -1.0870906987264504 0.7271357419257929 -0.9248564032421556
Ni 6.559648216845141 3.1325990077574053 13.67395560545984 0.10338251545340905 1.442507144226806 2.414553060670571
Ni 8.341533361505482 2.639050726288154 3.398328216077352 -0.8745291157425132 2.3462668746996624 0.6027246879368587
Ni 4.746560504347305 2.7170243208180422 8.387215533936997 0.0303043074104962 1.780902886799449 0.2734828439493419
Ni 4.902066899692515 7.371721539331784 1.415052863962345 0.322275954192645 -1.2712163949671977 -0.4747580553861823
Ni 0.8658304606254278 4.5812253470262325 6.737055494791528 0.6715924574428498 0.40977779386005553 1.6907718370393072
Ni 9.256208454999697 3.187182399646262 11.25767733321869 -0.4665184410852094 0.7110295803925496 -0.932197416988259
Ni 2.303484787837421 3.5602720753731645 5.465088022013293 0.8768721620533931 -1.9364985939213035 -1.87703103468329
Ni 2.5945305611169514 8.27144716088943 0.6575469897621171 -0.14607825454972262 0.006209214134505435 1.5996048898154838
Ni 3.0182552424809566 6.181118959108695 10.77396813017394 -0.5379179758741188 -0.4981257835778454 -0.4249118212880166
Ni 1.8193338532191379 1.3144749926059072 7.57036475787163 0.5311469756988724 0.5471814034539157 -1.261726967419524
Ni 0.4308514716554729 7.473676187652016 1.5864419009164512 -2.0831262932165933 -2.071975418806096 -1.9351032562356738
Ni 5.195485456158966 6.560511047094931 9.767251557642398 -0.20507375924732424 1.3320540950798607 -1.2672193579926627
Ni 0.08411094361099922 0.9615211489039821 2.4458452140399145 0.8108984262657454 -2.0964129830231704 0.2925925681955993
Ni 7.4439366798032935 8.598019031845075 11.447555321851437 0.46064732701641314 0.2520755819181594 0.1471995126383594
Ni 4.8627424731993925 2.4024664232317483 12.551935837928442 -2.2907277039817773 -0.9977422927686043 -1.1688705483084192
Ni 8.100897507710934 4.32647471577589 6.00285166448942 -2.022087532836718 0.7435409227566936 -1.0322601240398157
Ni 1.6601416721329798 3.770099262096425 9.092991921085446 1.149327336069169 -0.34508523877767666 -0.10566256973683737
Ni 0.5153975818272355 0.06696781955023638 0.18465317632668496 -0.23525696769892385 -0.6595771781495285 0.8069209296752361
Ni 7.936171958718517 8.162618006339896 5.2621822344676925 -0.8362705864819469 0.387038700391327 1.2280254614020205
Ni 7.227441315823508 6.715942413722767 2.388962191963576 -0.43830726875831616 0.06761924181087065 0.20980253218156125
Ni 5.123542294787932 0.3137607174642053 1.5299846668112047 1.4713760047423563 2.2030129769726123 -1.397726754687322
Ni 5.917852568436517 4.3045381945339605 9.735611947526206 1.3009296057609143 -0.2279097833052333 1.1945676959642073
Ni 9.070615543987916 2.6755990902384754 0.8728831600584896 -0.0390825678237585 -0.4936574633938466 -0.6688498617007063
P 3.588154622466905 0.9185409481568604 6.147831530787197 -0.549819355297395 0.7149188881446268 -0.25920576520503746
P 6.437829715600407 7.88487107321473 13.379384420322745 -0.12563875574844816 1.6214070732922399 1.2860272347277852
P 2.9437329689502265 0.4026012838466049 12.654267505553474 -0.4733683741275073 0.27066337222267584 0.7522284232283626
P 6.687891052014938 3.6290452734351892 7.675481866629135 0.5536109611293433 0.06655660487431118 -0.9992556440893371
P 7.4790313623545135 5.06689561317132 3.7749282979183443 -0.03888793531444915 -0.9709927925889019 1.3978905339586958
P 4.406474085674849 6.7101745810747175 4.965936971074213 -0.296994811028353 -1.4820134298515446 0.8292769287729331
P 1.7985321413274742 3.242047149225266 0.30437837635671194 -0.08552131890227206 -0.3851607666423238 0.9721253635314485
P 1.4568513624108421 1.2351508811633052 9.708818254693341 -0.862151825124083 -0.04205013509251468 -0.49607532880671984
