# total energy = -340876.16720023775 ev
CRYSTAL
PRIMVEC
9.15499628631492 0.00000000000000 0.00000000000000
0.00000000000000 9.15499628631492 0.00000000000000
0.00000000000000 0.00000000000000 13.39926246622715
PRIMCOORD
 96 1
Ni 4.712918920019678 7.970028618404814 9.472836845190379 1.0272693556934436 0.08531768753189822 1.7930636905316988
Ni 4.829050049680686 3.603763638047262 9.71551016644779 -0.5189103244233644 2.4344716539713684 -0.06273054626000164
Ni 8.096935178858963 5.534689709190462 8.015827403524417 1.4433882612801787 1.1624818711732559 0.10652106108239075
Ni 6.4015305457653575 2.7353389870907074 5.501094534306423 1.0565313378823546 -2.2520171747854567 0.208362457300925
Ni 1.0182553224608555 1.4089905699131078 7.16013735259612 1.413051043749218 -0.7908181105761025 1.003166291997653
Ni 5.460369448205987 5.853631474671754 8.753550748008335 -0.1065262032887133 1.3225101601451674 1.983218623685662
Ni 6.080071156266975 0.2698462661487669 7.321745927002187 0.29557221964921354 -0.38754880725852614 -0.2191253522443839
Ni 4.6970166912281 2.2428642643587717 7.611129871023209 0.7126511751563727 1.0249934151750735 -0.36803259160246937
Ni 5.165862368185099 8.214970547776534 2.5532964606623025 -1.6559770979576252 -1.0953701651264232 0.3238371280321778
Ni 2.1667862440605474 4.612442834246752 11.781167573490253 -1.184414152469973 0.4598176320262662 0.5402741348111212
Ni 2.624398740403116 2.8656054312331185 10.535987354623613 -0.0495461863592437 -1.6309525508888298 -1.96554768876846
Ni 5.496522529091388 2.9723160695719995 3.122095473096316 0.03806518230283767 0.24289597230142038 -0.8495176812998401
Ni 0.6396879807581061 3.1510582197889105 9.202881634584143 0.9264908535217851 0.8091662740659871 -0.743393598545552
Ni 8.990252265097212 7.640265647148251 5.9418490202305625 0.8749677459418286 0.035931680899602636 0.2946705337705506
Ni 2.956661025683917 6.658996510247542 2.2079571784869185 1.3366386291267496 -0.5304288665859251 0.015635135434095653
Ni 8.871365481512044 5.416617720287189 11.375692781792496 0.5948897652734723 0.01852171295327133 -0.8711506861885836
Ni 6.947836647480874 8.533536958404369 5.09812454963076 -0.37233276163972007 2.214011384965645 -1.4549960207224362
Ni 4.734286681677446 5.062456683555925 0.9475110030802898 -0.02023998119595869 -0.3854163342965556 -0.36780710585522464
Ni 8.220957915438992 3.9595267991530383 3.8252751850664852 -0.40307312814637036 -0.36832518314222373 -0.5238604693397881
Ni 1.1038453840454643 7.210722369847121 3.6194891754078227 -0.3498101550571717 -0.8158508851750143 0.5712744398473775
Ni 1.3545366511725736 2.821469193464437 2.7731646858230987 -1.3788196333701739 -0.24402262970669586 -0.5636670598137647
Ni 4.718549242821531 1.4235561692265222 10.22807278233717 -0.7098234758995904 -1.5605125517997125 -2.038778106118521
Ni 8.32086639143352 2.9598835844257914 7.300990634605302 -0.26188665447131027 -0.04594381371996603 -0.2888647257220509
Ni 1.915472437176485 6.9617064670659285 11.881112669470484 -1.5927994368578762 1.320491844163558 0.26468838558616353
P 8.580117580218733 5.775301325252788 13.484213882100457 -0.8094511522962575 0.4508948756153396 -0.3787278665327865
P 2.826065001670178 5.919602378915919 13.468134961877864 0.4688550596381861 -0.06501908518386222 0.14172589111829784
P 2.7378199911220933 8.69382263582691 2.9425852186792816 -0.1687301876212836 -1.2211415897979936 -0.7583484200831714
P 8.549896937017236 0.5080537801496838 11.332385986699991 -2.343912772645189 0.026833318142760236 -1.3963324454429564
P 5.8418581492682025 8.529417210012769 0.37634633956985525 -0.24378326000238015 -0.36937342190107997 0.6342155594562884
P 1.6940313836297403 4.901694946319243 3.3180993690740337 0.10479739352306468 0.38939383088706486 0.6087912058459128
P 2.7634265161249973 2.084867336042676 8.48722732448421 -1.113918874662888 0.7708941179586659 0.6925227798376138
P 6.086443033779317 4.9651573815427446 11.012639497032874 -0.8636404938544674 0.4720895074150837 -0.27019260323384436
Ni 8.301842308860753 7.634864199257041 12.562692998373313 0.3605054299874888 1.8364672543283147 -0.9371979555266441
Ni 6.695021421182983 2.1654862345680868 11.316026008087125 -0.009888205647989421 -0.7548874581177644 0.8630815360272038
Ni 3.8591971933229248 4.797520241990302 3.4942332608092403 -0.11545872989165276 -0.9318346343322016 -2.2209672474581876
Ni 7.600203382789041 6.425434241433066 4.007411092458433 -0.4551716486138226 -0.4868571526425615 -0.1277632582906187
Ni 2.32980011041797 7.490389200661821 9.572915604118425 -0.5837653732255366 0.5625254900101537 -0.9763987940958216
Ni 6.88626929651751 0.367471486034705 1.9850742130031136 1.9222847643147665 1.113857168187017 0.2524957001747135
Ni 3.5893170536873824 8.01345992144871 0.23159669108186182 0.5329796580322369 0.5401874886345858 -0.8273964239207685
Ni 0.37897748554262417 3.929187140998006 -0.011485858515782467 0.25700875755371866 -1.3474429188311052 1.1679372378608726
Ni -0.1740456370504866 7.699013259212475 10.178803338072555 0.7960518481712161 -0.23224286346294842 0.05599631285996162
Ni 0.11723522222995693 2.5751814796181276 11.444256381024442 0.39892362475437104 -0.19716350326131207 0.223698316327047
Ni 0.9791909527120559 7.422990116975235 1.0103325885539862 0.38218625739503215 1.249896293333183 -1.2578070635398273
Ni 7.680117346589666 3.781553668635892 10.019164918897317 1.0058011585173388 2.4529805114088337 -0.15586130207841545
Ni 1.150325300899145 2.79359222934794 5.166219413045704 -0.7286010136174097 -0.8196885137535497 -1.266200429809845
Ni 0.1791879985428467 0.6109614329732964 1.4925033628087072 -0.03234062111423463 -0.6404887940595099 1.1090363497596059
Ni 1.0540605134820775 0.40540155172635045 4.287442292130879 -0.518959432493745 0.3355639295508027 0.011712917561554022
Ni 5.853228654829021 6.530478670422455 12.616169163495574 0.5876765353544846 0.5567243099473443 1.782548392822672
Ni 2.9840344649969968 5.3329044329698645 9.06942467418735 -0.27455267997475297 -1.5544259792860005 1.9648516911426996
Ni 7.058886754125574 4.803040704835047 1.768917423393328 -0.2807297553197423 -0.68005472927759 -0.12864540378525585
Ni 2.5626391345148103 8.191744321844332 5.227547818602357 0.8774262347846502 -0.9208457394208657 1.1982914246726974
Ni 2.4009069676569967 0.9020271498377341 1.1973114890551708 -0.292713924264812 0.2880658839698394 -0.5460586027033822
Ni 4.652505098605961 1.133159682600809 1.4075926019588914 0.33679240264126514 -1.3663053029532468 0.6156969318268106
Ni 1.8643234721456572 3.742232958987171 7.065458210559998 1.4657902831244625 0.3131068860988672 1.0648393435274177
Ni 5.8553892339855045 8.955765393561302 11.76637493026548 0.42267598997896233 -0.18995181600422126 -0.5228438551498157
Ni 7.5687010400879355 7.279348223054761 1.3500159139375236 -1.4475768454402296 -0.6455533530666108 0.2228771059773323
P 8.290279548374993 2.8982521484874466 1.5974068048531396 0.8009965937710012 -0.03690792876994289 1.2370400061958051
P 6.990517240817855 7.567391875599049 8.39796153183465 0.1313160086388835 0.703144521217518 0.8985666163076912
P 8.455243428971107 8.180007616426483 3.023315808161087 0.6441137924066068 1.5460588382682277 0.8538394486036456
P 3.349163187446345 3.200193085606067 4.8615878224775475 0.3745338830560969 0.00156940136964891 0.7526899362458134
P 2.9011542823544185 8.788677553794408 11.19827261305947 0.949744681843403 -0.040429568769956174 -0.44802783848018973
P 5.287147760833821 2.867473050503977 0.6931275258946639 0.7546118358588746 2.7814371404908935 -1.337285518682129
P 6.042718770849796 1.104110878941812 3.8714090430552717 -0.26419936176488695 -0.3892130823348265 0.08488342820795704
P 7.614952082030971 4.895744198642486 5.877358478908447 -0.3051701477502938 -0.2847136796681548 -0.08012714446989426
Ni 5.605366281597477 4.719263332542742 4.95626696451367 0.2544859911318649 1.61290957734419 0.35273401357218603
Ni 3.247853996998673 1.2871833424681167 5.996210473507196 -0.20215401449736795 0.6620356669923502 -0.5870890382821309
Ni 0.5113120433776186 5.145107991287858 5.2605634822126435 0.45483200588621675 0.758365646474352 0.4315843482121857
Ni 3.1906169593447022 1.473917804564733 3.515993771813675 1.0523239846692265 1.0626294803602925 0.10480073595717435
Ni 6.385893811870126 6.841336574059786 6.4872799042877745 -0.17006561860325548 -1.4057995043931273 0.21943774127848018
Ni 3.986762913519731 1.1941502687893493 12.291639188195985 -1.0303508228322449 -0.5881398481441484 2.0041929119444837
Ni 0.1479438267409478 5.585170359482208 2.04807706740604 -0.013597279068460453 -1.3030852186513366 1.2121249881216802
Ni 4.033801285155384 5.937866596785348 11.301728650168984 0.5862652568292548 0.3624988062684338 -0.8403015620182109
Ni 1.1647901952518758 0.39445126050147605 12.363057315313489 1.1286926905379528 -0.21381293889253503 1.8350282078889428
Ni 7.84889886069533 1.4736431546719597 13.473896201128605 -0.7877983499131723 0.4330010260540543 -1.9214033901510779
Ni 3.5089728050547446 0.08644239175184891 8.1299755609596 -0.7300912250096909 0.8255549998366557 -0.6917290802917249
Ni 6.322019401807466 4.211591315744014 7.634001798593732 -1.3703558188735367 -1.9810995204601303 -2.1764208283063806
Ni 2.898682433319458 5.59952539387783 5.348261939474109 -0.5052950476327749 -0.6442377195789808 1.359813010360684
Ni 6.847845776518515 7.01271810715037 10.602970801472468 -0.6359199437419049 -0.3231542430325402 -1.2035961247150624
Ni 1.2508746266434767 0.6302775599320477 9.840298260729014 0.573656824036625 0.5478684022186113 0.0783836794162263
Ni 8.792760682200305 8.983102212888678 8.223770330340994 -0.44500344983156914 -0.38035408928229975 -1.533393069875101
Ni 8.44764478193771 1.5827066270922663 3.5611224111949102 -1.9039733676000885 0.40409488454266534 0.3364846415928592
Ni 4.3019511304664535 3.536153989442883 12.033435331001883 1.4880030717760762 0.4784735565645566 1.638976449634571
Ni 2.614538809252552 4.0371977888293475 1.1842885066395001 -0.22919559199619235 -0.21732660847274832 -0.44986926256430265
Ni 7.015354746120995 4.212479350397315 12.804093775127543 -0.31707666937989265 -0.901361662554325 0.1942213899138526
Ni 3.906675004787015 6.97488966191905 7.290618939154537 -0.036631278069788525 1.5625784331898056 -0.9800515603570605
Ni 6.8670071840376705 0.3872957152950871 9.603988577487161 0.5900270378645323 -0.3054347142655901 0.515316436424519
Ni 4.598215969801092 7.020216049223083 4.505006204691306 0.8625752858147469 -0.2741521021022246 0.3571151733590172
Ni 1.6185759030884688 6.161514004470706 7.325818984912015 -1.3973925112763548 -0.19329707832737034 -0.6100261066942784
P 2.101154074684137 2.4915872072543386 12.594516681448964 -0.11266394075533501 0.11439789272730622 1.455333606567513
P 8.520719963408279 1.2331871735488713 5.877211083465991 -1.1193762982330335 -0.4018742227422627 -0.6582417471675567
P 0.7788256164370969 5.649420124398326 9.246214979166284 -0.24224959696667311 -0.5596805643621909 1.5134965880614903
P 1.7346795677601994 8.238993258397779 7.321544517080818 -1.1042610398581498 1.0461798194447014 0.20477345439808603
P 4.036483699108137 4.880537749579268 7.341067546958794 0.6438829073427232 -1.5500026534073241 -1.4390487533645604
P 5.557613820240613 5.963235091881183 2.741877485537999 0.20202314534645854 1.1123186200553037 1.0254734401352856
P 4.630322542266299 8.734479974953794 5.881404987328641 0.6242131968279379 -0.3767121216543383 0.4681672895425421
P 6.487532582189125 2.5380945890972963 9.013590181985808 0.05460611738065435 -3.603935612889412 -1.8046832770484984
