# total energy = -340856.479909864 ev
CRYSTAL
PRIMVEC
9.36756816551830 0.00000000000000 0.00000000000000

0.00000000000000 9.36756816551830 0.00000000000000

0.00000000000000 0.00000000000000 13.71038289853382

PRIMCOORD
 96 1
Ni 2.289789579140214 8.204144129716889 7.805334911556996 0.7988715770081983 -0.7358139864260811 1.2422007244611382
Ni 3.514580355915612 5.771602182301211 10.791634082146517 0.8037417606163062 0.6401141843289104 0.08483920523358292
Ni 6.074099687147413 4.905448745208608 9.337469972845616 -0.1829465883309817 0.19247226843322982 1.4618125294236373
Ni 7.79010699306703 4.654950610156822 0.6952824400454051 1.3163724226785458 -0.8088921944689941 0.6872419910546487
Ni 1.1479111464560379 0.26544408974589334 13.160514037646713 -0.4699781174990357 -0.4993054057082433 -0.7844751990772102
Ni 6.635769694984444 6.892722084366684 4.961417153551375 0.831394232226252 -2.228079947243569 -1.1766458213784639
Ni 0.17772712004351052 4.687849508863 7.565868961301982 1.645163038061257 -2.1712516254006156 -1.572214927838305
Ni 8.890412159105987 5.776098614926202 9.229870340129605 -3.4015987929572775 1.5216284731400052 1.286514715887165
Ni 5.877858505770507 9.007909564137755 11.736361742604025 -0.2147472777813463 -0.15753894689115447 0.28563979102685
Ni 1.3823813727133283 5.980854915586684 13.1949679526357 0.19227660748265593 0.6442343771448711 1.618045870129491
Ni 2.7522851448923094 1.8846422644926788 13.405381327592496 0.3763760784711582 1.5580952006074715 1.6094815254992474
Ni 5.50057970582994 3.677613508843374 11.764330490288259 -0.26423587142977717 -0.9225192704685468 -0.2660495275997482
Ni 3.8944352370475785 8.394867813560214 10.217210130520064 -1.4822815959112665 -0.12030243113719927 0.8331456676997201
Ni 3.327987769546496 6.918464161144751 0.8606200146934744 -2.3192630924173088 -0.7274887543898374 -2.7102006136424097
Ni 1.4188680499515283 4.967096710010816 3.7886997503573454 -0.5565199072460222 -0.37538131865805674 -2.369654657495983
Ni 6.6995909355553955 7.088476152209218 8.747608269206694 -0.1460214331698582 -0.3590468431640913 -2.3144415026589495
Ni 1.6263971507307537 7.201936135446465 2.658320007354784 1.2949983278781438 -0.627846422705151 1.1074440655718218
Ni 6.180206129529208 0.150959294572867 8.599508893134681 1.2413720579122556 -0.886729514463447 0.6152701287020371
Ni 0.6844451006623823 7.8346216760544305 10.346869449045634 1.4946917966501612 1.7048794800852831 -0.4441701552969963
Ni 7.729433255333571 7.692946578095371 10.541296132506998 -0.996402233800942 1.1596338602014997 0.10769271279298873
Ni 6.887757273343257 2.43473395832036 0.3161245059703117 -0.9673865632948825 -0.2979420054329708 -0.17050887678826118
Ni 4.546595951462533 1.1625713903270989 10.396035129529508 -0.14940989002611688 2.2954359080907243 0.3710600655748836
Ni 5.471277953223755 8.334877908288473 6.01840574854613 -3.8767417424867037 1.093788165351284 0.10848615522856153
Ni -0.038235602177961736 3.2451035281591807 10.092829436544871 0.15537073559524212 -1.5711772306024103 3.1211274335052437
P 1.371009145199291 1.041139606748463 4.6501778342767555 2.654777399677099 -1.4788959672684854 -1.028063826570281
P 3.274873659163802 7.272352143867402 5.917113299343466 -0.4749382897177885 0.8636330376552998 0.7142516868742732
P 6.653942776843778 0.6409861425850573 4.974592637899392 -1.2627944894520897 -1.5071930144409658 -0.9881111974367435
P 3.852431062275797 7.561294777862852 2.6768424994993527 1.339886703750402 0.15096386477679807 3.2445740666983798
P 2.2659210159558922 7.809760150665424 12.260605506135592 -1.099528667379487 -1.0799782560513853 -0.34208553271940445
P 1.2661579569253059 1.4574249597108173 1.5822328147853835 -1.2347715218766024 -0.755650561536034 -0.9615941249828213
P 4.176389665338357 0.588078118697675 8.285979203491706 -1.1439614437715653 -0.40304664578380905 0.35973152793594176
P 1.175807763866913 2.9873548954995988 8.281605486007107 1.273464053350794 -2.9859501421387415 -0.8313546372375682
Ni 4.366129754544966 7.001563856595348 8.460498868262725 -0.03791965786390889 -0.5694443286171741 -1.461971680709321
Ni 5.9108042423165275 4.471083986066607 3.594643085830746 0.7130224424528623 -0.781729260900957 0.581262918518657
Ni 7.910246052265981 5.999243451509298 6.858605401824573 -3.0034030475078666 -1.217480853116955 -1.0273801702396952
Ni 2.3088057421167343 0.8909765554529381 9.386826751716052 -0.6253316267030973 -0.13107046828698074 -1.0132481017136872
Ni 8.998176661018245 7.5764702379721935 12.31570741444125 0.36155392585666124 -0.57156780271808 2.1754618068272213
Ni 0.20629070829375945 7.928934350363595 0.7872354239832472 0.08433552612428702 -1.0284250665644417 1.2362475922014966
Ni 2.7181122569423852 2.7718727295149224 2.4835258728422827 -0.4359410825189847 -0.6422093762950424 -0.743755609870661
Ni 1.2580081727925114 8.080267410898415 5.013763123360634 0.6462647773113387 0.20223474713663234 0.738473021315483
Ni 1.7533089615710962 2.781287135323495 5.616650430260072 -1.331970791337435 0.6983311589892747 0.559178685025108
Ni 7.444734129627955 2.5634724449146047 4.857739721543871 -0.27980930038800195 2.3755483972725995 1.1054764003224897
Ni 0.6649680533418006 0.7998095104676723 7.343610296648727 1.2503169258103692 0.0946289376304951 0.3053159292995387
Ni 8.834459675628766 0.784384873050363 5.269627001344907 -1.1250139561347852 -1.6656963821279185 0.35249078721312843
Ni 4.90366890729455 3.099175554342318 1.3933311229119758 -0.4733269793666106 -0.45604685212992424 -0.9330787911519479
Ni 6.925218177650206 1.4912606152138672 10.549686663136589 1.4397192970690236 0.024885450387770045 0.8951143960930326
Ni 7.9122319766753515 1.7972896931842794 7.471582516183129 -0.5019101903209421 0.20493903344167283 -0.07514691764648349
Ni 4.7213104616473 6.9323468968744075 12.762899184402832 -0.31270553689539055 3.3969569233098915 -3.087432098135328
Ni 2.5949755759934408 4.135078690596262 12.414956797069935 0.24842307276723666 -0.26960999125749696 -0.943984125210542
Ni 3.124599133809449 0.4371300652063705 6.443906914876122 -0.6483116325380384 0.007972733792831432 -1.8792298421068214
Ni 3.730680781386225 2.786907676104732 6.532901620849438 -1.1040862048431823 0.3234193237684688 1.274581711895005
Ni 5.796370032010532 8.6683726955432 3.2673899091135845 -1.3587478023209631 0.7801593453106758 1.5934098167483655
Ni 3.750895993062742 4.587485385646035 8.500409391593495 0.7801811996875467 0.3339693313701732 -2.0621010971151774
Ni 7.490035688324729 8.278916057243286 6.82431541927504 2.414769033336119 1.6691442314672027 0.16963650148563686
Ni 0.05595435699081291 0.8047190528400833 10.598633142529994 -0.8501961954241034 -0.3098395282015051 0.14969811069049702
Ni 5.458669206737846 3.8683840305265433 5.903087239823888 1.9072890622368828 0.33670884178852334 -0.3577047273139001
P 4.034723934947266 3.3441280891566163 10.12306138865035 0.03919621058348734 -0.16690804681088028 1.3314552851535972
P 5.643622468712434 5.435962221981646 7.276017673213565 -0.16363220427308595 0.9772508576834719 0.11597140786201318
P 4.919359583642171 1.5117568539294464 13.498475281308929 0.8961016997069664 0.056835006711173086 -0.10444001018364595
P 1.522698173316922 6.505888365098015 9.011326852932749 1.3864961760788252 -0.8369809822854101 -1.2389163972829116
P 7.126667726817726 6.535658496102636 13.792233781997103 0.8472869921971086 2.3835082755496244 -0.23214696131503246
P 3.9425751688388777 3.3697483875510907 3.925899961097743 2.4947712221923743 0.7365413515104089 2.214564686365954
P 0.5338736234034207 5.7584032790332715 1.6753398830969728 -1.1435043016294888 0.00538080469593912 -0.26481488386169877
P 7.891801310935553 0.01252631188778461 12.440705431145581 0.5380249337656282 1.3481535717448847 0.17212635778702612
Ni 7.685283907496951 8.218232951941857 2.3472727232235235 2.119432069626163 -1.3525283037738127 -0.24610059528164713
Ni 0.388078669051714 7.156334814574691 7.018605336244059 0.7004456342291163 0.21522730274155838 0.748880332691736
Ni 3.8693020521874786 0.48786668683860124 3.8861121529073626 -0.8844137218460768 0.9532514094450809 0.8329188964008947
Ni 0.9945078534001294 3.7176785970456288 1.2562770462318904 0.2725166233813307 0.8256395891306619 -0.6350434546742224
Ni 5.374866943689595 5.210690947469648 13.5745127672679 1.14313097745047 -3.9130814574580026 1.0666838529353242
Ni 9.082915680863369 2.1637676872569007 0.009168038770995212 1.06854301763125 -1.4391747374194634 -0.38338516279913976
Ni 3.6834776063917984 9.155261408285865 12.98077101697633 0.9138867916045293 -0.0409702717647746 0.08844209209349284
Ni 8.050347398806293 5.411700220942638 3.5058956836518034 1.659435231709555 0.20215195761483895 -0.0753286946399864
Ni 5.399269458248134 1.3004338881228859 6.572386856594428 1.3060962375635183 0.7401108140292221 0.05241142372218071
Ni 4.520029528703217 5.271645712242169 2.089969986799253 -1.642390874632759 0.5760579772789498 2.1045641513753948
Ni 1.8094862666795648 5.124125251870622 5.869963519486461 0.0557757122087233 1.4664734252344165 2.3756450707514634
Ni 5.927085075446177 2.078991197139902 3.1476986196635384 -0.34895860569015386 -1.3901677113931414 0.30176420739253834
Ni 5.58556228244225 7.131435818913809 1.4738247609536714 1.7377037257041554 0.8256809838915585 -0.7340772062406324
Ni 5.991796234974158 2.5904885109364195 8.715950573256375 -1.5626568518362247 0.3048698429010556 -0.24785511607890862
Ni 7.589331908793258 5.36193033232478 12.01007552135271 -1.3442850899284138 2.7518311446990027 -1.328120050132777
Ni 1.834450835316228 4.401136356044106 9.776065125682296 2.2217997706618124 -0.8575960874326004 -1.0742246413970598
Ni 2.760566074976666 9.129313245012487 1.9028500063534974 -0.8848089004019665 1.99391981215325 -1.5310888472219566
Ni 0.11798451856614355 2.871225155391263 3.756562434927026 1.6392631276370544 0.853552513490846 0.17027979149659062
Ni 6.47164053660434 -0.09186399204213921 0.7302365831639209 -0.4603398230783233 0.983183935338455 -1.3883586832088606
Ni 3.9325893413842126 5.430969308254314 4.972741606468771 0.46909520067345023 0.07735575237234418 -0.9301094241109787
Ni 0.5382473408880203 9.154146667697587 2.9643490853251966 -0.06793137373465075 0.7118891001793675 0.3500824348819519
Ni 0.6579976460162693 5.585768368937563 11.107809172983862 -0.7661177796159451 0.24710949616213568 2.182917491774318
Ni 8.362090693237631 1.3722456641711633 2.452993221805007 -1.2636720069610368 -1.1592919034810487 -1.4840947378606053
Ni 1.9406884236495852 2.1059791604578106 11.257073874511185 0.16528336672326374 0.5083988833690792 -0.136273609754475
P 8.513657942971669 3.7014914395956646 12.44422857345862 0.8631913221321907 -2.143508393849076 -0.3971068832606064
P 8.592214367957432 -0.1918215628092604 8.694768628565484 -0.33983787433580825 0.07663352949433899 0.3023411629419309
P 8.984846611798744 4.314898525323986 5.516523306512717 0.028237654689454595 0.08170605892123992 -1.3346036009745919
P 7.739737580099174 3.369739019983122 2.4891201844332076 -1.7044380216724904 0.8192727663723697 0.2760007252751892
P 5.524495106854106 7.050678015455396 10.585580373322367 -0.02556267896045275 -0.8002766848858411 0.5440875950199404
P 8.505386380455281 7.77823828445065 4.325556944158807 0.31485575046917386 -0.33560969518707356 0.16428526447605254
P 3.334189099541795 4.429932259979981 0.6137283933096491 -1.364385974443347 -0.2206003941280136 -0.21772564368337988
P 7.822865378253676 3.703121396422224 8.92615786171786 -1.846065182429395 0.004081112047909101 -1.8619093485505032
