# total energy = -340864.2130124987 ev
CRYSTAL
PRIMVEC
9.26688913114178 0.00000000000000 0.00000000000000

0.00000000000000 9.26688913114178 0.00000000000000

0.00000000000000 0.00000000000000 13.56302895493386

PRIMCOORD
 96 1
Ni 1.134118922543383 0.07072304217108928 5.555931690470557 0.1638450916148404 -0.8988031577985294 -0.7537253194888632
Ni 5.23809964414241 3.2041658162277162 4.84194663349164 -0.19208506029714015 -1.0303559650385674 -2.3869520111238502
Ni 2.309169693047889 6.448179254423471 5.738721072637901 -0.4055835532730499 1.9419493326232298 1.5053243366633429
Ni 3.69146516534152 1.3741035425681083 9.095041789939486 -1.5592604245601662 0.9081684010635134 -2.3818211176551882
Ni 8.353210658715973 1.5682263297742691 13.050806964906181 0.4673908163878338 -1.3022501243445508 -0.7187513745168396
Ni 1.135657226089126 5.890655421757621 3.7695322169102075 -0.13469135286901965 -0.17255058980863833 -1.6865814531070438
Ni 8.958505303299322 4.116389085742098 12.153463538785774 1.2940966419994808 1.0301878148918195 -0.4358068709339656
Ni 6.888449142726159 7.760139040499098 10.63801214089708 2.469371551172347 2.1584961255071597 -1.5469638665810004
Ni 0.32881238290254927 2.1736321770235763 4.938189760811051 0.7868452419712836 1.2709518284519015 -1.030973286907592
Ni 5.949120223384681 8.360503700225006 1.0502507985672556 0.11050035744511293 0.6675843647247213 0.051599212233530485
Ni 3.684718870273443 7.477332127191976 8.53376301391981 -1.0027448881895182 0.19529945346937977 1.3733683804476156
Ni 4.798154096948764 2.1401509076815937 11.979653771894483 0.05619608757559355 1.1679398089640338 0.02939953620803969
Ni 4.495729179989004 2.3207162365297913 2.6591949111706805 2.418499189802512 -0.6910989029068936 -0.42038976504794695
Ni 6.620320981325403 7.62605642602106 3.3245556757708763 -1.2289736842479029 1.1475350200554366 -0.18430567346203744
Ni 5.949120223384681 6.707281466104027 12.531831536394435 -0.365006660291952 -1.4273628323862 0.31395432170082704
Ni 3.291598912336659 7.982776044634482 11.170754459454344 0.15571680608075117 -0.7900951163671489 0.44360117016740375
Ni 2.8772855796461756 0.9360577075845672 11.18312390266433 -0.4482828919137892 -0.5131783070355935 1.1583971595809213
Ni 0.057236012168232375 5.926036403309707 5.932766944666775 -1.3488989345513416 0.5831768477119182 0.39818186149234003
Ni 0.527919829610247 5.062065823931973 9.790011191039701 0.766335552053706 0.148612333825486 0.5835285746243821
Ni 8.216903990918789 3.65579691023571 7.149587289882616 -0.901509500986099 -0.4967507576071896 1.0369739845757173
Ni 4.453018089372564 0.3947259097709845 4.353908713338103 0.5967283611441078 -1.0463775372778044 -0.5424803984338206
Ni 9.065324730840159 7.377889143159642 9.593997958512265 -0.31382190988802083 1.3336587205628192 -0.1748697248601182
Ni 9.156566518258138 8.32802325487664 7.359516609365727 0.11227390440576793 -0.0016606755318745595 -1.0738052944714538
Ni 8.633218971596504 6.696068530619997 11.886936695774802 0.5725319664035624 -0.04438778208675581 1.4485592639581568
P 8.325308056449515 7.662466032233253 4.528382916158488 0.912448516496106 -1.3007138902056825 1.5941091568082353
P 5.126442900632432 4.5282374260038605 2.5867676881437953 -0.2773474691110708 -1.2503004707501368 -0.7002042076422714
P 8.153101461325775 6.019604179823962 8.054716755997804 0.570577928000985 -0.34021274117672373 -0.4545422425599398
P 4.334615050794508 0.6702453417023713 13.231859732106827 -1.2151650604995847 -1.395695068969274 1.705469034040166
P 7.315263508448012 5.1448469418483675 12.958063014808895 -0.3369602956776971 -0.050052436571700894 0.9847242832423816
P 4.372173751221593 7.42816201506118 4.812949611654386 0.3612649338613326 0.6323587087532078 -2.4043938607493813
P 7.484968043587711 8.363367168873408 13.114254572657014 1.4491886700120395 0.9822015168205278 -0.9640919517040107
P 6.154372544075404 0.5980877851404326 2.8820487605046803 -0.8768395090432448 0.20393167522308103 -1.381097887881389
Ni 2.8145209416020984 7.968514302725455 3.436301381413621 -1.410544218166964 0.033227137484245994 0.3617850680308608
Ni 6.075186979024963 7.222640954594394 8.328201179142171 0.7767657462480945 0.4346588733724514 0.27586008593226685
Ni 3.8408103457222005 4.840457444456695 12.337541018500454 0.36175781433735116 1.3178988866254013 -1.3261593268619807
Ni 0.7721282975635845 5.136997887009548 0.9049682222495494 0.11850754402030558 -0.48137941735744194 0.24556169205904158
Ni 4.315590128026976 6.5645806450142965 2.3649989914917615 0.2012495004052276 0.6237889648063256 0.7320293225726683
Ni 5.333483730867301 3.8391979070658193 0.11443588347002862 1.7054114413293533 0.36914485083004167 2.0041797993183614
Ni 1.021155547708406 4.322345689983884 7.5770132702672335 0.3620252090661249 -0.9367184447870642 0.3725582473869648
Ni 3.912721403041267 7.147495753073736 0.10723180409376026 -0.23567708595547798 0.30199972044211215 -0.06750611327177405
Ni 4.704419516435574 3.2749741137760395 7.077337064432379 -1.7900716977829108 1.7517686884376542 1.8152970480086026
Ni 6.1911991602849366 4.338525677880673 8.6053080291301 1.3119493539101859 1.200093510878443 -1.6345844912144625
Ni 6.31554227460288 6.12967628534405 1.2794246660831634 0.5665505520091468 -2.13367906646348 -0.2540255065556786
Ni 0.18659807347638221 8.135003227441223 2.755234166935836 1.3677019261904575 0.2278755876331882 1.188107285050844
Ni 6.987697522093067 6.902608948858058 6.294371140382371 0.7836521889552827 -0.5561409266400487 -1.7623189531496748
Ni 3.2640299180680734 2.573665234027374 0.5086011464668116 -0.6383948876449586 -2.740562513763719 -1.493355080116609
Ni 3.153327664107562 3.267940545154239 10.596699423805054 -0.1730504122631923 -0.8815914219059333 0.9043012047986232
Ni 5.6113143248728345 8.852316024198911 11.93617074943852 -1.7173534441825775 2.6661974685885825 0.49027954806054913
Ni 7.572011930365804 9.272819638627686 8.644544963124256 -0.039207523437396995 0.043081404570506444 2.4273571544137744
Ni 1.5209003285206 7.217970442624187 13.199850971399895 -0.19127387724975445 0.35427976079275114 -0.5634606002299135
Ni 1.526914539371125 0.5411344130815084 8.824187309845009 -1.810575731273533 -1.7143858769138216 2.2326508544437034
Ni 3.9170119725694534 0.14234775262531582 1.7034218976007636 -0.5513334779490763 0.12202378470368018 0.41650817060535367
Ni 6.235068612005099 1.4943970264674387 0.7352201327323502 -0.577311904290709 0.5878153749251941 0.059060810717898274
Ni 8.716509768398536 2.919496258265808 9.834755437065393 -0.9576197137161057 -0.5189234370494868 -0.17483912873249888
Ni 4.599277395772928 6.054160408270199 6.2508204696379535 2.007802226562297 -2.104510929539956 3.3126352811426756
Ni 7.292698634147506 2.503440750475326 2.9730431219909064 -0.9558898755091926 2.6105323138157943 0.9341116032918364
P 5.161935084850476 0.1363919231744184 9.649185988249117 1.7544953433401977 -2.3865383206251995 0.7974942370446975
P 2.9697969308338354 4.909023154908213 7.273703365424229 1.0755078789848576 0.755860363553995 1.0617514486307134
P 5.150787017588255 4.595431636908571 10.389008984663217 -0.3396843794770795 -0.686588930851682 1.570506944008263
P 1.6833025552624354 0.5185806590475981 3.4330468500566034 -0.07000933930960201 1.2643219818402096 0.06185380008200315
P 2.3133119923547993 8.69183204344484 7.256125004003026 0.20398386861725515 -0.6856602483898256 -0.6250264367578525
P 8.471854636403602 1.246544817826233 6.484782538612206 -0.24311040230507164 -0.1352189432377155 0.8971998178671515
P 1.5401754572865352 2.630119120778373 9.384503256115272 -0.24528606980015172 0.6296505657934253 -0.845908623792343
P 0.0956472663676565 3.6997868315106595 2.762273295690935 -1.5413177240388165 1.14858942946188 0.8327520318057271
Ni 7.616659800747668 0.5755942658839158 4.432804224768172 0.9505682061859628 -0.7769884037818618 0.485618395139454
Ni 8.045244142236006 4.030809367399111 4.930920813212975 0.7072816833143432 0.053507742110153016 -2.313402519871474
Ni 5.0278432034836085 6.688877424888091 10.24737014903338 -0.7507811492588747 -1.0095719384136805 0.9561086763882178
Ni 8.63422906247895 7.17264608935775 0.936312547027386 -0.8809378474823344 -0.42106082297304265 -1.1248296080381208
Ni 4.569141473298495 8.375377056796799 6.749261399191798 -0.3574193348629974 1.8593971236516105 -1.276649650167627
Ni 3.0661262402193636 2.1401138401262743 5.084521348944287 -1.1510258068175143 0.3672116383630708 -0.558460833022477
Ni 6.13835936017755 5.39698972001776 4.244074766860941 -0.32241093710861246 1.6006623845457209 -0.8929238161996171
Ni 3.1484069461389503 5.299186975308298 9.717340248836592 -1.0190443966804903 1.9475211702840525 -1.2789692994397392
Ni 2.731396948799002 3.479568485359848 3.0437745043619424 -2.375858729424166 -0.21106057295837843 -0.5378274730428415
Ni 3.341982986904154 4.593689461808573 1.2178637968980746 -0.4059699900781912 3.084647079191023 -0.478764348332098
Ni 1.8891479568382639 1.95568421863606 7.081650801182641 -0.3028553835741881 0.6852833246663811 0.447448568937952
Ni 7.492353753985043 5.64674164086907 10.17370950310325 -1.0457851551094441 -2.2976699396275655 -0.48065950847228195
Ni 7.900810412935108 3.496573226362488 0.7404364644546314 -0.2691531062257364 0.43440381993885185 1.0452483087693676
Ni 3.5650740685921973 5.279031492103534 4.375338393756961 1.363790506951193 -1.1008818389732717 -2.4814847894961134
Ni 5.46545349469215 2.512457433306699 9.820677179555197 0.9652013827181056 0.11805785807739667 0.4216107819392417
Ni 6.648844465143455 0.019579082719552065 6.649938884714252 -0.25529537440703776 0.021252481620873075 -1.6520438243414903
Ni 1.1449426486965621 2.3770774543924924 11.868423305270674 -0.09373907882637404 -1.69646323099713 -0.6347817163724034
Ni 0.33640752498743415 8.960886893728576 11.74482339543688 0.17807254806813202 0.6538438752101772 -0.12915576776277113
Ni 0.8960089941289215 2.506239350901919 1.2074079662314376 0.05032060263142301 0.7256897535078858 0.32410323720937084
Ni 6.805028609480511 3.250148118601068 11.987126591046813 0.06269069416100172 -0.44662118794065014 -1.4649389908677608
Ni 1.4754462388105456 6.683409960478523 8.008249795338655 0.38404413653937725 -0.27404077333534094 0.23643299028489606
Ni 6.599211008571172 1.9940491383913352 7.931170594119222 0.47273511141888264 0.3181259365800134 -0.6842679960279893
Ni 8.312158341200062 0.8430190704224927 2.037397790959264 1.0535835681079404 -1.341399797960819 -1.624876777008395
Ni 8.118332094436454 5.7666181147710605 2.856726060088433 1.0763398879678494 -0.8778103575969463 0.25301840544740295
P 7.683307265211421 1.0222212399238302 10.520705375267587 0.8334770828972096 0.7661630310315838 1.3720226650529983
P 4.802657804920036 1.4333930973010194 6.254400268792896 0.9151772282811786 -2.111872255001034 0.12396985268645748
P 6.3249667005427614 4.449190864285866 6.085025634895537 0.354201599256648 0.40457696638540647 2.5763762367593754
P 1.8477434975468219 4.113442215094229 4.83269735175064 -1.470521884272177 -0.47078415834009896 1.7010192257989287
P 1.4844814554195778 6.9628529931404355 10.818753540633045 -0.2437122975551287 -0.4804934152080627 0.43120562471652835
P 1.9257336339382218 4.094102218106485 12.738436822854306 -0.22735545346366007 0.5410824896450295 1.2103858939433862
P 1.4035166477138195 0.8823635003270754 13.599920169270128 -0.2857110105844176 -1.7735459322137457 -1.689395268406755
P 2.05981624841626 6.818502665839006 1.6868063659289738 0.3238034465807649 -0.3922780944133954 0.0867734461418183
