# total energy = -381176.1949714953 ev
CRYSTAL
PRIMVEC
9.18041195042600 0.00000000000000 0.00000000000000

0.00000000000000 9.18041195042600 0.00000000000000

0.00000000000000 0.00000000000000 13.43646085971526

PRIMCOORD
 96 1
Ni 6.222813578120221 0.48913968230236804 10.124091059506814 -0.7415663155288261 -1.1222680179585316 -0.021487994670446865
Ni 6.033798080625375 2.4626454516000176 11.312491688216754 0.26361237891316536 -0.5336867114015905 0.5704596572555659
Ni 8.68807544706863 5.763903155624111 2.6750645727659323 1.017640831464744 -0.6965925790316133 0.9721073658093196
Ni 4.2359337849870045 3.6253262387546834 1.454523322523646 0.6260551351326832 0.9243923191215435 2.0809197724835777
Ni 7.099597982595566 2.5665126301252834 8.86827866732586 0.0515588459138983 0.2140116851669024 1.7341376056194522
Ni 1.967775356284085 4.510391374627393 10.644524929378294 -0.7202971217374047 -0.20652617542313462 -0.3548037516170212
Ni 0.5311501645057859 2.9157446734591748 5.549755362925908 0.10927111302370213 -1.130594535546356 0.8776203530733272
Ni 3.3785200493015055 6.851010793263134 4.505997629564446 0.46830741466483217 1.6386697170274294 -0.1333140129055188
Ni 1.0568306396916713 5.537606006017623 0.6957430126254549 -1.0244126029709388 -0.7144684308707696 0.16795757112131718
Ni 3.0853068784584377 3.716662155242916 12.932122879959174 -1.6202163954182485 0.1969606432218866 0.975009884168095
Ni 7.281544563043883 7.657620130331095 7.82210281350978 0.5811418195597604 1.3425015156654299 -0.3048461887519718
Ni 8.468268848568503 2.843806966996033 11.02257336715031 -0.3923619123764533 -0.8499426846524007 -0.8763088333507554
Ni 8.706886110741804 5.0598114765543505 11.773886330132076 -0.031113690685668997 2.4001479409888344 1.0046673020232115
Ni 7.175079327993723 0.619757662622293 5.279641944125025 -0.48986868577537573 -1.6483545484153612 -0.4821101248758794
Ni 4.1684852998689985 4.74552926074792 4.149743489283941 0.9275812583724863 0.12272698141829186 -0.5941346322750025
Ni 4.190169432419527 4.742839400105539 11.351148566008357 1.2584668086110133 0.8016810214325355 -0.809937862124689
Ni 5.503317168136071 4.684782476206495 13.260429092752982 0.7396189619944681 0.4398782127898618 0.1674595484389761
Ni 4.342059344802461 9.145572086155434 11.897421622787844 0.4423238461168769 0.0962901273830019 -0.08233186543069691
Ni 7.300474572069788 9.010867904566144 0.6527603248178453 -0.6855543189395806 0.8687814146254587 -0.2698488467411804
Ni 6.432852218519687 6.880452373741348 12.600202339059885 0.19485645239469024 -0.5442601160420627 -0.020069259946049307
Ni 8.40028789956907 8.076687565837664 12.20280526548622 1.4923446365742234 0.37870472660433485 -0.3759395051543719
Ni 1.2017342587338136 1.5742570066742627 11.331947734835863 0.8321887031030893 0.2696742688365291 -0.6458932529045328
Ni 2.5185541591498555 1.5670962855102442 0.24262175777810094 -0.23661476727839892 -1.0762272736493852 -1.2299571312070947
Ni 6.8816733685039315 6.790438436544934 1.673014368020179 0.0009867893933015264 0.8612172291249555 -1.1443661354091519
P 1.3712964637330767 8.799947944638799 13.106380865567917 0.23655434635410874 0.09295720635502701 -0.3717326661618759
Ni 2.8470935544020826 0.5324528649329323 4.177489447712164 0.7622004468394098 -0.5446753492026103 0.7265790980913744
P 0.6454435366540979 3.8973510192816545 3.6738639937114566 -0.2407326461015144 -0.01940488688917303 -0.33324787982311643
Ni 1.3659810053305552 7.748891783937087 3.5180283403589123 -0.9004072690608558 -1.1310740462859359 -0.4127073088020247
P 3.5439143473668397 3.7064443569665664 6.064143013619667 1.409929981621733 1.4271414604040131 3.272772383509467
P 3.122056066688651 5.404939875836554 0.5860214855280163 1.3484327935482003 1.8281471644983933 1.1790780849690403
P 8.111811821188352 0.4809048529637465 7.638668088316992 0.6461876442165001 0.06548856862111302 0.8164512377631746
Ni 0.5263442189553195 7.9310403334438755 8.244007914287886 -0.22008000284816934 0.2199100529292084 0.48462646353982985
Ni 8.396514750340335 7.545958782231147 5.335914195980113 -1.956339797016947 2.234115869025004 -3.2044900541933004
Ni 1.528795607694493 8.63400282186854 10.520614157882 0.007857291260889694 -0.2804219942713364 0.14082754767374456
Ni 1.6794920665500912 0.5005573603942782 2.257540364474325 -0.19163588857486352 -0.013404446331364011 -1.4561126508253825
Ni 7.336920806712294 3.1677561563738883 13.11186248942309 0.5542614502291486 -0.18317027430601357 1.1375632535547053
Ni 7.5117066659965905 6.985109067677006 10.153839265737437 0.21467323001030122 -0.6421289007660941 0.26630869479840585
Ni -0.18429768389716872 6.208978697614867 6.82647430678227 1.9876296082691642 -0.5658033894304773 3.5415369960475327
Ni 6.138353790031796 9.052244020317724 3.1795364607298744 0.11845535062613145 -0.5226934456148805 -0.36900523992838385
Ni 4.186919566660472 5.132529518016135 9.146790326794493 0.46919933035148226 -0.11909272709981426 -0.8859047045693065
Ni 3.548385207888477 2.2280859314196615 11.520730049872292 0.1913615518675543 -1.060215471602161 -2.0319569694316297
Ni 4.341040319098351 5.875885818135265 6.691894978792763 0.8318236064541867 -0.9021715600501301 -0.5449486574686551
Ni 1.480910580013055 0.7897026907914786 7.161311464494135 -2.2176394686365355 0.6620919741515824 -1.1854870738191776
Ni 4.628882949068405 1.5458987147823993 5.842334167317138 -0.11314473704649546 0.19883703430899305 -3.01725512289961
Ni 4.787217510498957 2.9453698621723645 9.592759122848403 -1.2070725132994373 -0.4280583373367983 -0.6717395245436754
Ni 6.501668584988257 4.468023774406949 2.3486660495335125 0.225175929313838 -0.45387195596579255 -0.18447588049131455
Ni 2.241342445984845 2.785061512215833 2.2608728539391185 -1.7969889937280343 0.954205288717918 -0.726564185693039
Ni 8.41400343472169 4.109519515206829 7.299383939154038 0.16493343958301274 0.5165706205465942 0.5169282609963292
Ni 1.6149354111329384 4.985101285743089 5.659020623559434 0.8996927594923344 1.2559640967938175 -0.6332094867892772
Ni 8.351135975066304 5.096597386431559 5.058827336414885 -0.7895762677492015 -1.300854786658921 -1.6904923581256757
Ni 0.05603172506727138 7.620347658631203 1.1459944707601522 0.17682222060079872 0.9902066465131915 -0.13189939194617928
Ni 8.635012667160902 1.0163725651149658 2.163082189950345 -1.0664321419358342 -1.2741407677028442 1.9083637833583005
Ni 4.994419403668061 2.091811899421337 -0.1310742467838375 0.25394348836483366 -0.8756200348138469 0.26396462004626153
Ni 5.583443801879092 3.5565557743448575 7.5279789458212365 -1.1969194840258353 0.21669154599191068 -1.7917184893577143
Ni 3.476043563308391 0.572122342140421 9.779754929758527 0.9940406755473009 0.5118626735479637 -0.04094173251968433
Ni 6.327580436996864 2.1019287131684505 1.8067068682347578 1.152406746325441 -0.3088730505231777 0.6591393192811615
P 3.5133619370670264 8.642705852206348 5.954286534469521 -0.6056092085735054 0.3749683994903542 0.6781549411517159
Ni 6.400904385634067 5.544619840593662 8.43859408563187 0.545938275075434 -0.04247590977602362 -0.30115588438457813
P 3.9791209467276984 8.366118407040252 2.620875356336634 -0.004937289400617303 -0.2519349425752371 0.940118985828181
Ni 5.654481827990856 1.0137102457078306 7.688637987506569 1.0119954602535088 -1.1444676939840224 1.5257275829100434
P 6.74777706314853 6.223245057472413 6.258017703053122 -0.4533703337390257 -1.3464018791611008 -0.32518952829501413
P 8.034604558381433 5.091437995028766 0.534863641058152 -0.7390373784593853 0.17400146332255195 0.31693191627191225
P 4.996833851957981 2.708377532878592 3.471551587839731 0.653285688713862 0.5102199957382181 0.5182937738852881
Ni 3.320628372813939 1.9897899836575679 7.6422961870400945 1.4268239291635942 -0.6838041690176933 0.8174305709573084
Ni 0.17244760841189266 2.229674142652194 8.775057094264437 1.2512296674326258 -0.2521480870273077 -0.05211600396894896
Ni 2.502975000412241 7.532895056312688 1.2444874362477047 0.23941829816546506 -0.12552434165777093 -0.3134213320154925
Ni 7.621403405982307 2.2693977842890005 6.6174565281692646 -0.5589061480900116 -0.27351498273885794 -0.5212196892828314
Ni 7.726766991622619 2.658904293964622 4.16088208285869 0.589416657974043 -0.22970415620149473 -1.4101184434834553
Ni 9.261107568013353 1.3729672986713477 -0.03308712198364072 -0.7705151373526924 -0.3838973265488679 0.04351926343887344
Ni 1.605084829326538 6.836340495288644 12.120856320011075 -0.34209556002173347 -0.446558967244147 0.19921498647370206
Ni 0.4074138208327177 0.49841281620977224 4.6689416757340405 -0.4059846453662105 0.4295863439455505 -0.16716310024447986
Ni 3.316616532879739 7.087810333910182 10.186624352174544 0.8398531616268826 0.062092398455370484 0.8205207798468579
Ni 5.104960741534663 7.886194022051271 8.627054168215917 -0.2769849435653294 -0.22408089647744633 0.02981296959637446
Ni 0.7526083190795121 3.5346329510888617 12.782091082914183 0.8605009197842212 -0.7137410657864418 0.8319742730994382
Ni 1.4403423404953646 7.772476261719604 5.907957586579495 1.458575253433262 -0.1702741350696358 0.8337766164154996
Ni 2.4820895636838527 6.162608437871973 8.076589335431954 -2.008683600725986 -0.11106060082395712 -0.3980779889246241
Ni 9.016201723792165 3.188549788984789 1.754398718172776 -0.366240275588737 1.4672853796127503 -0.35517707579603996
Ni 2.7799204816365384 2.929597914788026 4.4093086149855205 -1.1481245740103194 -1.6254380488285038 -0.8084515073871497
Ni 2.1086120529215346 5.33629793719121 2.9821153782378786 0.10168944402170228 0.3427877009927516 -0.518419757940191
Ni 4.651402499088069 6.2647680598119715 2.1290072556625392 -1.3110697795187098 -0.3836746690151005 -0.1771783183886368
Ni 2.8625717286104613 8.464403895222283 8.059927806149162 0.47854786144591777 -0.7289182877475124 -0.8446878640113646
Ni 5.5061171937194375 8.001169498792514 5.956302552889545 0.6295135259949287 0.6920011030061889 -0.27011289903584446
Ni 8.751025530429754 4.842006207815449 9.44365546543121 0.8208018014223865 0.4480923731695379 -0.3640098435963215
Ni 5.1300508068439745 8.314093013660132 0.7247824910690753 -0.32830750509870554 1.1748679035424348 1.0240433925569783
Ni 3.990816791295596 7.017892318031763 12.741513662984746 -0.2672880279925397 -1.9773680784421557 -1.2181177153700053
Ni 6.730416904531659 4.560525603187273 10.697572102586049 -1.348228390846878 0.8150240183983447 -0.1879360711257731
Ni 8.527473323936139 -0.009498972036423255 10.027979492826884 -0.3969629014835744 1.471671424495588 -0.4988294945130893
Ni 6.1327629192768125 3.928564419227377 5.2016029360136695 -0.2798290978823439 0.30386582711657345 0.2899589872274942
P 2.37199806599294 2.5071429073461693 9.589494568430549 -0.35226607279683203 0.0026821748178534454 0.033904108946612575
Ni 6.249473493838568 6.226660170642945 3.9284579264510917 0.3539933399005839 0.6490909339062241 1.55734880935975
P 8.296310556102819 8.118706310411657 3.096741081291496 -0.38926810394247796 0.09911859797073252 0.6686441734478032
Ni 1.9425751260337885 3.727375695753698 7.666978642067763 -1.433325734837854 1.2532322996849512 0.55524361163676
P 7.462104901318138 0.9409095805403072 12.13796126318133 -0.1727249106029735 0.10032033158831755 -0.7681412378038771
P 5.48107303046887 7.357053449677285 10.704075506268858 -0.7753387839935808 0.46468858696532234 0.48567984450500873
P 1.1372785878458966 6.535773814634833 9.886547905508117 -0.5466718108073488 -0.8202063339302325 0.1920585779345789
Ni 4.088101614597014 1.3223556887005337 2.016261700935065 0.20762609335553275 -1.4816336779146224 0.701924789877804
