# total energy = -340884.01694147615 ev
CRYSTAL
PRIMVEC
9.14198326596745 0.00000000000000 0.00000000000000

0.00000000000000 9.14198326596745 0.00000000000000

0.00000000000000 0.00000000000000 13.38021659557297

PRIMCOORD
 96 1
Ni 7.414980481450365 0.9487641822500809 6.723157228663749 -0.17482447344447957 -0.27525947623379043 0.4908274501442192
Ni 0.7333872804467847 1.471649066457938 12.371121215245392 -0.38732434995254583 -0.38847928949259547 -0.11101920606306041
Ni 0.43615763001150293 1.4172176971213832 3.358193337868098 -0.5313603772612591 0.2620175236222197 -0.44428405516704134
Ni 7.180644020213565 2.6747249437372895 4.964408743608257 -0.11329540369174682 -0.007813839617463963 -0.3110142652358966
Ni 3.0975873872479274 1.9098791841128062 12.315513272641518 0.6949499012218676 -1.5762417896095111 0.19826599229687145
Ni 2.738161166751457 2.0003208261763827 3.048267300846554 1.747388042871455 -0.27030830287610225 0.7515738203634992
Ni 6.190722628565908 2.049760672560677 2.10842752281991 1.1496242984842975 0.19801582395927833 0.9123896382337124
Ni 0.21910408844731924 1.7953118477799705 8.31236580263085 0.5959932827502961 -0.22422102159973645 -1.132545745735456
Ni 4.5425967139936185 0.2005431194913221 11.13884310029863 -0.876810198467206 -0.7338442642942201 -1.5523546985792682
Ni 4.932374319474529 6.512593581135847 3.3029062788825843 -0.22550863006290842 -1.7762800433154569 -1.0015632091765911
Ni 2.543930586817893 6.999404198732679 10.699276424666436 0.7371165072875886 0.45906584146190615 0.14326392502937907
Ni 8.326509365193932 3.7545394584427805 2.257282782201735 0.6312914438309579 -1.3218861534079234 0.15642180256757576
Ni 1.590604554836717 2.9639498734820964 5.377763524352685 0.13512432664138016 -0.7632792817258854 -0.6404414857613422
Ni 2.0771866228478224 0.37335860324234016 5.5069360934117695 0.36718258489734823 1.5575452416412723 -0.3876071713002873
Ni 3.3342550542591347 4.234859267804988 6.677517704790911 -0.6274211622422742 -0.4246716802527525 -0.6510593704865045
Ni 7.394977821707608 6.5214155951448785 3.217553978993959 0.45737945489841875 -0.9328265659318258 0.49324428711582796
Ni 1.4524600432403652 2.780817661431397 0.9419012952898942 -0.3816697227699298 -1.46548097941416 0.05021852983591997
Ni 2.9882126975027914 2.1196968457928977 7.641000480361759 -0.9588026782806132 -1.4689488833581024 0.5820517329685395
Ni 8.416850445439788 8.382988538818593 8.981617498331145 -0.36707279879236143 0.32152133541480754 -0.3598667679622254
Ni 2.656285563160899 6.965030341039457 6.557189090501089 1.4152807044106854 1.5704961453749855 0.5439675245023083
Ni 1.4610535076636708 7.286992713443686 4.3592743486875944 -0.7871686867489733 -0.7547373056931453 0.527579312952272
Ni 0.7944374457859705 5.630803569486976 2.5728951329161474 -1.2558735939625405 1.59748192993521 1.044675209874717
Ni 4.694819880070705 5.643712050088792 7.685489942719224 1.162002360433676 3.1188108695569254 -0.82172868411203
Ni 4.638560114048341 3.889082028568087 2.161319382147013 -0.8813924185212497 1.1558661656289515 0.4431324580611014
P 4.526954780346516 5.984525192323719 9.842915754123805 -0.5072138619220425 -0.24251956279860815 1.3901396863686832
P 1.3120391777701805 3.719534803892954 7.526224706806742 1.5513712516200766 0.29429386715742223 1.5750369706681326
P 4.225561870657645 5.934756234535979 5.4681868824494035 0.08881155961776963 0.34487929341445767 -0.7482990062669693
P 4.095389168611424 1.9288762256783691 9.657252126861604 -0.5146919154666427 -0.8549751048699857 0.6827554160382048
P 4.418704554563153 6.031460135248454 0.8733236207952298 0.6142319172455099 -1.0779568547459821 1.9345399275330362
P 3.814766845273352 2.0844910676076323 5.4023024362729375 -1.5425374553785305 -1.8496318167347308 0.10108009257247752
P 8.620698391940712 6.727320487917338 5.137428093589744 0.44640624371636667 -1.3922320501213379 0.7643270062641094
P 8.103691803077734 0.9155787824026349 1.69713334514039 -0.2649411250269179 0.9769302411192595 0.16580041556899833
Ni 3.688497770151334 8.156633029115353 4.378154372865265 0.8782505304581585 0.5683991751821114 -0.22322549045568651
Ni 0.21466931228588784 8.298608031768476 2.2329980174208104 -1.678864286968444 -0.5468996105474387 -0.5167151165442585
Ni 0.3947106197392258 8.157291251922244 11.231795131011825 -0.17870221123233093 1.2492666301689839 -0.6765796262447961
Ni 2.734147836026105 7.2407434192761295 1.9343111348269384 0.5998211411368186 -0.6912549688687837 -0.5272756656689241
Ni 3.859324872506534 3.920000216525129 11.117020271655148 -0.9322100153937495 1.6437808130017497 -1.3088851131625652
Ni 5.023382764510707 9.129010954562666 1.8151334962508336 -1.5032180889536175 -0.6162260648574033 0.9423404189595318
Ni 5.232935308671356 2.642499452149894 6.881057566450274 2.1493375989363437 -0.6054657410171057 0.06451360630235341
Ni 0.14183695870334434 4.4964205556934935 13.421026816964408 -0.7154637049045033 0.6249978975127624 -0.12394131344136719
Ni 2.5028922232048947 4.880941520702703 1.3501713048510846 1.199936159364972 -0.4052544520684053 -0.04032415354034346
Ni 6.71010613312044 4.892378141972443 0.9980906680398549 -0.6074683732694313 0.011001750427142342 -0.40635694110396464
Ni 5.8240559571936314 0.6642912554916933 8.573896007775698 -0.9574268809790092 -1.3004778629354763 0.5756869670927763
Ni 2.4199561495365662 0.37198730572798283 9.841028848744049 -1.0768001154337197 0.708240961903819 0.1585272789463528
Ni 5.648913838659921 2.440415908450777 11.167262784184514 1.0887341478671442 -0.4568212684021035 -0.5707525059056364
Ni 5.683653375690304 0.9466615260613997 4.691451973375443 -0.7105107317746022 -0.17547007744827844 -0.4462085258832637
Ni 5.474850474170837 0.9346855277693462 13.113361592444868 0.47873143821163355 0.4584750019554427 0.2981618347532607
Ni -0.1575922529449665 4.249705848893763 9.169234767452137 0.9224904741131403 0.30132249186942944 -0.49202172756263657
Ni 5.933613486607349 7.414934771533219 5.511819740959567 -0.16188771077815348 0.08711514575195319 -0.6761461382518033
Ni 7.392591764032625 2.338802762636903 13.505054443454164 1.1143999280643646 0.7077995034910262 -0.9498729798911513
Ni 2.7965144469790735 5.083134768202968 3.9687864110942463 -0.22803165359507824 0.05443771012359011 -0.4057874417537399
Ni 4.731936332792641 3.809171951414774 4.698824068812628 0.7623398006307516 0.23207651308841323 -1.0621977921395127
Ni 0.8480131254735662 7.143070468320176 -0.03401640614114651 1.408689681456729 -0.8845291643780187 0.2051233815383371
Ni 8.70469493568681 4.407130803541977 4.64974533077378 0.7824782232518394 1.0120669369213924 -1.4156360308675748
Ni 8.310437758325664 6.184359808099291 7.450706438492744 -0.6800621854767578 0.014528018412845947 -0.3511095905948856
Ni 2.448899669072934 0.589295908629837 0.9507443358608128 0.024940214885105436 -1.2859012506728822 0.20128780984233077
P 6.463309148469846 4.053674298224676 3.3137980379399528 0.8617147375866644 0.3403564658434396 0.43595316670384276
P 9.168312341324144 1.3042227819383443 10.29386877011688 -0.14325929704368875 -2.0349718449985534 0.6412639816626375
P 6.067324136240611 8.333685822185734 3.455106590001098 -0.43083410030972247 0.30134074670187455 -0.5055323604545615
P 8.83207933278717 6.419116800573826 10.150847924559475 -0.13110080730428392 0.5498625498305045 -0.9403339300524645
P 2.4713980902918222 8.94622613788227 7.636972522462921 -0.5238026195186593 -0.07182196703830857 -0.07626483330101058
P 6.590794107387929 4.56746290892063 7.675186927394686 0.8852981813335592 -1.4599754762148984 0.9443759613323219
P 2.1603512461018766 3.8033210820201835 12.552128830347181 -0.8342332443369438 -0.006493063923511398 0.03936101829612576
P 8.443142789781731 6.441267826422411 1.3063930888044002 -0.7783698575104206 -0.5901262824465577 -1.8967843060508174
Ni 0.45566022326069205 8.26032140516762 6.698858750907681 -1.0123705842047401 0.35673310742925013 -0.4081261171892455
Ni 6.584257589236159 5.1584464276914685 5.560189061084319 0.18005358305390282 -0.22077780024614235 0.14085454425693808
Ni 7.0224877068910265 5.277667033589691 10.046121019189666 -1.3604246758027538 -0.7786205400686461 -0.49566498074217863
Ni 2.9364233613772317 5.783154723332069 12.669566749476736 -0.26809741126771247 0.25918699615196006 -0.8451506625803961
Ni 4.802960402052919 3.7785828748611783 8.90886925099615 0.7839630353274821 -0.2524314225956814 0.6897791556542057
Ni 4.712025092884174 9.110736129687997 6.631797731463896 -1.412740711597651 0.32872865179652416 0.33937224755329937
Ni 6.110401162158288 7.504983308309347 9.744784789798057 0.5353846679293037 0.46874527353319917 0.33541943355313847
Ni 8.214812611657816 3.080336464517313 11.096695814095687 1.2289371745830124 -0.6106848233241998 0.2533513633067894
Ni 6.428359345820595 7.366646815060985 0.924089968975079 0.1295262637283124 -0.00017046413959325482 0.115977064288968
Ni 4.244723467924931 7.800150527283035 13.10865164258222 -0.9873666059612348 1.5711515195707972 -0.0637571877523031
Ni 1.3304694163631423 5.321338288430255 6.013189881365501 -2.0512243023016734 -0.02353562122809495 -0.0051990277024362075
Ni 7.951541772868079 8.678402591344867 4.380214975930173 0.7694208758472492 1.0434909597586286 0.7800243623947082
Ni 1.283104800217242 7.024626931013423 8.640248523503733 0.22463162677459378 0.04366195966432481 0.15447984834985654
Ni 8.491705005756836 3.6081945877105723 6.90603803617015 -1.6469779797828086 -0.35007472157246805 -1.186499574244092
Ni 8.460448564412921 8.894866474977876 13.300899326310024 -1.7464639883952888 0.14829711657791234 0.09726997479776796
Ni 3.968068765395066 8.004117319568538 8.855910655190014 0.1588252698027458 -0.841657561825473 -0.3897123905687482
Ni 0.9690776694294266 5.030678067287087 11.17054109944217 0.3105782061397425 0.1533418780906714 0.12668519473509152
Ni 2.627899704613703 5.019268871967635 9.166238025284095 -0.6151336031241729 -0.40076736283132913 -0.6975027495507085
Ni 7.786867225360629 6.192194487897986 12.277659976055201 0.45592678161229216 0.8185819109529322 0.13815360038600724
Ni 4.749004415854675 3.3864557796390016 13.126955721803862 1.0618501789921067 1.05440246446481 1.754835500288436
Ni 5.359222667760232 5.771864373797193 12.290144268625909 0.2917397332770008 0.33200912232000884 -1.297812143177855
Ni 1.7545568856532725 2.757414183853033 10.409808318162415 -0.19922964176172142 0.47825989789185375 -0.9298564275599084
Ni 6.993434483553511 2.4651541156097823 9.034282636469209 1.1031312971290808 1.6240329409508611 -0.7551376264553575
Ni 7.072110392943902 0.5042599213678567 10.66072833733951 0.7837959136219985 0.13527884994137349 1.0000624562613487
P 6.206876513285037 8.217418076935097 12.190635607397402 0.9875720371038218 -0.6930467706618838 -0.4891091819015318
P 6.875411477484494 8.010151028631709 7.312020721477392 0.08273347174448976 1.0132678992080293 1.7491448776615617
P 2.302362816688716 8.738712256026298 12.294707032555348 0.38663220898152767 0.08336133513647578 -0.3621815321383311
P 4.130869206299561 1.963021533785865 1.2821147234118762 -0.247907823693715 -0.3550780883243304 -0.5138046277656828
P 6.793243330424207 4.134681413389475 12.060673170970048 -1.2685748435792927 0.7728561267810432 1.860913817406453
P 1.357739952931994 3.627356184977858 2.8888292814472623 -0.7327304624047509 -0.019770240648391755 1.7390633250558438
P 9.104720704591685 1.403203036524652 5.520596959249796 -0.10408674060928526 -0.1850579782470297 0.2101285480624123
P 1.9947899262018085 8.857530614653642 3.0250128375980827 1.8974651341679256 2.257576671151105 1.269847282533813
