# total energy = -340866.03051388933 ev
CRYSTAL
PRIMVEC
9.28504342870482 0.00000000000000 0.00000000000000

0.00000000000000 9.28504342870482 0.00000000000000

0.00000000000000 0.00000000000000 13.58959960448254

PRIMCOORD
 96 1
Ni 5.769057391122127 0.36450201680520145 12.216859804909705 0.187310007506 0.10494806016831602 1.6866130776759274
Ni 3.5694956257500627 0.8464199058242949 1.905248176477257 2.5244998596050587 0.27840419251035925 -0.012319955017933622
Ni 6.247042135794146 8.725266621053866 7.666313930820518 0.7339468513103553 -1.6005135176726821 0.6366200551327229
Ni 7.541646439779749 3.2050576757437157 2.878549127667966 0.35151068268804625 -0.7156771064668901 -0.1685854345133032
Ni 7.711822713606916 6.487506187495149 5.349939821049859 0.1067257208940291 1.0156957919232315 -0.849775562946917
Ni 0.9253919847080906 0.4937396061642675 12.197902531979057 -1.3825500469468834 -0.2893696903829274 -1.1748162243688927
Ni 1.8780578556416245 6.653903448694225 0.26741110440185456 -0.5348771321652659 0.1378062443489175 0.8538319924044779
Ni 1.830666994575831 1.0457651432169386 3.1530725752470143 0.7895125043908016 0.08590929836931012 2.25895246845271
Ni 7.842491128140402 3.0247978448794295 5.31667243936635 0.5468674717579226 -1.40938825018565 -0.5768987280126904
Ni 3.2343519873939073 0.4741453792623976 12.45886331679188 2.20563575930744 2.08967077920333 -1.0491610135602123
Ni 3.9277125967371926 9.37371547589573 6.883893043034663 -0.5570454407321891 -0.6874813607589644 -1.011926040468154
Ni 8.588581498454033 8.482119191835618 6.412564745913206 0.393494997539632 0.990033868380753 1.0083092696511733
Ni 0.9476779456661858 2.8456615042559275 6.2495444549668004 0.06521191792095866 0.6411922478844376 0.029121085735672427
Ni 0.9984857026708922 6.478945377561241 5.57463044117199 0.2337821829256103 -1.4621087205078174 1.2598261508523851
Ni 5.090914967767642 3.8064685011656545 8.459837873399179 -0.06714358772603274 -0.23744831892328785 -0.14343464627928845
Ni 5.627395485306921 8.7371793316235 10.266765797738545 -0.9146031009452634 -0.6255074901593292 -2.592968079679786
Ni 8.530150720889958 5.301304764180222 2.0292257887999257 0.033177258082917056 0.7335200481855819 0.9987213688524221
Ni 6.798137311506928 1.4501102093793945 9.735914801959492 -0.43938198987973354 0.311180872720748 -0.35686783323490157
Ni 4.713867928943241 1.840889827262633 10.555734915702814 -2.0245712184905194 0.8666075469025913 0.5841793208345035
Ni 8.917810564220275 1.1042702011275116 3.7281027356101495 -2.7197075246915805 1.1295362694851707 1.5370273241935788
Ni 1.262153077609242 8.075202168675665 9.871662135184787 -0.660827762727178 -0.2522964396797139 0.3009471108078817
Ni 3.234054866007915 6.434683576091681 9.345703428726964 0.6532088127293396 0.6333172160117351 -0.9366991615133545
Ni 6.202000390686354 4.730924553507869 4.230550783896989 0.9732106261758273 0.18003867065556736 0.17724799528430765
Ni 6.425444957995978 1.4754862327518108 6.575572037798976 -2.9604465985509982 0.13138439998297372 -1.366163120948428
P 0.02356915394384996 6.9079236636311325 7.555762491127383 1.3050354003991718 -1.0106937107229497 0.8026130463285016
P 0.30812880483912414 1.0485877963838668 1.7551238821872541 -0.866444796072482 -0.4137612039878358 -1.9785351021670636
P 1.8693856251879704 4.63277236065393 1.4541956284367905 0.08262548541171577 0.3034333675648452 -0.22906780816907646
P 3.661965372096896 7.4025750610486645 5.911054487000906 -2.1995327317334956 -0.8716813618810728 0.0199234783968044
P 5.482530239548984 2.6582614750845117 2.140022353636505 -0.7670935132656531 0.5736475680652442 -0.11600714619595504
P 8.22280650221072 8.98464430598195 9.817466265875435 0.5410907171751456 0.49971678221404914 -0.764602114302367
P 6.7552404114042695 3.5173508225083903 6.997229995721478 -1.3678114551851281 1.3207486973693705 0.6259435492554832
P 5.9275530804624665 6.588806010031944 3.012882348796802 -0.5916537748346778 -0.36264458781767867 1.3150418767925804
Ni 2.057017780442193 4.8862261879487905 12.285106730263506 2.3717138540178575 -0.6211726102294012 -0.868028338509518
Ni 7.598684460846984 8.226306963539443 3.25593228506027 0.10817813706983949 -0.6118073669644173 1.6033196196629096
Ni 5.840004407071133 4.817359021701731 1.7389929764408587 -0.1401264078416619 -0.15445362309761143 0.4976367597565687
Ni 8.014088013594346 9.288757329588519 12.878849966918176 0.17663478718034095 -1.4256849304631445 -0.15636215297423395
Ni 2.716209430396349 3.6722067748703227 9.814599044500607 0.5190537919797642 -1.9623186403082014 -0.9732358229868078
Ni 4.013051429820208 7.676205287461073 0.0400649618924175 0.3825372129765477 0.5731441460662645 -0.6902836060944498
Ni 0.41720392264560974 6.748165208400326 11.832423728617403 0.04289062871593904 0.0406419418910784 -0.4256993501863185
Ni 0.05570097483026942 4.932075731824748 -0.2418735212758047 0.172250027849084 -0.3473377822572792 1.060764916347728
Ni 7.024441672156729 5.001824977186472 13.384478142539466 -1.003644517185652 0.4426308358343345 -1.427609401179367
Ni 6.86615953881257 5.2791042256206 9.669393966157442 -2.848905458546197 -0.5119675745569441 0.7247271324843003
Ni 5.52652277476249 8.736993630757254 2.8668351170252135 -1.8880716087681675 0.9424250082535381 -0.6821982579831541
Ni 5.644953502210411 1.7221712634720305 3.9624962259935947 0.1128176927243799 -0.7301989542321489 1.3143376516367042
Ni 4.903774919808968 6.7271810105146095 11.404907836869194 0.13045726018301404 0.29613606257248354 0.33092308834468165
Ni 3.9756234202284726 3.7035252259625877 0.7112603158406672 -2.313436201322887 -1.1315234751185288 0.8346932146924979
Ni 4.795678445567596 3.3730705344791256 5.75246409021878 0.5512000376950056 0.09825187909506304 0.45592369628849866
Ni 7.715648151451569 2.1219016631082916 12.106253583461026 -0.011237263476716131 0.40461193338839996 0.7946536822721089
Ni 8.178804681953903 1.2153935994886824 7.767706603790438 2.668302944967359 -0.7235554807737022 0.9228583989755202
Ni 3.4588736197277536 5.165056038616067 6.981411995934706 -1.0926440244445117 -0.22982062717470098 -0.6701163871179556
Ni 3.34835374918188 9.042647971553661 9.287308862831805 1.2295321278545341 -0.9759393379608998 0.1399232906919203
Ni 0.6696596077844013 8.474802577705555 4.579763119879886 1.3856669953093104 -0.06740301203500651 -0.7312423078949987
Ni 8.845340801168058 6.1378128862686765 9.616340157175497 2.4028095469813975 0.7702940224808218 -0.6220359866709609
Ni 5.649428893086922 7.7392043063347815 5.404053981978063 1.2669889871494115 1.7518514779594476 -3.2966828715784775
Ni 4.52501943301511 4.460711223034373 11.015688106262417 0.3210672785965245 -0.40828449714398074 0.8021206800731153
Ni 3.657944948342686 8.87894337291514 4.122649295565173 -0.34992174093437156 0.0756714226913858 1.7619397154333847
P 6.383866534043662 3.3785672801199853 10.911728118816656 0.36860569049712 0.31511106101308956 -0.5387301873627689
P 0.8469528673104189 2.566228125773354 8.609650190233891 2.5571199596329253 -0.04682441655270645 -1.3624417062327825
P 3.163330691098403 2.8200997800172662 12.361969247306753 -0.379832669561191 -0.6474325723671948 -0.7978055976375292
P 4.975873281128695 0.9883742905038372 8.490224106142893 -0.10782306772326591 1.0191387561665093 0.6220807238659674
P 8.14954751047696 7.020718369788511 13.39240106999782 -0.4817928507457767 -1.3692214481587774 -1.749512802523942
P 2.2961540709495427 7.9964000060844835 11.90341531277431 -0.13476282953690338 -0.8033072441820488 0.14103143615443453
P 8.593465431236284 4.768343278056291 4.506298000184594 0.905568501546821 -0.16219161517181743 -1.6174935971704465
P 8.030067573134751 3.225800462503312 0.7288331888134574 0.1929587211513451 0.28869708979593506 -1.1373542228676927
Ni 1.2670091552615559 4.701388830731559 7.829607202040306 -0.5504590457639229 0.6041585921699079 0.8795841616679174
Ni 0.8499045825793875 2.8643894366167637 12.451769543701312 0.02859092426381528 -0.6512547743267623 -0.5115559409408221
Ni 8.974653599377953 1.793164704637598 10.095726943387668 1.3011152394091592 -1.052668769603155 2.1779066688232875
Ni 1.8892277627462777 -0.004436393694599555 0.6044888172799542 -1.03859892177365 -1.1372161546279318 1.0177657870783827
Ni 2.3182896142059795 7.894923767724755 2.6224397779857984 -1.1879221656232315 1.2472855951832134 -0.9247095932516461
Ni 6.347237038176782 7.413847103629752 1.0414875237629788 0.2894491374706112 -0.3132279850577638 -1.1847309123794436
Ni 5.802483547046276 2.421279314625607 13.591637672383712 0.9735384418288913 -0.05701266993961794 -0.135371923875812
Ni 7.3983225112116475 0.5185826680505601 1.495209521755721 -0.08387632709968135 1.65181936703551 0.16789612175576246
Ni 3.8902010217556477 6.3646279243006525 2.000960259948733 0.316415638757126 -1.1760940626400518 -0.4366381085860093
Ni 1.7640096686370903 5.859837259586128 3.3808746133830834 -0.07854720157728408 -2.0443054636946534 -0.3018364553913705
Ni 2.1131644373514513 1.373490031966595 10.239613545580493 -0.49789926938933604 0.7924451046565644 0.4297709491525308
Ni 7.703447604539255 5.500116111582411 7.411128442947922 -0.33219912684362785 -0.38000750457615845 0.5373507905167392
Ni 8.489240820056125 4.1760132249937465 11.06038444775899 0.3224633876131027 0.18614581199456975 0.2376288103652101
Ni 3.0592732106978646 2.2253834708234694 7.6869573676166745 0.2705836680246759 0.7152916981030132 0.7482987491566532
Ni 0.8913307318213828 3.4124484031664357 3.0587198221164535 -0.5030083084811272 0.4919085990235399 1.0177202785524277
Ni 5.357256435179923 6.373393005187428 6.982689617894473 0.7511429034736676 -1.8805349340714905 1.9764815620721443
Ni 1.4756997887479928 0.3260099412498814 7.938541187188444 -0.9224454798078178 0.45262085716751077 -0.9041865335976298
Ni 8.178108303705482 3.455503149005402 8.597351221862466 -0.33203611890320234 1.165864928712876 0.5528347450849511
Ni 7.394673489189928 7.601061431934924 11.10842433335231 0.4666086868061706 -1.6371797627454643 1.344039292466195
Ni 1.8789399347562894 2.381780740375238 1.07992760307575 0.16474626327287112 0.6956736667617697 -1.017895884898344
Ni -0.21222823498840943 7.996594991994042 1.3857862148250257 0.7501946806277855 1.769738128431881 -2.573341820808426
Ni 4.062587135891134 5.6204409878660355 4.302331596735437 -0.34152246112708284 1.401805809852702 1.2859182199537467
Ni 3.15794536597729 1.6784479945145814 5.239755140567559 -0.8614715112276067 0.4641383708888071 -0.5351494119900461
Ni 3.6112318954386873 3.506487321833042 3.178118051077514 -0.23196338454931664 -0.5071169313328622 0.11495762188551815
P 5.310459816886115 6.785983189811175 9.081466880633572 1.3215642512921306 0.6718989329396752 0.8974152763120674
P 1.76146556676953 5.360506200339215 10.193341532233827 -3.732660206652036 1.73849639680878 0.7913613846740822
P 2.717565046719939 3.969903833548119 5.218406040479671 -0.33646458698820114 -0.02168185584880782 0.24951887693457672
P 5.275260217689324 0.30993753127635315 0.7503317780986725 0.2717967144961706 -1.2391287704040337 -0.6177005925204008
P 7.121878916675623 0.002003712346786488 5.142657728633893 -0.7911292140586181 1.3220244787580007 -0.9178635168640903
P 0.936944435597209 0.8283939227378663 5.738127054840314 0.7366197701568281 0.8491600408501053 0.678253157292477
P 9.362944825653505 7.188434107137929 3.1358543909287526 1.791519743083347 -3.6116378666296765 1.2220813280034437
P 4.626235690162097 5.337089321105687 13.318676897594116 1.278542753425282 3.3122087351282183 -1.2929956956258184
