# total energy = -381166.55766764726 ev
CRYSTAL
PRIMVEC
9.27093464793493 0.00000000000000 0.00000000000000

0.00000000000000 9.27093464793493 0.00000000000000

0.00000000000000 0.00000000000000 13.56894997769090

PRIMCOORD
 96 1
Ni 4.9249521210804605 4.632667372581606 3.8270815810177137 0.795583907395862 -1.5980740549932542 0.07342659252126708
Ni 4.719906865187126 2.95569440553066 12.05046157270178 -0.7440222332684863 0.4883069977152107 -1.0869883688206312
Ni 0.9045038802199095 4.862669983851568 7.123766515956086 -0.558622812521638 0.5862187198620354 0.7423469024485925
Ni 8.177362781748172 0.9550453061378956 12.32148806864543 -1.983660596319087 0.38583902365627093 2.844018305657225
Ni 3.63164750280601 8.968136401437906 6.3538645508575105 0.67231236632801 0.4425133364198637 -0.9271757954039517
Ni 5.453172878858577 4.931367607678018 13.141283421348165 0.4831498789943034 -0.051322047312743875 0.008996032851023216
Ni 6.005952341834572 8.15968310986733 0.7364348190457944 -0.0765121734251263 -0.40389408138576893 0.4040097810280267
Ni 7.995995492285709 2.777831529267441 9.853309456362197 -0.9249767308701037 -0.6135796283734917 -2.046617913877914
Ni 1.4494178824598225 7.2645836654921645 6.220874851226516 -0.3087339538421522 -0.9447647121303084 -0.5823391823019712
Ni 1.4671160962094438 0.7315119528849516 1.6265910012044604 -0.07007901620527286 -1.08660656000118 -2.0547647113547645
Ni 4.83135276748372 4.296911212730225 6.730782732304986 0.9777655925363612 1.4830778665603168 0.45792812831303714
Ni 0.11291998086453012 2.178326556968193 7.699429426285768 1.34134194813969 -1.5048157724580404 -0.7811029401708677
Ni 8.433972974716097 4.918972368399212 9.274729910073567 1.1458249793428654 1.834506788167834 0.2132447250938908
Ni 8.335793779530928 4.984656938549063 0.7150727320254291 -1.003480223693646 0.04642486712144263 -0.0807038429089707
Ni 2.4050287155954795 2.8758994732399366 7.083724423234247 -1.5900162176857842 0.5273386576963757 -1.1156672248125625
Ni 6.295140598247322 5.413363486589916 8.255254391208723 -0.39131804449297125 -0.5341433393230349 0.25993313028936527
Ni 4.684714398244453 0.10151765865884164 8.500295385151949 1.6533800266544105 -0.6911343841305194 0.9091649606488278
Ni 0.09674220035479242 2.624935279315238 0.3425211606754245 -0.5841188999102134 -0.08144714883289846 1.6475554495528333
Ni 4.354511528092403 7.317483617118848 12.550315125434798 0.5839337804826008 -0.35282837305820525 -0.5198667747993627
Ni 7.18461258544804 6.674395982254398 13.018484332798145 0.6508166583480791 0.40165645030450187 -0.868258195132137
Ni 6.23264522952747 7.164114549512779 5.149837176567399 0.6986646310692934 -1.0197627629037533 -0.4508408824489526
Ni 0.37875660773692005 8.518496083545482 8.060390475461976 -0.9825331891283337 -0.2447458810259656 0.2698331630118966
Ni 2.800610215062527 7.845083222292867 8.128967577141363 -0.42502109317237124 -0.9683149886464226 -1.0788510844254775
Ni 2.6054663170972154 8.434501417976302 4.26659340308957 -0.040766640394400755 -0.24450805398354664 -0.6714957839639855
P 5.7623678116839425 1.6892847679202485 4.097157806186438 -0.5112420092448292 -0.303313039936897 -0.33178080835928664
Ni 8.092246333117856 6.238958735846742 6.740810174940706 0.30820842035598534 -0.4155316656246973 -0.7665656657866411
P 0.1877317859208787 3.9708153665127397 2.1632158610066905 0.7806943918785394 -1.0160758009704696 0.8305550241544083
Ni 1.7764222802474832 5.765269614147867 10.70990392893731 0.24496159658119745 0.06178129497285489 -0.6117004090729079
P 0.9304866009400188 6.632676777501493 8.783642025805852 0.2248162319815741 -1.520128491555711 0.2515083965607798
P 4.474403251617863 3.67604600759749 1.2143774454425884 0.4533867887992579 0.9477927003233547 0.011700833376695979
P 1.6837036654177486 1.8860139956661703 10.494158160571576 0.4678145341888137 0.31249522065679736 -0.8868871230872338
Ni 3.9312192057350375 5.968303077278673 1.0565611106098594 -0.8220449298008682 -0.0674426070236903 -0.1683982582031616
Ni 1.6298209947457742 7.374017775026229 12.843662323014692 -1.1826827716011632 -0.9226426834202884 0.4588966628738936
Ni 5.119326531491441 7.328933221089923 7.234244532702412 -0.24177419999215136 -1.0910897925835144 0.17596630035840663
Ni 0.6659673738443819 0.598947789142437 3.6669947943529877 -0.6109715013266833 2.172231987036014 1.0062984098687315
Ni 6.9952630214761875 2.9244235438347603 11.847701602135466 1.1920441582114052 -0.6767866000492796 2.4774376160099334
Ni 6.512868492385539 4.474792630862224 2.1334051714771425 -0.4538696419729474 0.578809571882158 -0.2582282317831166
Ni 8.202848580385004 0.26662836466925616 1.7636107760145856 0.9397526036276977 1.3295601250134135 -0.018491116825652024
Ni 0.02859527003108019 0.9164086870695107 9.558375074814816 -0.036556973188427364 -0.7001448151592459 0.8126830289699939
Ni 0.7997070920674896 0.18212101642833242 11.610949750629922 1.2880555780117238 -1.3191831526544635 0.7838072264759081
Ni 2.564090136916723 4.554763710906348 5.4136712816116495 1.0515786218627696 2.489178044375313 3.0487318533516525
Ni 2.0036621530693632 2.1222744876490673 12.711473632114954 1.372151991542011 -0.49035488138317485 -0.08736814230302373
Ni 6.940888991281567 2.6456743595446266 0.5782884389487982 -0.5302535173503254 -0.2921662792914581 0.28647539955426793
Ni 1.344266944613722 5.846371748187514 1.7279380746705346 -0.8860898239969192 -2.2983893342920934 -0.9550961759633034
Ni 3.7377162631566736 8.710015046164488 1.5377828665002315 1.1973568286735703 -0.7592907293917827 -1.4106745730972414
Ni 8.011422327109894 7.166246864422372 1.7386849418148829 0.051457030228711384 -0.6216477500936067 0.5213546721987988
Ni 8.950280581803662 7.253671775715683 11.08619817650037 0.7159169903918381 -1.059482964311511 -0.17983915305025158
Ni 0.31029910111115844 3.226906320162102 5.30564913538511 -0.0792470558577861 -1.1665431857268231 0.17740663234935897
Ni 0.6841958850410844 4.965892567344645 12.732980345711796 -0.953763316084493 0.17047905199159027 -0.6534026739077005
Ni 6.044612138238931 0.8741693828973526 2.006156034420148 -1.4635372254242278 0.7564319197867488 0.5157974898259956
Ni 7.908310994829491 2.735407733500931 3.068224080057391 -0.14352617755183023 -0.7982632540002381 0.2266838813179322
Ni 5.463389448555845 0.470051207044422 12.734635207500329 0.976831510757866 -0.5638249255478677 -1.408344382302168
Ni 5.906076565656116 0.2689600046682241 6.232544176342624 -0.037115416795058656 -0.2761884158059631 -0.7553433147082604
Ni 8.824372021859395 9.16105527514973 5.822096733581957 -2.643766907499208 -0.4768905283481529 -0.756780047154787
Ni 1.5097438525325233 3.538075962012438 9.089839665543082 -1.96365227151796 0.7460906857617409 1.1238127367378323
Ni 6.117592933753347 6.7999058920199165 10.559369913067561 1.186635585601324 -0.21216743286931203 1.7671932505228403
P 2.069226201072151 1.8257807349373647 4.9206300114680595 0.17124806894713088 0.099789398785512 -0.3936924582624187
Ni 6.723976939369629 4.359323143040572 5.216066877659355 1.2219784838769923 0.6992346446401506 -0.33511707182137124
P 8.082548935746404 5.812542108600103 4.128908902283715 -1.7628406299810992 1.2963728396281673 0.4180099519618608
Ni 3.248535410092886 5.180338550708968 8.079861291866877 -1.1702900543637653 1.1634658323530802 -0.13396681599816926
P 3.8522123028674247 4.871829667028428 10.926573082368241 0.1498264087382452 -0.6068322823473291 0.7260497079504658
P 8.905325820948809 8.5571929636874 0.056469261366654595 0.4859886339946791 -0.9915665029751956 -1.0611253850109403
P 2.0631259262438375 7.639212853238863 2.08581931944254 0.20743865993507501 2.062775754584699 1.3353242811907002
Ni 7.945459628928357 3.6240175238034227 7.223769303935677 -2.394571732452637 1.5319511952222518 -0.005635343908906424
Ni 0.3863031483300012 7.725237853439354 3.841288360876236 -1.038608691965663 -2.1399661850237726 -0.3399849414366338
Ni 3.6445248306730726 1.2541720042162263 10.672440083069201 -0.9431150923420274 -1.23273083729749 1.5001458777861971
Ni 4.053382308185934 6.644135652406958 9.771122622998973 -0.25168220313448264 -0.16227389047297858 -0.49365129274625946
Ni 4.029732154558231 2.9255360559615045 5.249962340880932 0.5803404067043876 -2.5297325687589076 -4.200006028734548
Ni 3.6813953367402514 3.2678467664262865 9.352262734373245 2.3659859503951446 -0.3380807824353855 0.5109309057623136
Ni 2.827792594692642 4.41273299605868 12.858221398380017 1.286380761412462 0.5155059267275057 0.15130556438693296
Ni 7.314368583163964 2.014778003402415 5.487514274024292 0.973646428161665 0.20209025113896809 0.14553446623111066
Ni 4.9166175510642685 8.856579247928638 3.9186311310209274 -0.1674549204532858 0.9750615633416367 0.8167967940280514
Ni 5.225534355857948 7.038521201337755 2.646026655051429 1.8692259368165742 -0.4317897793547725 -0.06575673468083514
Ni 4.4246925014211795 2.095898679310842 7.1640394549442235 2.9177601154260655 -2.019866613925999 2.510270089158922
Ni 0.8033514963760154 5.205518408510943 4.2490082947395 -0.976457929468531 1.3916139569213646 -1.4090779180340829
Ni 6.187124941674854 4.4501875709924 10.601298640937667 -1.8644197736771826 0.9416670470415912 -1.8192555184357186
Ni 0.1322980879255351 2.732617182249681 11.63991956641034 -0.1842550227297601 2.003109706182634 -0.7628535070423765
Ni 2.4662446953695762 8.299627864477353 10.232195857180571 -0.7300313183060331 0.6135868274623433 2.1259583007804546
Ni 2.2736781171645553 2.9619430153092066 1.4449029374121192 0.034885241912959275 0.7633319893406918 -1.706104867851952
Ni 2.9359287734121726 9.16124996477191 12.756481237295828 0.606914043427858 0.8911973204268137 -0.0715795120101993
Ni 1.4714919772413042 0.41878293987029624 6.436960862884347 2.23359213531105 1.7422003280229286 0.009543420714060983
Ni 7.403564242925675 8.917989917324913 10.814697008715973 -1.13200221452716 -0.37559163489664993 -0.9194257191448876
Ni 3.4970242645355794 1.2445395033854998 2.721768334827048 0.3311043511175523 1.745728138670529 1.9837122754926286
Ni 7.19557082989647 0.7069764250230486 8.358377775703833 -0.09378510157296106 0.8377281448640798 0.22994121191296527
Ni 2.680570156586834 1.0321887511932122 8.505872779280693 -2.2682238664523067 0.01982989024173359 0.1304022385753625
Ni 3.383928135917648 5.982793547729515 3.4485215170898513 -3.095614119725488 1.744656502872905 0.014561956974574922
Ni 2.3339948163028663 3.557183357789268 3.531699413339316 -0.15772303787750255 -0.9946261157371258 -0.5558061690084493
Ni 5.800193223993243 1.412565918261423 10.501131757419383 2.1266213882857503 0.689943963366844 -1.3813398286888663
P 4.965762774263191 8.612271584895625 10.612872475429564 -0.3779534502606071 0.1893632904906029 0.8469028693848124
Ni 4.070700413625584 1.7575373868960014 0.2223652155198627 -0.5777585049098243 0.1281193560784568 2.694271086896347
P 6.041867941659628 2.9890975821361527 8.712907577694022 0.05176530549774956 0.32311516226448866 -0.8157534403652016
Ni 7.27424397912606 8.968637031894941 3.9335434289864937 0.5868900348974473 0.4273425422166963 -0.22397728102004652
P 7.370661696777217 8.237855628639885 7.110713040335622 -0.5601078817075966 -0.31417826478617505 -1.0267160542931348
P 8.004459855383354 5.215197264013617 11.53615834162923 0.5938294423297579 -0.17767634107097788 0.36311458547556175
P 3.4584942612126737 6.549627747240043 5.54294333655244 0.5272306713636017 1.1332067763582225 0.7961199824049902
Ni 7.568883544959855 7.386728226074281 9.000026561551028 1.2137627808354192 -0.19032076930786576 -0.38126400269107885
