# total energy = -340868.12795103085 ev
CRYSTAL
PRIMVEC
9.30646196889047 0.00000000000000 0.00000000000000
0.00000000000000 9.30646196889047 0.00000000000000
0.00000000000000 0.00000000000000 13.62094780306353
PRIMCOORD
 96 1
Ni 0.5907257989091582 6.550948723167953 2.6914315328645104 -1.303802042212703 0.0049030937285722016 0.5655203109724195
Ni 9.076154750602653 4.274634709036588 13.072459246497395 -0.9874877049201316 0.12537984566010663 -0.4941817113284327
Ni 8.608802853950436 4.970544000047038 9.190175658791023 0.267624585396352 -0.7336799708022138 -1.6637783391695993
Ni 2.0470214092941093 5.461692519418992 8.209835768955198 -0.4702048887978611 -0.5114975768990611 0.24530381041196467
Ni 5.597743683885094 8.91604638248754 3.7287344138395464 -0.5969224794327849 0.9527551865349527 0.6367509242836324
Ni 6.998375485192498 1.0384336160788485 7.094238555841379 -0.3387991486586488 -0.613992290430878 -0.17779615447829378
Ni 6.574159038796824 6.668489335193869 4.862664425973941 -1.2582490361732521 -0.1146766003099896 0.17486124021968594
Ni 9.016602701801872 1.881989922908077 12.75939545677573 -0.394158856375876 -0.1783610258428283 -0.19708457039426058
Ni 6.0197638053054625 7.819354315792521 8.817207105367885 1.5283873891303936 -1.1927874641353329 -0.9991623130445825
Ni 3.3341050706705384 1.8424653798143265 13.120159516247107 -0.07460107244534248 -0.6784704155096057 -1.2573931159308604
Ni 1.0103560209496172 0.06998645372583531 9.06813258056573 1.2428432431411434 1.111239785168828 0.8132905806470059
Ni 3.380414024387162 3.930639963010146 0.8047092741515894 1.2796557839838025 0.4158646234840838 -0.916233180349519
Ni 7.624998168401448 7.972957467137553 2.9794190613744704 1.3712593045244126 0.22749686413753079 -1.3892385147106527
Ni 5.134328420557261 5.436425475741211 13.189204156042852 0.37751996226761436 -2.0111760281305364 -0.543578773704322
Ni 8.015190190603397 5.676532189143322 1.0722160722668197 1.1542258018120508 1.787083304578548 2.5838728022467374
Ni 2.612491332279599 8.614805521785488 11.625683215846516 0.6150402720794181 -0.03446409521514065 -1.4409179453628151
Ni 6.640086013903047 0.8843167480446767 12.723422259489508 -0.5180356351278949 -0.6399969420247559 0.8275961986364005
Ni 5.535409003018143 2.526453093310509 0.8627620519628695 0.7736012324771837 1.4433129279575532 -0.18828908358981766
Ni 7.042581178551414 1.5774731876665864 2.923763628112508 0.9330605363195027 -1.3467296948141645 -0.34590670623770753
Ni 1.6672805436483835 2.5693465755612968 3.3745900406178975 0.7498231562209795 -1.1727323452566705 -1.0517673408348078
Ni 0.8583517197349136 3.2154569896952085 8.14015084459038 0.37221140557050736 0.24835185320966904 0.30692672543008426
Ni 3.1977374865046033 6.507729514755573 9.945430395151186 0.5731657433328193 0.4016618496211405 0.1908537589932003
Ni 8.17940270835457 9.268547234562414 4.6972113568701905 -1.6237539762578614 0.650604542337273 2.9265874839097084
Ni 2.13546071539722 4.787495203694088 2.8109683809378985 1.2220486749932953 0.5918751468168646 0.25126208487792856
P 7.722818387958408 5.896881284229436 3.2925917366987245 0.7944701055063931 -1.6079833436871662 0.019414914191502045
P 8.080028309683726 2.197944299652327 8.832843822416653 -0.13297128485411938 -0.9656649526180853 -1.8141693621620627
P 3.3578737740049953 1.9558460034336256 1.5632761802520547 -0.11312056867677937 -1.0133524885020355 2.6782849958807358
P 7.3733793618025 8.157169571210474 6.8242850889295035 -0.9553386309914127 -1.0949032527923337 -0.05544635389376257
P 4.949995332481462 2.2499767273512106 8.787881513716668 -1.1285204266261468 0.2845450153007745 1.8348914252007624
P 3.481165779398451 5.94930458332223 1.3491661371296906 1.2072753733388628 0.8948768261609299 0.5981949183873053
P 1.07465436524788 8.202091862124893 5.1758780497299375 1.0972211022922331 0.993652953190579 -0.1980893575096911
P 0.25008324040858576 5.190381239736366 6.911909148982459 0.4998556217847585 0.07940697847441808 0.4671262498725375
Ni 5.014638015864837 0.2577592100680455 1.2817771168810077 0.2355169062285299 0.643144229404486 0.9583036271570076
Ni 1.8353273236445815 3.678174268391059 12.19260029363565 0.28362893124440836 -0.48905158919071895 -0.654683340392337
Ni 6.394674617297866 2.663165016561556 5.142902463776538 -0.6362063646340721 -1.0200473840237076 -0.5207455778598902
Ni 4.705002726655471 2.5505196034212787 3.3406735713805853 -0.6124128617589002 -2.374560065217401 0.1524535619484471
Ni 5.075399904694387 5.02840227280754 6.249672497911215 -1.0151216645873162 -0.3538493581235519 -1.8407882503011719
Ni 0.1560088717099333 2.6890835125625197 10.345232269766274 0.0374098081070259 1.3405845011483752 0.9034326861507409
Ni 4.165097654124075 1.739833719527564 10.834428293461029 0.26652466746395387 0.07026593540509833 0.3543916037802671
Ni 1.6368298007704105 1.0950913552723387 5.2512976158311275 -1.1197038567757813 0.6339893023780953 0.9063701715125101
Ni 3.013274107964168 6.004808321257509 12.276750251513683 0.020734147223557837 -0.5945907459758147 0.14138007774310488
Ni 3.0836774911768408 0.4345038092249261 3.1412900733468843 -0.10171129839857321 0.530884466066105 0.009971766500731213
Ni 8.618304751407162 8.934891967551078 11.727744390027404 0.4850596944225065 0.07924628452683771 0.12157487009171965
Ni 2.7413579082671578 3.4682670233994073 6.695417582295769 0.7878641701541012 0.06273054626000164 0.5844194618697677
Ni 7.7813560324273725 4.463230156598362 5.9186016353305675 0.10006810636819541 0.8195823271929884 -0.22442953806611668
Ni 2.9546154794923267 7.366492580100268 3.027037434260694 -0.07564005523281812 -0.9424556043811575 -0.15433252413871484
Ni 1.8860382337735777 7.830028827430979 7.402371782122716 1.1129683378241606 0.5948162317230594 -0.03756278874512241
Ni 9.298765315896391 7.093682960074321 8.362948469765492 -0.6048139663657196 -0.6869882231726298 -0.5651927524296717
Ni 7.979406845137074 7.05619653210596 10.375089260383977 1.0953369978956427 -1.5431889729196002 -0.11216360408014876
Ni 5.132225160199552 7.420442138921666 6.585973592000854 1.2225073597972687 0.8563583583707575 -0.5897269901256101
Ni 4.721912567672978 4.723234085242865 3.315079870895037 -0.03104529934157879 2.4057447183503213 -0.04744096709078281
Ni 8.772661726154737 2.272879929742009 6.523343896296118 0.5004994260163446 0.5471968300728833 -0.7974718684471944
Ni 1.3192747126034796 0.027909148171379423 -0.33829081561387814 -0.8255125766344945 0.41822900995120227 1.4758751781642905
Ni -0.06511638228694677 -0.1326068429688113 6.838886927430586 1.2239510342223308 0.12205875170667366 0.23270669047324438
Ni 1.1688357582567699 4.176637666706192 4.972667734620619 -3.59893430302008 -0.2852605533105603 0.8577310703485681
Ni 4.513159323939537 7.542226497510038 0.2294731501953953 -0.18655178918373677 -1.540738968717211 1.0493407336711862
P 4.385614265521866 6.940098421652808 4.651254187408086 -0.05383195821879115 -0.45299418134652947 -0.49026052189715563
P 6.71986100410781 8.159021557100669 1.0674223138143615 -0.457000217182129 0.875296590036157 -0.1602188077161628
P 8.67426450596867 1.6822825600051357 1.2793434771308272 0.2717380933440933 0.306526147557556 0.8036579426532481
P 1.3855274138712947 8.290410184225125 1.7015422826169833 0.2197069357794668 1.548604487508217 0.5300879383067387
P 4.043964747858887 3.7243063993342473 11.856980432546827 0.09776568348726387 0.5585353950141542 0.44864361768731764
P 4.8087139365063685 0.8783057043940402 5.2122188522556705 1.246059693195912 1.9142703786507225 -0.2741284479531408
P 1.1146535378913789 6.893435822389312 12.458985663108828 -0.9744668671804313 1.0113542271250842 -0.12568889226009322
P 8.050210406205418 4.845558218613304 11.175960549705836 -0.5073820120687907 0.19069023683214256 0.4890762717810674
Ni 6.6293928893410685 3.594425419014873 9.66377591386875 0.07109485906429691 0.1949706093750513 -1.773244856033559
Ni 5.912348623674178 5.753347724508478 10.255048002083209 0.04721856666733158 0.03032359068420584 0.780481761647101
Ni -0.06876544594295327 3.8405906390225946 2.318367122885245 -0.36492207099794566 0.3125548702501391 0.42551885874439616
Ni 1.5205920933908617 5.4556060934281 0.5954562734216502 -1.2704782312495926 0.37164139199965024 -0.6090992240046349
Ni 2.937714944936581 3.6097252421479378 9.903260024979133 -0.5067677755235596 0.5869291156654989 -0.35770961240990656
Ni 6.960907670147657 3.820600359162605 2.8301741260715394 -0.831311956925091 1.5163782804846593 -0.22141954759519933
Ni 2.339244308550941 6.001262559327036 5.855890042762346 0.5658663814579286 0.7517445416134085 -0.8594223420080618
Ni 6.487795073666142 3.1706929086307065 11.794814198637727 -0.23019446557435194 1.1395604864903923 3.198312207517363
Ni 5.472785821836639 7.015983310841986 2.4564284830914587 -0.8479287395461654 -1.5566610392641063 -0.5770362820318191
Ni 8.84187388226216 7.802984249557082 0.5165663277302412 1.5278371730538785 0.6424400042486097 -0.14834930997208645
Ni 4.463630334454033 4.83388791556655 8.550032547937478 0.04662412761644228 -0.16140382916319945 -0.1756618817441104
Ni 8.789590180095761 6.822241389927058 5.334712363230137 1.00701909008484 -0.6368092883253935 0.36453897662691415
Ni 6.702616130466953 5.750546479518786 7.86160192959718 0.4685704385182317 -0.15216611261501536 -0.27474911225627524
Ni 0.21907876305590623 0.4541869758468433 3.1318784485692266 1.6522374284095354 0.33975122815927294 -2.3786900282253747
Ni 6.108659128034802 3.248299493245443 7.375675265918635 0.454284875133495 0.6658848655351113 -0.0783217158300393
Ni 4.737231003729561 7.468826433610718 11.508039302095066 0.6424806276785581 -1.018704239732252 0.9255161483133414
Ni 4.796448019906989 0.5143085801073206 7.597042487921269 -1.4595561292892927 -0.25011048777198863 -1.0444342975085046
Ni 6.990008976070463 7.023772819334915 12.983106045849476 -0.7889481472468993 -0.40870435829021873 -2.4060000288942374
Ni 6.548454591416334 1.3089538465118928 10.370035851648419 0.4812830009888937 -1.2571172365616543 -0.8629959182919332
Ni 1.3526197650887417 2.7789932396236745 0.8165182434785637 -0.4260431066789824 -0.9223027835823664 0.04677530848232589
Ni 3.2504958182207493 8.870612236176335 5.66800281694049 0.4105401259473769 -1.551551743061999 -0.3072288300515354
Ni 1.0439709608259127 5.738345708151725 10.529373644729823 -0.11049855767290002 -0.2139944587757218 1.2305502847064034
Ni 4.476994413541065 8.943965767766855 9.805407232806013 -2.1335119447579967 1.3417618092859278 0.36768266446221837
Ni 8.043435302044303 9.039673420504348 8.887504394916496 -0.6538513314093448 1.0202589858138817 1.1783301510594224
P 6.527505745995088 8.41580544997629 10.949893564514516 0.6535088604682616 1.4464854121482638 -0.012712819580978106
P 8.5034816262151 2.886724840954792 4.468869872424784 0.24851254715724944 -0.2778174667689538 -1.3369782718543555
P 3.896885426207454 7.344147765415056 8.154874597740514 -1.5281073959961295 -0.12753854387432229 1.2597904125184434
P 3.188291427818435 4.091464928680761 4.673564568184787 1.4554328511495387 -0.5505204951294776 -0.0852698650130983
P 4.539738578725445 -0.017561293340689243 12.763753672817833 -0.7599563880002396 2.1459643115887364 -1.3567641962320311
P 1.230919164656207 1.1457836524778153 11.229013896259765 0.7378155902371423 -1.4906649348789553 0.3943501464510757
P 2.342166537543509 1.4202219033117236 7.498508462747334 -0.7115265746336262 -0.624407315116615 -0.16764569630785323
P 6.970130373751591 4.295788296616549 0.19259443417994787 -2.417053201384605 -2.855100788723631 -0.9504015987011117
