# total energy = -340895.1476177717 ev
CRYSTAL
PRIMVEC
9.06326347421130 0.00000000000000 0.00000000000000

0.00000000000000 9.06326347421130 0.00000000000000

0.00000000000000 0.00000000000000 13.26500222322479

PRIMCOORD
 96 1
Ni 6.4779676271592015 1.8889925802803809 11.334533717897203 0.15703141112711666 0.49404312886803947 0.12766864169428335
Ni 4.413002721661719 0.32145583182942644 6.042314674515216 -0.1583321322164112 -0.22415005915248493 -0.5991110024436714
Ni 2.575897325243509 1.6261126208179777 4.8464614581986245 0.7984285759335088 -0.515068324969455 0.6787558079605084
Ni 3.3927873961369865 4.331859323038485 5.248218711466867 0.6251133400447041 0.11082560199501558 -1.5109504246008687
Ni 5.0807205376752895 4.59236470744903 2.3612366468818755 0.12791443915650227 0.09843365608856597 0.9146002727317861
Ni 7.187503341223437 6.173695743033298 2.5244098313041894 1.2427905355263371 -1.026608067960361 0.2590846662461409
Ni 5.048881292800564 4.364260490253727 11.75125351297122 0.9268204689470619 0.6872556179014034 -1.4061404326723137
Ni 5.693569356116532 7.755498068322517 12.420327193212875 0.0063719649646148315 0.6293713439901096 -0.3066138221753558
Ni 2.1359846387278694 6.467644569968107 0.3128022277854788 -0.7713186070905942 -0.138541065632413 0.4638537497688528
Ni 2.962726477107492 1.7173887480976142 0.4499901292643464 -0.2973935891286685 -0.6194679688334687 -0.016166068236901192
Ni 0.4938962032384773 -0.1273868882686404 4.634593171338814 0.30359071907831586 0.35674467739347593 0.9688621193991444
Ni 8.622118266351668 2.5003731500254363 1.6181315109299381 0.9051064743087379 -0.04554297873712156 -0.9363314937612907
Ni 6.705283340425071 0.6873841916052782 4.724304073002207 -0.652550096099418 0.12293241256087861 -0.15805702417815357
Ni 0.8531984110280176 7.585144966510576 2.401907135766261 0.15718104933110347 -1.1031708921177645 0.20293794385124406
Ni 7.8117265554283515 3.9182844804186483 3.6583156412106606 0.14443891917408672 -0.08060099878251925 0.08736659964112696
Ni 7.709048842594372 3.6816517322164803 12.595690467118963 -0.011803677503147413 0.7438273436488609 0.014885144641948558
Ni 8.026634660885083 9.007325094039 6.710260884770417 -0.05843988930444774 -0.37091762645974835 0.3978203643878633
Ni 6.87290839990644 0.6718171301202713 0.3523724364740791 0.013556655638512138 0.12126248105762341 0.4050101972680832
Ni 1.6163877390216268 6.643082162635362 9.490512145058865 0.10530981438310896 -0.06449329458737925 -0.4585562488153393
Ni 9.134410175631201 5.05137369027866 1.2778639692622022 0.44970574040324485 -0.22160363858154739 0.17284523823092168
Ni 6.209006217850245 2.1094202132431494 6.814204735523268 0.4313264665651088 -0.24753964172101886 0.5056418894492325
Ni 3.390566896565592 4.251477238554015 0.44224738320784823 0.39926095348913176 0.18401205348101857 0.22410660750905917
Ni 6.304306434149061 5.696424284136897 4.756577448201299 -1.1554738152865391 -0.9907185531526035 0.1312483886257417
Ni 5.399257998639455 2.9319476340689015 9.280447447646841 0.5334411710496878 -0.5725947013206978 -0.15232269279753766
P 0.23127545311379613 5.81554275706275 12.429718546910339 0.6683194431185329 -0.48702170324488386 -0.37797067665178774
P 4.1075344867463315 6.116397790827772 12.697273337715293 -0.5287694766056312 0.5567315090361961 -0.9188011981870112
P 2.4690867642276695 8.64774011242649 1.4817402703177054 0.8836218220724008 0.0525489777413095 -0.6308273597103458
P 6.384625075788635 7.675605400070109 5.927903660680719 -1.2833725707137575 1.6893636438378712 -1.1661418365233465
P 4.8852621958112605 0.9808354453708232 12.589044375952827 -0.020894326950505953 -0.08919105444437542 0.27023656909790233
P 3.770317639591784 6.256452402569627 8.192611112725489 0.9326113645972262 -0.6370088059307094 0.9222104809788764
P 4.478629813075863 1.2963367130434904 3.85198398852224 1.7091043167999083 -0.8150507578712222 0.9200795506788025
P 0.3305064068171581 5.712629399376296 3.4876081657936533 -1.0995541213007838 -0.6325669681092718 -0.10219209468973367
Ni 1.4051140022511364 1.0660754391216904 2.876422456215067 0.3875413510593584 0.6357654204419115 -1.9879548528190663
Ni 1.8510628222955452 6.329284788511357 4.838502100143121 0.9892070016040835 0.6107858676784383 0.28741153821529214
Ni 6.026762114251899 5.583568526328731 9.101356453439875 -0.8976050237253703 0.5896989651011522 0.6324684948581946
Ni 8.658117549198924 2.3206033173780733 10.186845403100042 0.1567609310745494 0.39614837600207903 0.5292173627763272
Ni 2.217535884211155 5.142106021744894 7.282870625672573 -0.6199279391890226 -0.07136893866128999 -0.8318356906390448
Ni 0.5737018641607405 -0.19881990631721394 8.836414601518321 0.47894612532560094 0.6467530298016667 0.6816686107319292
Ni 1.5999651054568664 1.3325625774796643 11.6664766519881 0.09529485334926814 -1.051819277118666 -0.9405429607394769
Ni 4.187436218262295 6.855443491032659 1.6607651027007067 -0.08306771515545695 0.735193836343579 -0.09358147020258721
Ni 5.319048116162563 7.964505989203829 7.868547779970795 0.7605713958764192 -0.6786923017124246 0.7178034087812735
Ni 5.525056096806605 3.2999886405798224 4.651466249102342 -0.32223635920396115 -0.7880786001577524 -0.18716499728770347
Ni 0.6757560244620179 7.130685741986416 6.879137580948968 -0.17908170605893672 0.964868167748403 -0.15306548450083315
Ni 5.0402621291581315 4.442204556841442 7.134475092479477 0.9428777795202408 0.48289739666386505 -0.004296570492824858
Ni 8.101750989243104 7.203907848261084 9.128695787958694 -0.3011548559433136 -0.7625413751185964 0.45511148479984853
Ni 4.808867947291743 0.2759020565406855 10.392798097836387 -0.8792427191680986 -0.032571506178118104 -0.19629755571659097
Ni 8.08244623786731 7.205974272352013 4.653071353078237 0.636708243971155 0.036898929908878386 -0.0669497265476718
Ni 7.337201265389632 6.182777133117123 6.987644784902623 0.44127483602707224 -0.9617131670591889 0.7562228890997363
Ni 2.3827410523228836 5.303214594728989 2.6575899576382795 -0.2029556844630569 -0.41093993248895677 -0.49831475966019984
Ni 2.4881105544332063 5.0668265546428515 11.375256773710218 0.612098930062907 0.9444939749674249 0.6744502386066191
Ni 1.1663423238495845 3.2551979920825564 3.8918188445066964 -0.6378223029709403 0.995084543430783 -0.941248985667566
Ni 3.5884632563263774 2.749703530470556 2.6053928101624693 -0.28860093053770297 0.5156766479774151 0.16664656561937752
Ni 1.0380246384136698 3.084663624999482 8.224805637531636 -0.23073156902474454 0.8455113883539244 -0.08533645658497561
Ni 3.502978554459479 2.75531369061216 7.112309975125183 -0.20218846727972922 -1.3138794810533632 0.2891290351270311
Ni 4.274642940204969 6.449164575575973 6.013237912372576 -0.139220865308257 1.7124796610300443 0.1386606219294128
Ni 0.9096706999235283 7.8779155691830125 11.992915466121007 0.9060346425499622 -0.519245596275596 -0.8163422229891361
P 0.26214855409337656 5.46764032217484 8.173337176445786 -0.8148535542587515 -0.027925522765674487 0.4705154780597445
P 8.469130377514386 1.5778235525878213 8.169052971762529 0.36674061226392324 0.21585850856765404 -1.7235796275979476
P 1.952435425177358 3.214739583565399 10.349805600828772 -1.2886903833822452 -0.3443429612950134 0.7647008446637604
P 4.083344636313469 6.0969208374444 3.8289433599083695 -0.16891967792427037 -0.8568386404412857 -0.2266373443507129
P 7.055243136140353 4.032925701147486 10.373019337776578 -0.737499344548304 -0.10762740677269207 0.689795867824754
P 6.086815298578666 7.593356283292956 10.06525809718134 1.1176148354572364 -0.47600144087498025 0.9194493732939713
P 2.301751729180114 8.30706109859328 5.731462861047141 -0.08248407473784504 0.7700564525487189 1.2485467212838237
P 7.112205747594282 4.106193123739938 1.5284070143712103 -1.2675973101573719 -0.10114154193803225 -0.17484427093882146
Ni 5.364155978884313 2.8764713978382734 0.3430418066424451 0.27994376908333723 -0.24055806819686312 0.03168319003589383
Ni 1.3058712663051504 1.0081883747849771 6.871655856882903 0.5695026926589353 0.15819894907265658 -0.08148648671126611
Ni 6.986126688256875 0.40583028391062764 9.117195412831585 -0.7966277752793441 0.32210600427368397 0.30165262151533856
Ni 2.733181201006672 1.5668479404206443 9.182140946826264 0.6240206212011576 -1.437832621569272 0.06479334232630132
Ni 6.2883460270256935 2.2044847846894915 2.454105189568426 0.045809345024630785 -0.4593304079772025 1.173865173309533
Ni 3.8039786004414085 6.923318271808867 10.358826267046766 1.2452212564550167 0.29629367119627037 0.24667729372072356
Ni 8.027069697535806 7.211946963035887 0.26881911607111586 0.3252514918812011 0.8312011423788395 0.35939677030434236
Ni 7.640004900819348 3.962766977954986 8.160589696253272 0.7287460238357063 -0.9115892538196042 0.6859762369683476
Ni 3.3499816023586404 8.426768683650318 12.6175909371774 -0.3582487727428282 0.10824601419329744 -0.15946393182800922
Ni 9.350478378823192 4.801753285399726 10.43877422120687 -1.173715020884914 -0.5604467531042542 -0.2878542821796656
Ni 8.542243724626374 2.2733202714027114 5.752673616748912 0.1539041783520446 0.6131026887370731 0.05982699945996148
Ni 3.803135716930635 2.5018957783029636 11.311624506604904 0.0643012331812312 -0.30837194251704314 0.22134987069952847
Ni 1.2265948999745995 3.489021128582144 12.645818471524779 -0.9805305568760081 0.21482055422144294 0.23178674976213628
Ni 2.904975361724129 8.325006360435568 7.947460709432723 -0.1607656813585683 0.1389961508919606 0.02637437622847071
Ni 5.57932691898419 7.727610406358517 3.638974636780639 -0.1603897860763883 0.7938070180010974 0.7823075020019301
Ni 3.0945969618576377 8.380346647712845 3.721191125808988 0.5175077876488829 -0.052270013048309985 -0.5092596887074777
Ni 3.4791965508866696 4.226091037331668 9.264463476038225 0.3528985641745083 1.1051475562281612 -0.5161350756710723
Ni 7.2534476468620666 6.09554322138378 11.405196358543456 0.11958946423057468 -0.528916800816773 -0.5140612238611791
Ni 0.5225769007636893 0.28891418402905555 0.6575370520603174 -0.26092943276436353 0.09652461199131118 -0.551720943195482
Ni 4.712434823048338 0.33865337442828564 1.8537047636223265 -0.5007976739830537 0.095034657709346 -0.629162056192781
Ni 6.015315212379774 5.6431504209505485 0.3680346622264314 0.6287897604550268 0.019423913052566546 -0.17568707855509097
Ni 7.993889089654686 8.865720664228945 11.536029099616357 -0.9641523726283009 0.08377194031133316 -0.90079550563821
Ni 0.056686181915449066 4.855725019879939 5.660442221490398 -0.16964704300859818 -0.11103746089550555 0.41874220214219493
Ni 7.932412972949515 8.785565161333395 2.6143726916944585 -0.5082908970363054 0.3019608967843767 -0.14151557487970465
P 8.423424339397892 1.5886813423287611 3.579136251800166 -0.4599050495337499 0.6046483873221329 0.9540456232116021
P 1.7106184902207513 3.376337572781556 1.546765561031684 0.08625254064134177 -0.45304123253438106 0.5298079451724746
P 4.86489704259933 1.0600211790658074 8.205186390910425 -1.0382199411676765 0.3968497729444779 -0.17870581077675673
P 8.652462072739537 1.7082348519053363 12.42540715243641 -0.45297438385218763 -0.6478927998330648 0.7627488631437122
P 6.295451625654155 7.801938230787104 1.5569526692694273 -0.54408296703425 0.638767697603345 -1.4738859156484034
P 1.6885222536694897 3.3176801310425224 6.002360183451811 -0.7276167953272694 -1.0461096283283984 0.6625483449627105
P 7.031288930559965 4.089235757625331 6.087946393870545 -0.5384656208474726 -0.32176790420797485 -1.1561171052974928
P 2.2821388268433913 8.605949404166495 10.32571635262139 0.022687414295186732 0.7013239230690115 0.3414306727442249
