# total energy = -340854.5831783116 ev
CRYSTAL
PRIMVEC
9.41298058257463 0.00000000000000 0.00000000000000

0.00000000000000 9.41298058257463 0.00000000000000

0.00000000000000 0.00000000000000 13.77684856125242

PRIMCOORD
 96 1
Ni 4.159003007394357 3.685228879450856 2.064709005046952 0.8144532334965393 -3.2589773866079037 -0.7236758084016505
Ni 8.888404386222243 6.236777229193786 5.052480280146459 -0.7978593336936001 -1.8301392552277578 -0.6497658484860616
Ni 2.446282990273959 9.163065740415668 0.3178989382213921 1.4777284293229453 -1.9211223685755494 2.145313308268299
Ni 5.326061965491534 3.289365990023376 11.312362610954528 0.6719503550029008 0.8745514843400163 -0.23438999171293828
Ni 7.229328944226021 5.909732639245661 1.9081899674675884 2.073208519882249 -0.5544085173299742 -2.356429159944645
Ni 0.4874417754396065 5.989084063758171 12.801378443110265 0.16010362229453717 -0.47593690618563195 -1.3584153586822088
Ni 2.53442613845132 1.7859624173732873 4.4247926275897935 -1.4224633382020535 0.7214939702589833 -0.025588389992065606
Ni 0.8765847381815021 9.125611491526547 12.658567528842594 -1.9669080594510964 -3.5894803566960305 -2.3002623829450903
Ni 2.456891419150068 6.982897118159882 10.874837870412886 -0.45499707070917117 -0.9347528364202612 -0.06441204772748262
Ni 2.324177808924458 4.122377100777729 12.990176472971754 0.6220506419589803 0.0373756124349808 -0.3052441955213388
Ni 1.354000748229854 0.772672965289626 10.76898984745906 1.5390584956909945 2.4981182842877363 -0.44198497472021947
Ni 4.290521169113077 8.061803515099328 2.142919576338714 0.17032401447096474 0.32782079527027413 0.28469156818096775
Ni 7.392493545946053 8.95791924624892 10.621233353305403 0.0016928143213906332 -0.27634602442974987 0.2428689757182269
Ni 8.102119310020692 1.5297222657624232 4.712770525111551 -1.5967905602951402 0.7858419975177499 0.8610015135697235
Ni 8.206678695961969 8.332549069459157 4.749320186587189 -0.40060204089805845 2.4577141694390767 0.3583089365568023
Ni 0.06415510900444504 3.6573946964990776 4.259553404996386 1.2153504370375132 -0.03027242573129625 0.7854067097525441
Ni 5.397308813906148 5.901138588168564 0.6802346741697904 -1.2531999037851191 -0.9088235181490091 -0.9265371333786881
Ni 2.6113113621070965 0.471393585208126 2.697602977045832 1.0939097785308127 -1.753938185285147 -0.08124326035220847
Ni 6.368408346676936 7.417522660747805 3.2307946609739515 -0.14241186144172893 1.5927737258262633 0.9185098921988376
Ni 0.0723679343765881 3.511794716148007 12.158675204268624 1.098271397933618 -1.745768504990161 0.678607198197786
Ni 9.023621849226066 4.162146942837676 0.5971481790467733 -0.40716658148945367 -1.0699959480276928 0.8294602484283327
Ni 6.660982602512982 3.782803833958174 8.850178272942848 0.23346053792013344 -0.2461458466972858 0.25348943154655057
Ni 4.708758712878191 4.450664204134591 5.69685055781149 -0.42426621728421776 1.0196442350480182 1.2972511284680626
Ni 3.567688993580426 9.273301153519585 12.16743680639629 0.006390219797059962 -0.6778980879459034 -2.768456669070826
P 1.4227155049251483 6.059832024213216 3.899151095215825 0.35157778848055576 -0.9846440648237493 -2.1026502221821337
P 2.4806309556412374 6.951222439217463 13.016187361626015 0.8491240454058473 0.14503207267339538 0.8743794775385265
P 5.922477814665582 5.965062137855926 9.890357786047254 -0.4470896429366365 -1.7501267819588566 1.1104856806116228
P 5.321242519542493 5.042307672261445 2.8737123093696137 1.0710992083942006 3.014681191524847 1.6757697072035205
P 8.236762581221992 2.1131858539484267 13.270315240442025 -1.5983944144471505 1.3493352507578116 0.03271420240356947
P 8.450681973092848 2.542342454941833 2.721822575535831 -0.3110664586300707 -0.6252789190882909 -0.21327300722866496
P 4.812132063292947 0.10902866902058309 4.280397508725983 -0.5467371168276455 0.05392323238101681 -0.4739070202397967
P 4.892274178156472 2.7383771841111755 7.805190609465844 0.5104709354067595 0.7121796348365929 -0.4746156162710472
Ni 8.998442126738407 4.48307309554581 6.619913769162082 0.4757523009786516 1.4034124922181894 0.35238897152794146
Ni 4.292309635383229 5.672045471942527 11.656921933475656 1.025940352469375 0.3352397134421646 1.5710836424473393
Ni 4.911787286461862 2.7274110619810363 4.206829419352319 -0.27464832501235276 -0.9441052241694385 0.4849928457403131
Ni 7.957535931549496 4.624361930887778 11.040711527883179 -1.409129854317941 1.397353173397987 -1.5810302121370898
Ni 0.9829504750556333 4.951990125618794 10.605224697591474 0.5680759875147378 -0.40885733892831516 -0.2747930781203332
Ni 5.6896571582133335 1.5196880286888366 2.431682516423264 -1.2336996289686626 -2.8540533212957238 1.9889118174156972
Ni -0.08127355510390566 6.778513075403043 7.658962783324146 -0.8978852739699503 -0.7289949066217186 0.652278073384954
Ni 8.110638057254834 0.2677691699670825 7.736403372821706 0.4037665546689691 -1.836457741246618 -0.9485360062472824
Ni 5.626081888799632 1.277680303396231 0.20083440785960724 -1.0469195258242034 1.4535376910093547 0.21770301797556058
Ni 3.5987894807203236 1.822032958148132 6.301089534970395 1.5578902836855169 -0.4654935993651209 1.2094577257021621
Ni 7.549502058504617 2.1358711366382432 11.146531311895897 -0.6358109289678663 -0.16760532998822103 0.037185607911361766
Ni 3.395205541294868 1.959161256166906 11.635498931453352 0.2777922699579732 2.4094859305603085 0.08585119143786504
Ni 6.042606270137547 1.1476305666151094 8.746590306575673 0.7649168173293085 -0.35168268948953624 1.0871326077079793
Ni 6.641205930757254 3.090535605684375 1.3822585152982476 1.88906765413285 1.4887934288878553 -0.0158603640710243
Ni 0.17606885650819357 0.5250409842264125 3.5035903624581963 1.6936630425441734 -1.0815638553709501 -1.1274889000378387
Ni 0.8908105754135017 2.355852487866878 8.972792696530323 -1.9692153674280344 0.38882870241221423 -1.6356890371325508
Ni 4.527963598926612 7.830291262918401 13.413180749995838 0.2008682058064089 -1.211336430782114 0.9796432691750482
Ni 2.0048236239379844 0.6144755933104304 7.858576327629867 -0.9586556111797878 -1.7706868654983956 -0.9287120295428198
Ni 7.69976146413845 9.364569411179527 2.1240041922867694 -1.1325683714432755 -0.4053511255472696 0.12937379731084817
Ni 8.897422021415954 7.168812893432316 2.9640063235613416 1.6480578431105486 0.729415539098905 -1.2107407061796438
Ni 7.259864652543765 7.209439316705863 6.509450561933231 -0.7457317597604254 2.2013073071354152 1.8397994040253411
Ni 6.85153897710744 4.393282675803834 13.274971841830679 0.514536620835701 0.32970438544623215 -1.64194581667554
Ni 7.48188862051252 7.31785802459852 9.119268084055731 0.27914929820649986 -1.5293482103817664 -1.1753679831073047
Ni 6.576614059463678 6.813209321043982 12.072693276384035 0.31177428333037277 -0.12894442308291343 -0.2845334453365487
P 8.601242594098498 0.8784899254082318 9.68447707941171 2.0652722957543075 1.844183906246282 -0.3955768197693252
P 2.299449909494521 3.091768706112743 10.190597031797957 0.5081808538210022 0.6080252742141657 0.9908491651931967
P 5.617751401172875 8.55749106134237 7.597601446893286 1.6722789204414423 0.2245922888962261 -1.450774783552237
P 3.4728908682820276 5.69716871654797 7.1892964800137715 2.150334415631974 -0.5746816657567134 -1.2337898746896236
P 6.421384600194896 7.9358013598769706 0.7227992301013592 0.62355756552181 0.1502012755791607 0.5587544530034958
P 8.69176722630927 7.488581249555034 11.775347580798831 0.016472029513094212 0.6529339618013981 -0.044786045966438995
P 1.246353904727472 8.479899864158902 1.896148882979284 -2.034335754076451 -1.1143438780154484 0.841677359319815
P 5.343466566194219 1.045866835843489 10.963009257531354 0.543486985321464 0.041443611856767336 -0.32752897506146816
Ni 5.678314516868425 5.611557660089928 7.650091049326158 -0.12675924250613654 0.7011449742889861 0.2606859492949897
Ni 3.503661901109002 4.722031015198787 9.76034570118761 1.1261701812264153 -0.05000795648701065 -0.869672044760528
Ni 1.537459735625921 6.6126563612974145 5.868854889396256 0.19557816105206316 -1.31466932394451 -0.2740204616203668
Ni 8.403777091913033 2.495183423292049 7.117436846577121 0.744781222921698 -2.265157568822157 0.6927302678627295
Ni 2.726874522099991 3.7430716438197034 7.303575709484305 -0.2666000007865795 -1.7749381845755816 0.02758588003806862
Ni 6.695142308272875 3.2155117460464884 5.825471404172564 0.08636001275348353 1.0480531252080145 0.09429932220521824
Ni 0.8601675591195482 5.95092384134136 1.2763342472034327 1.42563942193719 0.018578791443451873 1.8664787130887404
Ni 9.264923600990981 0.6762153315521342 0.5470852429530851 0.4982132010853291 0.3318265739955576 1.8115761475135896
Ni 8.808930592964932 7.472842746377701 0.47981161355231805 -1.5556143431671468 1.6625272403713174 -0.35151351090152366
Ni 0.5304958063503746 8.453863560457645 9.761640927286415 -1.1713606617201247 -2.225711189901076 -0.9528760283835331
Ni 1.2555127346267216 2.301125420000242 2.2840502736104797 -1.5653233429247946 0.20931865056660723 0.48044096470357256
Ni 6.061959357776661 0.9427852878201781 6.287326816372562 -0.2411838747063201 -0.38281720611081166 -0.8001769260831831
Ni 2.517586316570789 7.4735769588465 7.53860841632332 1.69786319666845 3.2315791971006087 3.576869095689924
Ni 3.236756842739814 5.79989257131725 1.7870910337195562 -0.5073617003538166 0.882906541172931 0.551014918267393
Ni 3.6439153086103566 1.284015239184715 9.252778973718614 0.8623680548999471 0.86081845102464 0.7705236219931246
Ni 2.6047222758486437 8.164781520338577 4.4518097638455245 -0.3511299023098598 0.35805773977794464 -1.4149395190211826
Ni 4.568919476513082 6.670442647784046 4.6180542927423645 0.10727953651497009 -0.5752074563531965 -0.27197617749682834
Ni 2.8936442953014336 4.1911295093945 4.2321098607299295 -0.9614000066941442 0.6295551778661415 -0.5618192079717484
Ni 6.356745663999473 -0.0841200403675573 12.529781955325058 0.03473200416454664 -1.320617571108145 0.3112695757798123
Ni 1.7761823307696691 5.4752294654025375 8.433028869708416 -1.788780489775313 0.43306324675055746 0.531362177033472
Ni 5.273170428796895 8.040040704485696 9.529363399801472 -1.6915637368129834 0.3698387915732727 1.9839858408689897
Ni 3.3237986722139765 1.6934892982260852 0.9328385914640251 0.7885665955377644 2.3506824872688545 -1.1126495210321612
Ni 7.361920185706832 4.499959982328187 3.560805281036416 -0.4230652549975811 -1.1172427968297984 1.5347526692267892
Ni 3.9676371164881474 8.766336856794219 6.264112524185995 0.779072025783768 0.5896519139133006 -0.6662170520635494
P 4.824321872871085 3.5911743796016258 13.484765524405708 0.010029359211544018 -0.05747572561896553 -0.11263565862056085
P 6.788970896593245 5.516844251614852 5.537438911364665 -0.8404308885072235 -2.072324574615399 -0.633640917899741
P 1.8011079027873595 1.615436865004526 12.983701283775769 -0.8775668741275725 0.8023258541053859 0.35188606374959397
P 2.92439650216767 8.648825209864897 9.770871295836471 -0.5276538749439493 1.2602064170099392 -0.9346821310833258
P 0.733435897918576 8.467390013248211 6.906526784530302 -0.7744188432824727 2.313382979487448 -1.0283921564439773
P 2.2342744334180527 3.8241456437397816 1.368995625958019 -1.7610585983800124 1.8827489110036737 -0.9499930504087831
P 9.029919133093072 4.975861443835132 8.828796688034169 -1.079400014950412 -0.8645987440026787 0.5557434340913138
P 1.3613616988785828 2.0585623288658526 6.3689815971814205 -0.8884871205845022 1.043119435351823 -0.06333681238543286
