# total energy = -340890.71998493024 ev
CRYSTAL
PRIMVEC
9.08420815021238 0.00000000000000 0.00000000000000

0.00000000000000 9.08420815021238 0.00000000000000

0.00000000000000 0.00000000000000 13.29565687367010

PRIMCOORD
 96 1
Ni 6.786929787984354 2.1094439075050855 11.363824417972321 -0.8863122244203704 0.613600454309098 -0.8150067920071641
Ni 4.995196966225286 0.6747204547006276 5.787798644239896 -1.2835564045897894 -1.08385110874323 -0.14845729630486046
Ni 2.8459278914556463 1.7633355879842045 4.775759749545118 0.9340650663246173 0.40807032425064554 -1.3226559416944124
Ni 3.7626062225457404 4.714640290632561 5.058452122406069 0.6296217694380188 -0.8235567384597042 -0.6764621268303254
Ni 3.6930211903271064 2.4560246058347612 2.26790701259848 -0.5484738970130941 0.6527688969784435 -0.5983409570468663
Ni 5.060158136642447 4.414443557643399 2.863259651634489 0.12259251272295661 0.2681480619999898 -1.072830075042378
Ni 5.096949178481281 4.545955634853472 11.282560728127018 -0.060248403268096246 0.08459006533725433 0.46060541803488414
Ni 5.544319163033639 7.96522422127607 12.383255132603955 0.783267037701722 0.757479901435289 0.47132563266586575
Ni 1.8442304589903316 6.491683948279679 0.35424958660630385 0.13804098606754292 0.06901380816555211 -0.7989183710857337
Ni 2.725852831943127 1.3447080371054445 0.029771674424298764 0.2498803740390535 0.8906913273246725 0.41501924476465296
Ni 8.131610572466213 8.909573049512112 7.009709084736747 0.2490928451407516 0.35963254046423226 -0.25438443255699417
Ni 8.644250590503022 2.3533730570004843 1.3957776368608905 0.0856997534616653 0.7014663621841467 -0.7238421587761856
Ni 7.073109588243312 0.8997880634133175 4.741151642855388 -0.007538731579206372 -0.776640790634456 -0.6547501890745304
Ni 1.0132707132807899 7.595996592747825 2.4663978627917404 -1.0277516946465008 -0.5819905407133009 0.9279463550213889
Ni 7.5868851322628 4.22620060233863 3.8222622155718193 2.0339377473070845 -0.9821251550566374 -2.8357529803246386
Ni 7.5814436917537975 3.975458296947151 12.778122937821117 0.9560559687734116 -0.275784495499325 -0.07438021468378804
Ni 8.204765698374395 7.104777136848293 9.123173662641307 0.34187521648081126 0.52316832836877 0.6018980782705053
Ni 7.065551527302595 0.8672911266305866 0.09896336044253218 -0.3810986807578082 -0.9126043253476799 0.20408619852307436
Ni 2.076313801434412 6.467283765963849 9.29269315712286 -1.017082902078745 0.9874959324502477 -1.9085676718389903
Ni 0.35504627163575214 4.833252792679388 1.3998328272502374 -1.40262547754052 0.10376432427286 -0.17365770682988801
Ni 6.466375345177704 2.3478861954521744 6.7845079381684945 1.3123620159675722 -0.5532975436539825 1.3384977938226754
Ni 3.205826038510194 4.458038671170452 0.4007988845298969 0.45808059473050133 0.019062415948089752 0.0854776101485302
Ni 6.148282722701507 5.825947775154015 4.658651592320145 -0.5880316047010582 0.8475782981852823 0.5758165506921051
Ni 5.478313308712413 3.119080937641299 9.13878305700962 -0.3095924451877055 -0.237208692108656 -0.016006145620269207
P 0.1407334566102215 5.503167701421313 12.297444796724 0.23991143575179974 0.07183250856126984 1.0850595272290346
P 4.1412269220027165 6.230767330083386 12.519828022013634 0.03434813846256665 -0.49004557767287216 0.4954119841911081
P 2.514672251788221 8.416772941444691 1.2016481148619083 -0.2647701466666924 1.3152753329596252 -0.2538828103302273
P 6.620616110457103 7.944793837795692 5.721453040544652 -1.1339462256274084 0.5010568411817112 -0.583094572410757
P 4.951220315968054 1.259843367263868 12.46893283904913 -0.14822409724813182 -0.6679443191673012 0.0642410693672571
P 4.248747606250725 6.31687653640198 7.810320308822789 -0.4436538777822101 1.0521118686584203 1.2729714299850916
P 4.905245139981304 1.2800829823791573 3.555750633753666 0.19329013634883485 -0.8483784254890743 0.3904024746572373
P 0.34102297996004655 5.735205622826086 3.7035052746199946 1.337986915624528 -0.7055454173495268 -3.0578289305569144
Ni 0.7435306039886804 0.19261881823162472 4.636195430486664 -0.2478846837652634 -0.40249360149381647 0.12137072450071355
Ni 2.3111587430683707 6.627193076948785 4.860413665764309 -2.5424525874287376 1.0546222937850998 -0.49984070938642305
Ni 6.101526304838672 5.77854637853302 9.183176672407694 0.574854700999468 -0.8117880279595503 -0.46432914674337455
Ni 8.73153165963574 2.6996267238471483 9.815065995462415 0.10242940751152037 -2.3298478099116906 0.6812163536858591
Ni 2.5037530339387697 5.427468997311931 6.903051400235575 -0.3599780967291091 0.42375456775512177 0.6973651955315795
Ni 0.5475315520118137 -0.030206807980861762 8.939068564017424 0.42955394804571834 0.9631894944943993 0.7655068855048236
Ni 1.3224698962606383 1.4277467811668716 10.929069672877144 0.5695764833196642 -1.7483002702730792 0.12571177507822867
Ni 4.272094020454627 7.077560850095418 1.5486911993717314 -0.5966789959634111 -2.3284468157991056 -0.13404626308585302
Ni 5.7887297755456935 8.028177781755852 8.016988762932918 -0.23690761592846943 -0.38904416085712995 -0.6228991060022047
Ni 5.583708288320844 3.080336791112256 4.807629875985409 -0.8265739280194733 -0.4148786054217307 -1.254265368935156
Ni 1.4592144771989013 7.7454954015235495 7.1390364099561445 -1.6537780334237775 -0.6770465385788855 -1.3082780757061856
Ni 5.512133814580555 4.847678514763355 6.94753858297462 0.20540697421702686 -0.3784987812411159 0.16559369887483094
Ni 0.7300787089874595 7.168929812765786 11.113068486269048 -0.6524205125000893 0.3102413916256141 0.07893415260305761
Ni 4.338545000961065 0.3977084370154349 10.335671046952132 1.0573726028367274 -0.5644121655099054 -0.36043035377517924
Ni 8.477655302532066 7.144184430551222 4.814370358218598 -0.24008061433981231 2.0591332727361054 0.1999698623618556
Ni 7.5392384620295445 6.3848627480369995 6.9299224870897165 -0.4032628755596732 -1.11356277687505 -0.07585371390552098
Ni 2.343925480824586 5.1577952027372085 2.6799521464608405 -0.10695583462696419 -0.11872608778901486 -0.3526661364487281
Ni 2.584538894450559 5.349226715001343 11.361696896491171 -0.6761541086716032 -0.08919362554753671 0.32807379182134466
Ni 1.1009242349358288 3.2785451224410247 3.7213875377952403 -0.26352213319220424 0.4566780579560199 -0.7452388792844068
Ni 1.4902097944221362 1.094083826416164 2.36738453920597 0.11648922803869616 -0.26223066807429035 -0.15694862160532325
Ni 1.4615309502035687 3.608274615187728 7.990915269529011 -1.2988045889981115 0.034736117929604696 0.18139158513903597
Ni 3.960614701301558 3.120934116045033 6.752000100336329 -0.42260939840708506 -1.2934497524441015 1.372373620634514
Ni 4.435409909387603 7.216849009234885 5.756434508177487 0.3002727104486764 0.6554986372047809 0.4541961720744307
Ni 0.8543724746308322 8.752407169301332 12.896281229474871 -0.2972910021125332 1.2459103121022415 0.5484142474197522
P 0.33621652558055837 5.707925746618181 7.770819447778887 1.1206837041905475 0.6537731698732417 1.1397422634838952
P 8.49591456033356 1.918094153111704 7.7864815305527975 0.48460075250821694 -1.4153501241960398 0.23564186184216834
P 2.0265959318087488 3.4290431940815087 10.159942496397283 -0.7460852864451022 0.19626413137549426 -0.7468152226325913
P 3.9317814255493455 6.202715296207258 3.587327340280033 2.290089556177146 1.685900110769303 -0.5904055042498736
P 7.096065381509173 4.125756516014683 10.350469221558418 -0.3005424191702953 0.2627996532038828 0.350024585060823
P 6.3721448570309835 7.782477211727474 10.282514804650912 0.1581143597786503 1.2636766349467268 -0.8005057701775117
P 2.733774261198303 8.908828144467474 5.576797022979861 -0.6062288444353754 -1.353083404946334 2.0341022979094063
P 6.998064947099953 4.265180938272072 1.6492733656551721 -0.15958554500753805 -1.0485280079619037 -0.13015361289966618
Ni 5.2063048727173005 3.2246030961597913 0.16530714729620405 0.5493742973401764 -0.6294070823240516 -0.004710775212108016
Ni 1.500293265148335 1.4032830093960125 6.904900036535379 -0.13626178267993308 -0.7048990420147795 -0.2047516000212151
Ni 6.675811757423214 0.852586519365273 9.118187340946161 0.8725537371836972 0.40894938442148926 0.012096526153217876
Ni 2.8466455438767 1.7836660451781081 8.90096303730104 0.5402713065976438 -0.0660207869754992 0.05995992549339995
Ni 6.353186115224157 2.093655554241902 2.1181047912801825 -0.14743476857761706 0.4619439343406495 0.9557019278681023
Ni 4.264145338575867 6.911619625090486 10.033673823964834 -0.13808186660780736 1.3357803948915123 1.04483307560882
Ni 8.317200939075443 7.152750838564561 0.4121586864606282 0.7081928822747029 -0.36082887476517855 -0.935212549665499
Ni 7.714481915884591 3.987267767167024 8.18089694221846 0.08556965564170424 1.2050871074382923 -1.1993327214530183
Ni 3.221151097172444 8.330654650918236 12.228892638939213 -0.4327655130044805 -0.7260373666552915 0.7045881956425801
Ni 0.2816095352838676 4.857471290837988 10.015033029433157 0.08217965612354879 1.591345735130485 0.5002937377634415
Ni 8.765978975846323 2.4597218784343675 5.595091709192015 0.1575857409686899 0.31314879508039617 0.2610854987262536
Ni 3.7102721010559816 2.538727234205315 11.093789071924714 0.7267248796406195 0.6037382168030376 1.0725752787190947
Ni 1.438257209662558 3.3279995500387067 12.261294191539397 -1.222103953711263 1.2113863101834428 1.4401229602653456
Ni 3.353653353039414 8.696666469863533 7.850499760193939 0.9788603682624368 0.12470878773501104 0.20867870298976318
Ni 5.699195822863337 7.990641834872382 3.466443786267845 -0.28716574075307316 0.8415650021116667 0.3678932378111277
Ni 3.2552168766528458 8.62822604783544 3.510173346071247 0.36895150387231296 0.010518897253452852 -0.7986540616807535
Ni 3.6056947001550794 4.645990931823655 9.249322423529986 0.6180420350202194 -0.7124267178503925 -1.0253281728066728
Ni 6.946666499019923 6.146811081027954 11.568338097977716 1.9969143760051995 -0.6469600036061502 -0.812525163235891
Ni 7.881958372018108 -0.09587382134885629 2.3314601307971174 0.9989185724648925 0.21616395562321483 0.6279996604535636
Ni 4.664032168636476 0.17573218423799308 1.2306085695241802 0.6086341114427584 2.1057532865874893 -0.16534918696419265
Ni 6.060592864215022 5.690365972822017 0.39479422313348483 -0.9384601100685191 0.6829551907538367 0.008383853188321046
Ni 8.112779009569447 0.027605999270131364 11.08251466154788 0.126202341561402 -0.4347048961190385 -0.13339911642015737
Ni 0.2932055266189963 4.926175154894062 5.644856816698558 0.18482632185219783 -0.41917157637012975 1.1771903810280242
Ni 7.351622317067215 6.414804297148308 2.5580448022226685 0.9718870222683973 -1.378946131645709 0.547190145204664
P 8.615026693812768 1.691797451075361 3.4662702778976913 0.12096680419407553 -0.3346753562982623 0.05547643580074962
P 1.6947316502146064 3.063948880130217 1.2977372319370806 1.0884986348175705 -0.12224387113428624 0.51417872327565
P 4.87047079228771 1.3264669477196722 7.878128469983725 -0.6230209762920496 -0.45669502723688443 1.4109604797687763
P 8.809510499918346 1.8467922056072579 12.379253539040988 -0.7587471981834868 -0.8893139873611716 0.022941439287521778
P 6.460188999624065 7.8318771340779865 1.2344057684102623 -1.2028695309616833 0.7423091072321216 -0.5216953433676693
P 2.0501512827934634 3.4803962211222315 5.753443078528714 -0.803307501292365 -0.14173746108252364 0.36723786361531596
P 7.236298298266228 4.203853450999486 5.800681867828991 -0.4524156831352402 0.383717606437894 2.369901997620099
P 2.289629170436757 8.559449510116474 10.319197744416195 -0.011369161068890098 -0.030134357491535202 -1.5852234242828314
