# total energy = -381171.6020145306 ev
CRYSTAL
PRIMVEC
9.22335327423981 0.00000000000000 0.00000000000000

0.00000000000000 9.22335327423981 0.00000000000000

0.00000000000000 0.00000000000000 13.49930982768496

PRIMCOORD
 96 1
Ni 6.920853919572383 8.971491308982358 5.621086042812062 -0.8049049276864718 0.7256298468042277 1.9997109649137303
Ni 3.4461861021044062 2.390102912064189 4.551359668391731 -1.281635790528309 -0.26578804640824544 -0.43059318794351004
Ni 1.9010161502170209 8.77631592724385 10.162644975858804 -0.3790824216587278 1.7932243844792792 0.05887440573870505
Ni 8.708985447271678 6.682052076153275 12.7549846690405 -1.2593060166828571 -0.78906564666137 -0.5224440486082357
Ni 1.5816575380202496 6.1314455469890685 12.071974134514033 1.015043245940897 0.47564714285935505 -0.6873630900135453
Ni 9.005368686097123 7.773765080458218 9.083240536693978 1.580372523948433 -0.2383191515640154 -1.9349171083667964
Ni 2.610227464806085 0.46154398386183965 12.542627102214299 -0.737681121541807 -0.8440234909544884 0.8980572807714404
Ni 1.8220826916414263 6.663974303448419 9.330318495137611 0.5613584662852461 -0.975477567833133 -0.5024794325608507
Ni 4.193702003450241 1.6690026949156556 2.1390598339849354 -1.173129066474457 1.723632078102438 0.32994169826801883
Ni 5.3781834964620465 4.413300825047148 6.1184950364508595 -0.7631666674074211 2.48336915100302 -0.6442744863541873
Ni 1.4553344895683513 2.7375650821342767 6.4338248878734055 0.679958570019358 -0.3662413040300015 -0.44184973469393585
Ni 3.195790503435296 6.267001172215234 6.584126810548819 0.35732137583255236 0.9666651117478253 -1.0090194083443202
Ni 6.408155372967851 5.824824385866485 2.7892545993753783 -1.371688164531715 -0.47383245824811937 1.170265885994049
Ni 3.4126038722991083 8.119281122956506 8.128717535841375 -1.3929925824364462 1.3573406375607913 -0.026491361422309213
Ni 0.9671792864166885 9.091579370521764 0.9121380025424516 -0.17974453645391625 -0.4223790275638339 0.24564113914672533
Ni 6.06097912685381 2.3429070126097233 5.632600477222646 0.36291609631151045 -1.4028813023050677 1.1657232609286892
Ni 2.2298563697304217 3.3756551184952017 12.240715385348398 1.1222741886061187 -1.525988549880914 -1.4075092879953823
Ni 8.890482595887073 1.113055844120779 9.615923323155455 -0.14498039349985353 -0.257267410531744 0.2710634358745719
Ni 6.478234412259434 8.05079772380673 3.668599891165356 0.2075754426232554 0.4531754441194002 0.6150634120078697
Ni 6.883951282535581 6.270542939928838 9.190222213022365 -0.34432496357288445 0.24651582844219477 0.6826368881824695
Ni 2.169388064703359 0.6127461058311263 5.205820234739315 -0.78988120058413 -1.1283021399677535 0.4280079437148371
Ni 3.9919042539555654 9.053173326877365 0.8174464446473425 0.06475426155824977 -1.4792500081737943 -0.13035595871845934
Ni 4.4110226567522 7.38875463861187 4.517814332000117 0.055008495025395586 -0.5337733575781259 0.8470337385357218
Ni 8.841073091611603 8.46725980081816 4.273044978917722 0.3348432493346943 1.4011851455495674 -0.16620279321373957
P 1.4937220865059098 2.11331929925804 10.419833574322366 1.1937264310098346 -1.0960574210014349 1.1829671356108014
Ni 6.008406012354991 6.967155153745027 11.467771620956634 -0.47588625545335456 0.12289513156503996 -0.09543986356756466
P 5.966568881238036 7.836142619643395 1.718488753024517 -0.6088107462299386 0.4197369619552965 -1.6977559816666246
Ni 4.961509282321936 3.674620896278484 3.773772867887914 1.9009425511935647 1.439309977445747 -0.6364148811004524
P 1.3769544321980072 7.730692019982871 7.209711824341761 1.0787533825053486 0.14644129431609618 0.8588857527783014
P 5.2310433393393 8.166919743375175 9.40004243532249 0.9431539159997628 -0.2556612423868887 0.850266900761039
P 2.44673430206818 2.4348638462155514 0.8387136529651279 -0.17142238974146606 -0.3703064752383106 0.04720571115152515
Ni 4.926193062073519 6.853597226427579 0.14933347056622345 0.9467971691793048 -0.5055115345189553 -1.478995726071143
Ni 7.704147208837678 3.756690295017166 4.447631068814878 -1.8481310638194883 1.1572023679418715 -1.1276789045614577
Ni 7.72566529236851 8.400436605284137 10.692304347068928 -1.904616914721358 0.933998731863056 1.77472246902035
Ni 3.595392290393422 1.3627320212230636 10.795695371910579 0.5955461679105485 -0.1520763811146865 -0.739902554673158
Ni 7.429300500249906 5.712262580718488 7.014444209069044 -0.10898854878627681 -0.976311376588338 -0.9904586146229976
Ni 9.088489547125782 0.7612181151878428 6.80974018091146 1.3721021121406822 0.031419394851545886 0.930325653886843
Ni 8.77926740033852 3.3268266854852464 11.423953313524883 -0.28557757033034686 0.038682247061546285 -2.390046076668142
Ni 7.176423819510587 8.220193832733976 13.419097474743 0.1363970227062167 0.4616184326804308 0.02170396733599488
Ni 7.903971160700293 0.85543098104041 2.178599427764757 1.8209550176253286 0.023704028485159175 0.7206169669706686
Ni 4.537456385445148 0.07962152074078986 6.2579023340655695 -0.45365109820423805 1.2463558842800924 -0.6036798527612764
Ni 2.733967974300147 1.2160991485384638 8.34832465845636 -0.7830076133927483 -0.36956214087311834 0.2819461442253467
Ni 0.3800667244127757 4.247197453291144 13.3239678075604 -0.06497023422379779 1.412856925460541 0.3016963302690804
Ni 0.5507458018008615 1.8685222761153826 12.559515062327867 0.49915088240825 -3.1705154970200686 0.5282462571123097
Ni 3.7811414049358274 6.130873699076976 1.9445217859678068 -0.15639094932964034 0.8728239601259483 0.05072812248248683
Ni 5.346602734349072 1.09768051396823 9.000408366627394 -0.6915586161521317 0.3079112008305407 0.06075876724561149
Ni 8.536453398181344 6.138584422536804 4.180358578056304 -0.8551990479553335 -0.41356914258168775 -0.24973587804138928
Ni 6.115332348562852 1.2413803602650009 3.571890263541766 -0.02377473382209454 0.7349850627668826 0.012175459020269353
Ni 8.57580944722809 7.7096535508299215 6.718808984206029 0.21152439996867442 -1.1563842429159505 -0.8645555494695691
Ni 5.965249941698855 2.632547980084531 11.245573658365732 -0.2726798884320723 -0.4287679618093132 -0.6329580329001034
Ni 0.5211157789363958 5.301961703792181 5.882864181937838 0.8968997701282295 -0.8441466467959139 1.6268891794527336
Ni 3.034529392225235 5.460944646707293 3.8356671033538388 -1.3114153357835865 -0.718336141356292 1.967431536054734
Ni 5.6893333241142665 3.3195955764033034 8.0800661912171 0.09926155130650001 0.1264694791798596 0.5018582540370841
Ni 4.266760185896757 6.142070850129882 9.001245847118005 0.10267211964994576 -1.236929962980502 0.2593083522211728
Ni 8.273707729281721 1.5039231153893649 4.832739278207487 0.930669667489823 0.8308476156941627 -1.2942696772422355
Ni 3.6945156696072474 7.504544617457162 11.065411128990334 -0.1752913857785691 0.7105410707919054 -0.3754116576753599
P 7.27278941605158 1.596968304698853 7.439645413446726 -1.195469124732554 1.292441108673929 0.5795096832729763
Ni 5.671190987935463 0.42019107879947937 12.199448257472852 -0.6807509840136663 -1.1550462408308173 -1.4300372938945694
P 5.498133207700142 4.653154130756233 10.092422052253855 1.0821582944218395 -1.0635087976414521 -0.44376417810782925
Ni 2.8352496182144495 8.314262814273178 2.9145686129630364 -1.61603295346452 -0.5278744755951876 -0.3401435785016852
P 7.68127329235398 1.1971359339052055 12.007339640746775 0.24469497318337216 -0.22679469586418358 -0.3755990910958177
P 2.8843916452407137 4.294070535375881 5.744982426978936 -0.05647016717258662 -0.1479281632742678 -0.2348905854984406
P 6.797731374757518 3.2012322819535948 2.2511715394859952 0.6322121558730144 -0.5006130687760733 0.38237343370517374
Ni 4.434966482232715 2.1839056229877696 13.164580881765456 -1.0016141170191848 0.7137348951388546 0.27849958043764295
Ni 7.3538073525002865 5.025030517331298 11.466732149026106 -0.5862485446587065 0.588340908411361 -0.4406847678515572
Ni 7.077401897184392 8.822202110512555 8.259322987286572 0.13487338697283865 0.06467121492614024 -0.28389581175254974
Ni 8.372784991728443 4.887731678308594 1.944265376742707 1.5120853095362603 -1.3210986245096217 0.7772439714360936
Ni 8.181298951358272 7.703335553736643 2.138007449359617 1.3717503852282182 -1.0654972888263907 -1.5107925588667657
Ni 9.341412344632204 2.382078594588054 1.1696595640645073 -0.489697450304834 -0.2615891778355495 1.5296264037438172
Ni 1.0754430088705715 6.248434561779072 0.8871491711193552 1.1215727916637201 0.8558590501368356 1.2848396421775872
Ni 1.5265848947443819 3.950491397095969 2.200414503275741 1.17701400335116 0.7939867381120712 -0.36464156364304945
Ni 8.995250667394457 4.888543333409628 8.816143289650402 -1.6700117216738206 2.0530652121651545 -2.093129170065576
Ni 2.3776882783597313 4.6773931035462155 7.9938730311639565 -0.10447060631126524 -0.043517720776976666 -0.38241534268670274
Ni 0.9438442022619498 3.081015093466296 8.715843010540075 -0.3399378902487823 -2.1788173535630153 -1.390482928640715
Ni 0.6710976512481046 3.49084557936814 4.291970377801954 0.8756547447065242 -0.5059090270676899 0.13433654063276218
Ni 1.2874971273692277 4.596559634165926 10.418565363227001 1.5461123172139823 -0.5888677274491084 0.6370609993248835
Ni 3.498334942345866 3.2482990544601686 9.463718622669324 0.7108791708576144 0.5830076691239057 0.040277359462808054
Ni 5.401583144090732 7.361840893329843 7.251748179892607 1.1133480897610828 -1.0706970878597752 -1.2025717972156063
Ni 0.36400056508900513 8.769047924748223 12.050213476788231 0.03836934380681779 0.02816206425651279 0.13911416452706363
Ni 8.530596568759107 3.435440895369122 6.689259204516324 -1.6236804427074492 -0.9001151917417336 0.9384570247447256
Ni 5.004038164945454 4.141691513510094 1.4677260648892572 0.46816420421874855 -0.45478289781583614 -0.7575035555843729
Ni 7.492415907708751 3.2263013565514527 9.544552092049614 -0.0065997647047047634 -0.13003688481614378 -1.3669205679397427
Ni 1.4459358924325099 7.2500999666363 5.046744135954653 1.471921078612549 0.5180207227295595 -0.050477954144893714
Ni 3.0939646816691626 4.740397830764009 0.21368572971880376 -0.12855798627777215 0.8408332661519649 0.4548260923489457
Ni 7.340839317590578 3.3039066522344456 13.221049018413897 -0.5624954081031668 -1.034226246627251 1.6264166106916893
Ni 6.840970455594442 5.5818812567614176 0.5023453323896333 0.08133273474222122 0.5594507077395721 -1.533845069810855
Ni 3.794533714102895 2.534217809264898 6.808106725020627 0.7292059941912603 0.23261567342133485 0.563193719721772
Ni 3.7055099068848953 5.06214529149678 11.173730191564742 -2.2659813502750334 0.7718410552529675 -0.7766359055384495
P 6.458035268267783 6.235844684359618 5.114753454738598 -0.7375142569466395 0.05380727562844281 0.10158068635797989
Ni 5.249241015638629 4.468013757539604 12.496419023911205 1.0983942966647275 0.0604620619407991 1.6635112015511413
P 8.946283884083188 6.20520470429557 10.510023213412762 0.18119463863688148 0.5905993654282345 1.1016351721995286
Ni 1.521143116226083 1.283318948269585 2.8223277000718454 0.2561942320722233 0.6344464445201718 0.36326576634144536
P 0.9954673113584213 6.874248314736851 2.9450637863783773 0.23383411920946826 0.24091056644027542 -0.3682179681403981
P 3.0005044414557367 7.357035526197581 13.098164436117289 -1.4179685356554936 1.16978766080605 0.8241576052684968
P 4.199180675382223 0.34924412195099463 3.8792963320404636 -0.34950290822939806 -0.2511134751152062 1.8184384218510619
Ni 6.076668051022668 0.9685443427229737 0.8818033154766333 0.49595011608276524 0.5345315759003891 0.49933600183586263
