# total energy = -381163.6536371959 ev
CRYSTAL
PRIMVEC
9.26617817934545 0.00000000000000 0.00000000000000

0.00000000000000 9.26617817934545 0.00000000000000

0.00000000000000 0.00000000000000 13.56198840512161

PRIMCOORD
 96 1
Ni 0.9353372881128247 4.824917492346262 11.165109931263986 -1.4645805790870778 -0.5668112618697013 1.0120265706017604
Ni 0.5627498246178739 7.748980466249307 12.696068810963311 -1.5770501444434195 2.3030610287361495 1.8080131127526797
Ni 3.2515482418960655 0.5497150918216038 4.739819692117992 -1.6776090744051042 2.3211471968138992 1.6781852586235486
Ni 7.307947451270081 -0.054219188178585224 3.3659225319727857 0.10279630393263586 1.972923926627873 -1.6157455041310882
Ni 8.1423575270299 4.306725011955405 6.778281589100351 -1.1987107715983034 -0.5146098972757976 0.6641385722679659
Ni 6.7332868812649 2.775461274995115 3.4458572177387805 -0.34761160474395614 -0.7408651756967435 -1.2469986600704137
Ni 5.157536223031494 0.2853640020002673 6.036861317494717 0.45810964819622396 0.7690616927356174 0.4997034124776104
Ni 9.158431025318242 2.7275551339865727 10.468769616332734 -0.8250001557744502 -0.41187632826029713 1.0783193802917235
Ni 3.2889280045321314 1.0444187372332432 8.738382197365699 0.4776315202792354 -1.2240878169105114 -0.8883994459667022
Ni 7.697219595132533 1.749343239597824 1.011292150365634 -0.8065355213113594 1.7074845218082981 0.6789625246546759
Ni 1.1280830597025144 4.063839950424279 7.298749842843567 0.04935129673961823 -0.21456164413310144 0.49148745232572133
Ni 3.1593405031773014 4.041786446439689 12.34851578096213 2.260518527388249 -2.286350143739372 -0.8661835719912954
Ni 2.9415760505966904 5.167098918876912 4.539563683141954 -0.689797924707283 0.7066527914810926 0.7360507850272355
Ni 9.250379311048953 5.821921196012636 3.0274151450765427 0.26063478434208015 -0.09284716313972396 -0.6154596190050239
Ni 5.540924343772006 5.237197556542217 8.584331985708635 -0.08012431625641685 -0.5258672153571717 -0.0546847931373897
Ni 5.218711531143369 3.372601593179547 1.7416032009934843 0.22730763094486015 -0.2859082141968882 -1.0076901480099354
Ni 1.6747690378885878 5.736561162942869 8.96949179971043 -1.3174036921565377 0.7775319349901576 -0.6256003069834516
Ni 4.661832756998032 0.2984515520119628 11.92996622063341 1.6907222147482945 0.19306079394684814 1.6309936885394105
Ni 4.375526384680439 3.222823089647229 4.409748233804763 -0.05220316436611654 -0.45082159917524295 -0.6558141115626706
Ni 0.4900047664744185 0.6236527070922931 4.522516695208991 -0.1373511590893699 0.08950678591258134 1.8454707433785054
Ni 1.6069962109376241 2.312300626606141 12.879073976087204 -1.5068628847950565 0.14556969034442027 -1.6245564175544989
Ni 6.267948681011901 1.2248775566029468 10.309524785207703 -1.3679415530050894 0.7444608634678017 -0.40352564230275667
Ni 5.78692284115978 4.658617393181791 12.780994260278087 -1.0377039207632064 0.2790009455540937 1.1299409611227573
Ni 1.1762671860554006 7.948842662654192 7.947216448389782 2.1588558228394237 -0.7635824147886011 0.9245429857667947
P 7.138469053001949 4.400878648084573 4.83659843651558 0.06405877815312193 2.756464786816272 -1.3427609399744036
Ni 5.168572241201933 6.97745994155815 6.732320418884399 0.5628818449083081 -0.12928715113431283 -0.2212143735629287
P 8.762338974341228 1.4567821970325014 2.7770337454262854 0.6869555701624814 0.4550122402178228 0.7082494465442513
Ni 3.6064706633757964 8.225836525936275 0.5666740510621908 -0.9019172779474789 0.9267783028552167 -0.21029849798137332
P 4.553001494687522 2.6972639976312673 9.149866296859017 -0.047898366343175576 -0.4474387987459391 -0.8345173512362661
P 2.0024488956226483 6.5937660369388595 6.30437124744561 -0.6418118837463076 -0.6553366577056198 -0.05622128438657414
P 8.59919864192413 7.564166543151554 9.011439788171876 0.4506269666659336 0.8156156292357566 0.08045418879200983
Ni 2.0793674404025153 5.2455000521599455 0.08847995525111628 -0.1371696392061831 0.7300819690383105 0.7257910549724403
Ni 6.8065545518557204 6.753181365741755 9.812777020897324 -0.3359369966195053 1.5509434200540386 -0.03600701422222831
Ni 6.912559629832071 8.28164671690232 7.51326001365973 2.129381981750023 0.42380239027392175 -0.7575225817477663
Ni 6.313547543662392 2.849738959003718 5.84775344744467 -1.5496591540249762 -1.3877053658955776 1.5655938229773618
Ni 9.205744130925519 5.814267332865043 0.458293125009518 -1.7940527939178457 1.1009759413489748 0.7298395140102011
Ni 0.47597577276321285 0.7875778847982556 0.8814841139709584 1.6235639717342427 -0.14329246427446934 -0.7824975065255491
Ni 3.6255775227103446 6.68071985264953 8.5746210310129 0.5397329175956704 0.7784940417931109 -1.142900606607219
Ni 2.419297185643983 9.000164702605302 12.259780079194215 -0.25646831166921635 1.0187173523583744 1.272764199070292
Ni 5.275893116474842 4.7519370732779285 6.212421108479272 -0.8774735430828178 0.8810887712379019 -0.49027569140580723
Ni 8.647493962414753 5.2785432434242505 9.059489554941663 0.8715643766872344 0.8779391698653267 0.20249031479086418
Ni 7.152738967344919 7.027247116730085 3.245383453576339 -0.02876395950656982 -1.6911814137729004 0.11078137902064149
Ni 3.150324511842425 0.21786823377583298 2.524686062773704 -0.5217027995668371 -2.6372771860098063 0.7138061146964223
Ni 4.196438959676164 5.814461922606083 1.1873652876194105 1.5507415884558777 -0.3516608351126653 -1.1873511236111098
Ni 1.069483749114889 1.4093115663967637 8.572071905405268 -0.937225980551102 1.7619150328430366 0.5466846663231553
Ni 5.799080066885739 7.822804107528816 13.163768033407603 -0.024194852078648653 -1.0363144966148474 1.1306115048272207
Ni 1.7569322394984035 6.7459722791451115 11.334038845168132 1.5115273801502613 0.9033547817249539 -1.7050239760829475
Ni 7.785489208139762 8.690340770156242 0.7449219603265487 -0.30825238622004336 -1.484797677464901 -0.018136047479078442
Ni 5.026994305327751 5.678638283359813 3.478202665788784 0.86524486222711 -1.2799594312671505 0.18742030783161917
Ni 7.374923386900593 3.520304472807433 8.869405029715155 -1.0342704696016252 -1.777903437851493 0.3514170945329754
Ni 1.9580546361309794 7.98504562066587 4.5207663141574415 -0.24977624436102144 -1.3047600352505981 0.5414123621806224
Ni 5.018895665629208 0.8591600375845404 3.4291354726587 2.10686631714601 1.008306955658328 0.48423668430057887
Ni 1.8415046474258634 3.5996229577267997 9.673548987800661 1.0208151154276677 -2.805785487428271 -1.4541796954687278
Ni 7.404751214348659 1.0591334281271632 5.587648120449274 1.502779201643986 -2.11247620713362 -0.09166471279584858
Ni 7.430742844044783 4.39992423173566 1.2921750286150828 0.02919873305114326 -1.0059986192401256 -0.10129529390707714
Ni 3.312213910209978 8.338893165480805 6.673596941509633 -1.4471089046648755 0.34151551914854733 0.8594156571398425
P 1.6648542272736668 7.167453658238839 0.9169846956792619 0.19666265236549357 1.2727094345729566 1.2220749002455407
Ni 0.7515287453437809 3.612475146813617 1.3337032592065692 -1.226788760781442 -0.8855074691308878 -0.8250420647559791
P 8.995772534164672 4.1196872061029035 12.717713676491718 -0.7885627388830225 -1.2128672656043433 0.4929118434770737
Ni 3.404106598871819 4.130500835997869 7.929748775969046 -0.2674410086306362 3.324025782367804 1.840044944377244
P 8.336298635600267 2.0821194953115167 7.4964706254791915 -0.610886912032677 0.913214448127853 0.3026748921322658
P 6.968823863527211 6.434971542071666 1.1459334252806297 -0.7259309229844143 1.324720794643241 -0.7080154761565741
P 0.13042887033037612 0.6743998583200272 11.878253533642992 0.4314344528978828 -0.10260398541617168 0.08938234451957511
Ni 8.405906165823897 0.4843737100158322 9.81658727335046 0.41925128056812955 -0.745093097735162 -0.6734130555913563
Ni 8.918483342259014 7.716873158977624 4.881882249109148 -1.1444116439351064 -0.4832144136836517 0.45496236081649394
Ni 3.628542699716676 8.054134244913394 10.482304722748822 0.8955093175386062 -0.056386349209528695 -0.6969962422279351
Ni 1.7635019598030566 2.832114688172336 5.301679963633966 0.42026300966209557 2.0064503405200926 -1.912923634814841
Ni 6.654450237609062 2.02076812981489 12.565684418288031 -1.0716990467617284 0.5959632008433091 -0.48871040380121633
Ni 5.673801338368235 3.5936277404671233 10.591899518138462 -0.3844778816426862 0.16031573830534326 1.0803883470056104
Ni 0.30358872117543206 5.302644572778839 5.318943780135517 1.405678919654863 0.08481169442975717 -0.9517910228494704
Ni 3.257867775390809 7.143305997993527 2.7369037811168466 -3.9364129330950917 -1.5866082204454997 -0.07974559276075943
Ni 7.1315472179277934 8.891806015380174 11.647307016033608 0.5365131251067922 1.5099674918623092 0.2066274768876893
Ni 5.117904779106244 7.9658738980843085 2.2006227943695533 3.8272598337064925 0.6125969527452482 -0.3871060632941527
Ni 2.8097090694182434 1.703911168153939 1.1285417355206813 0.1900700867496404 0.9067704922747223 -1.4461884497331352
Ni 5.563274365457229 0.9188036464490833 1.070748582431652 -1.0341277733761738 -0.19454663446375528 -0.47742248959222294
Ni 3.176362472429273 1.6604435264767488 10.948105305291246 -0.2966181444152246 1.5092028457821427 0.1431255996793019
Ni 5.063762500206261 8.673300268547981 8.553342179521213 -1.4897280248869826 -0.33323091054225196 1.177591730231501
Ni 6.2322182980856065 1.3644169332852762 7.984810259740993 0.07582491755011457 1.0227568125350708 -0.45129982436324206
Ni 8.645112554631543 6.733981844625759 7.025517121270453 -0.014545244804026563 -0.8324206166082373 -0.4509182726541073
Ni 8.714395768620106 2.8639440100996745 4.663113342817641 1.1863532784742148 0.4969317632697442 -0.11120818214541492
Ni 3.045144123720961 4.014173235568228 2.0573806529005676 0.9531426517813586 -0.3779125697203427 -0.3436485063311501
Ni 3.7743645451811703 6.661501799177244 12.477096975370435 0.043148510363016014 -0.6760402088015584 -0.12098377347494003
Ni 4.443030492465204 7.735034868141404 4.537475086588119 1.2590733318467606 0.038656021809301166 0.697801768848366
Ni 3.9829369490421542 2.5049166717018037 6.848098534950053 1.9996891105368593 -2.2920675058391233 -2.3548641294503705
Ni 3.387575737061521 5.156044368350182 10.413219804972558 0.9245195887280271 0.20769551314088747 -0.6148186429869154
Ni 7.838677070690833 6.895398667907927 12.176577212396555 -0.402522654959539 -0.6396398157956532 1.2112765240784558
Ni 1.539992476772678 9.005594682998145 10.161889548680275 -1.1444972616703775 -0.02869068306647317 -0.43794885697763286
Ni 9.184116871135588 0.18886602280046785 7.02658829146399 -0.9154263681775072 -0.2281599516428264 -1.7231152863670196
P 2.121602680386449 1.5131483586872334 6.70407062157439 0.09523751774877146 -2.8523767049242488 1.304981921453417
Ni 0.4105769406529435 8.414366186470087 2.686209447104538 0.3382054809387079 -0.924267363507905 -1.3481417446703428
P 5.15638721694154 6.1123139528920785 10.984301776978224 1.3059846516863187 -0.5123817792762272 0.33043740695751483
Ni 7.44860803550793 4.99740739851145 11.20757311923028 1.4104326322897645 -2.3167464966430424 -0.6098309599643369
P 1.4410667588989445 4.150413852831012 3.2704595848717584 -1.3816894987188013 0.4958128191739526 2.6579162024163967
P 4.210152903330447 2.28075855620129 13.327013073637737 1.7873658688159733 0.451231690129468 -1.5044509329194542
P 6.633592070605149 8.297519680064337 5.126987486923764 -0.1461759564698515 -1.4590102840881518 1.3688563515098748
Ni 1.6977028287969325 1.8653928546831213 3.0859894369831773 -0.7413752825639425 1.7948333808376122 -0.21475062021545596
