# total energy = -340893.72076151124 ev
CRYSTAL
PRIMVEC
9.04205275371972 0.00000000000000 0.00000000000000

0.00000000000000 9.04205275371972 0.00000000000000

0.00000000000000 0.00000000000000 13.23395818977133

PRIMCOORD
 96 1
Ni 6.593491843188374 2.100260839382539 11.67646631080879 -1.9704978336848837 -0.20856428889908596 -1.9184167967189283
Ni 4.643012604241399 0.32380132692773006 6.096527072144648 -0.10375326852926647 -0.39581567525300865 -0.6991600826484733
Ni 2.6453700192110015 1.420741548447848 4.785372487946659 0.7670608602555047 0.12172296563380972 -0.03000451678189026
Ni 3.441369031051877 4.349588957049456 4.66876798671533 -0.11486686194392476 0.5984684837636661 0.07444860602787824
Ni 5.16779524994495 4.566887563850996 2.7331032466608174 -0.9788536833942174 -0.2278503908222076 -0.07147589655279948
Ni 7.216751483177691 5.901747697210586 2.7212726251087562 0.4071069318961118 1.0202525580559785 -1.4341970816992138
Ni 4.968408949238362 4.402014777715041 11.575041607392809 0.41578851883050977 0.4229505837965877 0.4002084050040656
Ni 5.678607924463899 7.872616764650298 12.355514510805799 -0.3748817533138189 1.165017493110916 0.2478484312106893
Ni 1.8222358076775735 6.7211837092524265 0.30262212724766824 1.0643706314211152 -1.2211804134557291 -0.5450612717871194
Ni 2.799862529023381 1.7013978174438944 0.28825159313524784 -1.1005877047716206 -1.356036059816755 0.6894870783350835
Ni 0.3452798185470866 9.027503884120996 4.8395126817750915 0.0897222443574971 0.24463043849402386 0.8988815764449487
Ni 8.734622760081853 2.130488421046052 1.5314732365501158 0.24461784008853354 1.2995934034479941 -0.8228352869126475
Ni 6.838133616891038 0.8594561366133957 5.115758237538873 0.5472688209613995 -0.281592874650986 -0.4017325549580759
Ni 1.00470766872308 7.283192485290613 2.341497376096129 -0.8188845297950156 0.7596200877067435 1.419547450106839
Ni 7.604501822536481 3.778872684408829 3.739506300236398 0.24506058405290698 -0.5560008015177585 0.3375261954834961
Ni 7.542012197386454 3.944505002958704 12.631044840213137 0.7912698534015404 0.8628190263944367 0.9072335479540697
Ni 7.9604060528259035 8.687803011995204 7.227580245307582 0.5202400989783814 -0.057864733527268085 -0.3533089122390496
Ni 7.1131386030454165 0.7352183346221693 0.2905319987875177 -0.9136070555805814 -1.0860064645233363 1.1592255690194875
Ni 1.8987677404325765 6.355568314527883 9.220932376404585 0.11204841865852316 0.15436774825202448 -0.5611566346870852
Ni 9.201916035693685 5.044579199891498 1.4592028231603578 -0.31941611614634663 -1.5697422979280966 -0.5921415131043738
Ni 6.203580453270931 2.225032122474019 7.075800351259203 0.39062281819815947 0.1474962179431718 0.704008154769394
Ni 3.1719701174764334 4.187645795938622 0.36256008516902494 0.7701153308111124 0.8698646203873083 -0.24934507036087378
Ni 6.01622008245141 5.8538881130810685 4.766871544230919 -0.3722250324172622 0.06656328974253053 0.4325189442113132
Ni 5.244010710860819 2.7554298828090515 9.470325748720526 0.39436223063593373 0.32563895712760693 -0.2259644866534044
P 0.15414981602086072 5.52924225844548 12.587333749792034 0.14338630953985626 0.6330066267498518 -1.1702466027203395
P 4.137959717194678 6.18200611589458 12.624692798299103 -0.7399151530786483 -0.35571340791548417 0.21087339664823682
P 2.6184518287795693 8.59322314235705 1.3752862460904907 -1.6714001173809152 1.233626609638882 -1.568189865839312
P 6.580254278260051 7.760875079278567 5.992097694667407 -2.12092716611445 1.1460288678235553 -2.6239020502544816
P 4.529173162678842 1.1564423525087255 12.489812500460449 2.493558689941512 -0.999191623620621 -0.9176537148461293
P 3.935743254040982 6.183561348932606 8.121454954939871 0.09893347854311994 0.04775104213203389 1.0648830522811594
P 4.756155807757863 1.1181944702363174 3.8374507176271666 0.07828674882704581 -0.5959642292845736 -0.04888618417774161
P 0.5221758219543469 5.494629281296833 3.4939630338948295 -1.221968199464347 -0.012423056254701186 0.24674517084418152
Ni 1.3667695367967836 0.8110042980420721 2.8262834065647464 0.428663575020965 0.8962873333552112 -1.2347386117561379
Ni 1.8641185950737424 6.477419014646788 4.78029085441543 1.2761020051942733 0.5257522870458622 -0.6702256590023102
Ni 5.762708055200463 5.636273034440396 9.429975589231017 -0.24538582860280966 0.21740656978106426 -1.1427877351784381
Ni 8.789697902143613 2.266119209246081 9.983473081207023 -1.3004194988937152 -0.2488352206039908 0.7444030136466728
Ni 2.4572953262402946 5.156872450468574 6.9505145753778175 -1.1936845220283054 -0.8202456718086002 -0.4621305964301589
Ni 0.4129315514960063 0.1338431744115524 8.977665898894267 0.25876019302718667 -0.5457660111636279 1.1104342585483973
Ni 1.5715087326110004 0.9467481118989344 11.35096417379703 -1.227550578648131 0.351690145688704 0.7051252990929727
Ni 4.040486390741591 7.024870086084838 1.5161487658940218 1.4216094748421904 -0.9445968190938765 -0.6540691038471057
Ni 5.555862061142872 7.734933430522175 7.981505682443554 -0.14983926425405164 0.6400416792197623 0.6009462558801972
Ni 5.171213145807592 2.819004554264678 5.025820557678179 0.09438365438890842 0.4655481067521401 -0.283886298670853
Ni 0.9449397013896006 7.256852986222167 6.808646579331097 -0.8647404117868654 0.7670999410235564 0.7020497454914425
Ni 4.982243289634765 4.575703565083998 7.09776892212659 0.6698765031930075 -0.722879280642284 -0.2711513676026879
Ni 8.385906961567033 7.08169938634065 9.180065915714662 -0.3190561617037666 -0.0714967224884059 0.4364550460409258
Ni 4.433707171891114 0.4217963798127602 10.24858877449111 0.6082245347091655 -0.9218775231194898 1.020639509081752
Ni 8.187153604538711 7.0349248485167335 4.5806170164378575 0.22160569546407638 0.37882454001165083 0.21486811962992672
Ni 7.373124739919779 6.266693980046677 7.148004757665371 -0.14242625961943214 -2.5047643288493444 -0.16464084804325838
Ni 2.611073513901488 5.273379297532399 2.4473029539709716 -0.6978621897726562 -0.586053397928765 0.5885895340870573
Ni 2.4327190274184494 5.224561255832935 11.45490347202624 -0.32957891561196145 -0.16144779502725742 0.07235958470933344
Ni 1.116594026935557 3.3240122310486657 3.6814490892447482 -0.12786198865201204 -0.12748583625951593 -0.015823340185501782
Ni 3.5876513571518815 2.5760446023356933 2.715092382193108 -0.2592484455175148 0.46960427909938474 -0.5533476801656277
Ni 0.9588373361538302 3.4158794849228182 8.238667986307592 0.8153112106214604 -0.09147162294843601 -1.2226973643208878
Ni 3.351780374419485 2.4167417205684862 7.265111997018294 1.0157567270681538 1.241046813362353 -0.49252592089256464
Ni 4.102035642426764 6.787660879575534 5.944296883879444 -0.15941379531636415 0.9103947192908707 -0.08949804416183296
Ni 0.7459087533480957 7.424067663967709 11.542194543106525 -0.3260392778898191 -0.08986751168610975 -0.9704752295225351
P 0.27108525637539754 5.497450401691394 7.812468126904604 0.3893591209943875 -0.28808799545702646 1.5092329276891299
P 8.277420415112104 1.6582129744810052 7.724502518704338 0.2646181944698604 0.7102163404626349 1.9545698496007178
P 1.6209778020938241 3.163904606604805 10.367257576318842 1.1668810286822162 1.0151818284012903 0.001236700620578515
P 4.101221857697563 6.354456142064643 3.6958078686888576 0.14979375572809686 -0.8813150283160951 0.23754833483626184
P 6.874898602545793 4.134568947489678 10.465519369754 0.5219768791638301 -0.9871917709462676 -0.08226861629292928
P 6.268077414086317 7.752366507832153 10.191947548928269 -0.5497846454047177 -0.09764227053552216 -0.8200302133636845
P 2.322722458188226 8.496590726790803 5.628309698762545 0.8693563132923222 -0.16699135055330597 0.31192006487961765
P 6.799677767410056 3.806396692360888 1.5761644854672798 0.7316997071473914 0.30126592759988113 -0.3778238666612784
Ni 5.10262917724111 2.8148994624084906 0.5429707344011753 0.8706290093571587 0.135353926153683 0.2788826748086745
Ni 1.4060301289544184 0.9696697151047392 6.999942955624182 -0.6206727877748472 0.6422577130344745 -0.7439039625230671
Ni 6.857836249390228 0.7209716766296383 9.232762997956646 -0.827095347740582 0.05815038308848695 -0.45778774608043094
Ni 2.482233307164007 1.4384097191240386 9.229031342870636 0.21985914508661492 0.1295504320980285 -0.47440967090782804
Ni 6.56432218167282 1.6719568943519414 2.5762941629859815 -1.0569249737763473 0.8389111094285875 0.15850902411390766
Ni 4.009228015087758 6.97142251348148 10.561029666599206 0.4776158365499517 -0.31948862125549493 -1.5150045400655843
Ni 8.102538076806987 7.324071604854101 0.43049121754163666 0.4966970215511188 -0.22819748974898119 -0.3532975993851399
Ni 7.638527066269595 3.936638417243102 8.361320716487386 -0.6750534194082568 0.17643089869965098 -0.4488480203886399
Ni 3.204286413278227 8.359232906554361 12.271756169655497 -0.32115109655958235 0.4726901171135601 1.09479989444525
Ni 0.13907761863081886 4.97742387562739 10.32208981123247 -0.23255885204147048 -1.108266304362801 0.12092309544033367
Ni 8.665776571991518 2.55952477233293 5.894643356524668 0.40187139452878534 0.3822258523837159 -1.312237574574566
Ni 3.513976713001626 2.585412168774042 11.251378623869043 -0.10933590482336654 0.7178095794288606 -0.07331757774722857
Ni 1.1006528882957802 3.3734993846365824 12.609751710670988 -1.2549978762258063 -0.23543128849325903 -0.5444681182878107
Ni 3.0950855446721106 8.360010523073374 7.80307253010336 -0.261680194887459 -0.42861292428868764 0.7322830904546872
Ni 5.736287177659097 8.147169648177343 3.754341595849717 -0.09098568445095298 -0.31002927561480803 -0.16019721044960797
Ni 3.2143411757101226 8.364305498033042 3.3523861919401114 0.42421093856625003 0.10712784142845422 2.445883495352736
Ni 3.3310288638248804 4.259466819316811 9.218471129701381 0.03400669596274789 -0.2157332958436994 0.0968953650671686
Ni 7.314794458941219 6.230118877495402 11.302620839856267 0.2609638855467248 -0.7575842882236372 1.1923069249544884
Ni 0.7367572919656125 0.007264385015993542 13.586907341079113 -0.08610598776114847 0.5747081481192747 -0.026073814268916383
Ni 4.735928736210965 0.3564711669840983 1.400575962858268 0.09001869255199335 0.28368266730047914 0.16209802701674667
Ni 6.088900100821533 5.879232986369381 0.4102008516269124 -0.23241589870570298 -0.991965795296143 0.50739666735681
Ni 7.774022223681424 8.818822353396431 11.274763180165236 0.9618003274563566 -0.37251788106733263 0.14387353358891997
Ni 9.082470521552194 4.964358109697454 5.596918404936276 0.0685155283728949 -0.4424868540573024 0.5865123398430544
Ni 8.170064125225508 8.845351735568357 2.6569158161078423 -0.680384601813183 -1.3517628863626976 -0.6267470189933851
P 8.45512387381178 1.6371088238370808 3.693835797028429 0.21825940469966282 0.4987274217175862 1.0387542164045915
P 1.6854295526464778 3.07866517724736 1.514957023368371 0.42991673070177566 0.5574699298641174 1.0803006723878106
P 4.699814778339571 0.9293692869042373 8.199270859156503 0.47302230364199827 0.6355705308222861 -0.2946283676787055
P 8.579388801960647 1.5403407774826336 12.20329698141416 1.3837440672549846 0.6980575936129139 0.8351752965352391
P 6.381482837126635 7.906868059697078 1.6176656982459794 0.27142390453778414 -0.6380200208040431 -0.5974166454603841
P 1.9438514144302659 3.213482180718189 5.815146534739613 -0.9375196005321209 0.25338530186851843 0.6062573836804656
P 6.860675453889883 4.239556219609047 5.852135763297525 0.09570751540665452 -1.179641413671678 1.1128348975700897
P 2.1876341931409975 8.309257482128924 10.084752207577003 0.445497101638536 0.5898120936402487 0.17263517910264461
