# total energy = -340895.35682705423 ev
CRYSTAL
PRIMVEC
9.04258166047360 0.00000000000000 0.00000000000000

0.00000000000000 9.04258166047360 0.00000000000000

0.00000000000000 0.00000000000000 13.23473229827126

PRIMCOORD
 96 1
Ni 6.301702862716048 2.0682192918851334 11.464719526111063 -0.39600645110757604 -0.5205506882402647 0.36196530236246693
Ni 4.659705660385853 0.28374174636450017 6.073591079116838 -0.23634917232183808 -0.3475306149943757 0.32299869129128245
Ni 2.7500842093557982 1.4418848687807975 4.85760979547828 -0.04194266298037293 0.8218338422313266 0.08124094635936331
Ni 3.2781890671936593 4.3585334334904084 4.882914556174377 0.5598613129144293 -0.2958560694382195 -0.5452852148724674
Ni 5.114276243645148 4.543544655560931 2.767395327807988 -0.7123953503918247 -0.6085235540068229 -0.8786598500814351
Ni 7.238333477675221 6.153874736694108 2.3769845746541183 0.27530061388437105 -1.4192882829081814 1.415852260643439
Ni 4.927212355523305 4.445387430948246 11.342019830441606 0.5180909138458626 0.14738900294134616 0.16874381446803843
Ni 5.487273697173348 7.73706803007393 12.338714890243459 0.3145068517701874 0.7718395125910708 0.09285024846351751
Ni 2.0899395731858856 6.543591923829756 0.3955026309225848 -0.8036563999913515 0.36126956184702297 -0.43303959260147357
Ni 2.7982630847806145 1.5124531765539329 0.43410450804364303 -0.7048689601077927 0.9527855255522559 0.0038083180024966676
Ni 0.5606364498476807 9.153082072542714 4.7170971180709556 -0.03700434513849111 -0.6666258574661938 0.35836884326046026
Ni 8.579990370628567 2.2228926522720482 1.3400961433478042 0.38922439518873614 0.5905895952362216 0.22147688319569597
Ni 6.757557492580132 0.8043322187898194 4.917668814771925 0.3585529342468083 -1.1395715422339858 -0.3929635505161942
Ni 0.9463423477306172 7.524368422764896 2.4469036250594796 -0.19699792421772525 -0.02533076545530476 -0.2700025987102253
Ni 7.49559492771952 3.653682273277649 3.659271493041177 1.3649012235168687 0.18719276520184533 -0.7910279125940635
Ni 7.5502573342403565 3.7233553654601206 12.653171573949452 1.02510654371417 0.28118535479992224 1.0257644890131432
Ni 8.100100558542417 8.921709533973877 6.898789959492676 -0.4011028917938769 0.08038065524159706 0.19212645505803685
Ni 6.8704722105661835 0.6776827234233713 0.4409099550490328 -0.40836085890787094 0.3271757054871075 -0.943672250397078
Ni 2.082841146532642 6.2415696942522665 9.060854973024549 -0.33178800744813824 1.1296517120171126 0.6304944018509593
Ni -0.030409298079225756 4.685594571861314 1.3757772665720502 0.3162503168238554 0.38800157852522854 0.024045728095294074
Ni 6.369892971495804 2.21249368328959 7.021872156369055 0.4970292080795569 -0.35813178754898967 0.6526904783320243
Ni 3.3440552324703785 4.406667096006605 0.5086397964190434 -0.5258875270721459 0.7466182761304369 -0.47770633938122886
Ni 6.122017721280889 5.506443970427966 4.640507355127891 0.21165449778863546 1.5696163138731936 0.9102255407028581
Ni 5.579354306867587 2.9738519366948566 9.331333060516467 -0.297720633450784 -0.6163499920297771 -0.7945973751128766
P 0.28422914151941714 5.622396995873241 12.532086883375877 0.1580516248615149 -0.12943473245577064 0.19556607686720512
P 4.044394144402924 6.089383043839417 12.465278481083532 -0.34479213301729006 0.3486256478307673 0.824294130846361
P 2.542376107158345 8.62457029852728 1.3592067355630457 -0.6226962459627792 -1.0848602667340348 -0.1657029707591856
P 6.33079284812176 7.650566693303324 5.830945153912842 0.15083839494252732 0.5849930749850506 0.08884524106918247
P 4.740220808055254 0.9542726919024572 12.689699987081227 0.6572858110121906 0.31247876559656507 -0.710424342708383
P 4.054105877174368 6.130201257740998 7.926889905621555 -0.28828237085601965 -0.2672633454021913 1.5473945263605156
P 4.760566616933977 0.9764903151980229 3.9532675270805537 -0.49918559230092735 0.4314897316158504 -0.7463735071094822
P 0.2306708342270664 5.794839029347574 3.4708349410136505 -0.12519086957775213 -1.5719318493802477 0.1430075860441989
Ni 1.443729555452468 1.0205276881933036 2.6052699758224263 -0.4371821540149374 1.2082904448669383 -0.5034631366303587
Ni 1.9391545229402378 6.622271427409209 4.714450354400378 -0.9000408868603725 -0.8287074294227081 -0.28932058231254687
Ni 5.895654772987077 5.665982239782327 9.251487968152807 0.13551616276316017 -0.2691507922328913 -0.26657197576212155
Ni 8.706450876036985 2.287800303886037 10.250776440393068 -0.8130326989999288 1.1408560653733641 -0.13096351039547122
Ni 2.2412219654263468 5.1690562037283945 6.8721875883192025 0.8775187944984565 0.11701501863517912 0.4872073368931287
Ni 0.28968091404074253 9.234374882240369 9.356055478949548 0.6545851242515758 -0.2121895443564991 -0.652843716080437
Ni 1.4945850350675522 1.2660880374869057 11.377158398762418 -0.18513665400376503 -1.480520647356102 0.007861405025947751
Ni 4.065598998545415 6.974751263005932 1.7452770494894545 0.7851606551800091 -0.1686733662414192 -0.6199045421502549
Ni 5.606744286909209 7.90402121644187 7.994096181509753 -0.2786906134025265 -0.13423626760947205 -0.09391391384134148
Ni 5.3411094061886 2.9418864103009517 4.886037863901803 -0.8983915241824076 -0.20254816461199313 -0.637016005019561
Ni 0.8697706699509996 7.2886283172234245 6.837738064725749 -0.6335725265556508 0.012694821858849107 0.8107284763467845
Ni 5.267493748374518 4.587817135681032 6.858621907217042 0.04071496122085891 -0.06445832758438576 0.4761683054701476
Ni 8.31442783056175 7.101121342597113 9.354176430467325 -0.025944744890219834 -0.19764121422867897 -0.22382250060973713
Ni 4.680051469264577 0.48538046770888726 10.286986554648161 -0.3454853024295727 -1.1111168864377188 1.017918253495847
Ni 8.254050512391423 7.152139588683226 4.895672734728595 -0.21908961391044202 -0.18185438370806745 -0.28743056437868564
Ni 7.407574437219302 6.304804468247338 7.184977724213486 0.08289236591985724 -0.8924131951117856 -0.5110481480664683
Ni 2.3525994445193392 5.201953116039859 2.5280589875149304 -0.40104349931085126 0.07993456884311395 0.8134466466088958
Ni 2.291417336575588 5.353036571482394 11.3980033581523 0.2866386646050096 0.007657002324625523 -0.15444411001591465
Ni 1.15055097080093 3.313554604315742 3.796766660927243 -0.4781508831178152 0.004240263333592698 -0.3133938212116667
Ni 3.5698123277886906 2.640732268568954 2.787909328706775 -0.0971632740165746 0.1081845648277427 -0.19930034709865677
Ni 1.2319522914792702 3.359391451074074 8.138487222218448 -1.283823285097931 -0.05032445928616494 0.6088757951399192
Ni 3.6587732467881913 2.699355325884848 6.9912738683318 0.4037837810601498 -0.050902957497454264 0.18135096170908768
Ni 4.013703622032085 6.755513869110536 5.873309649289205 0.8875404404005167 1.0348170861337147 0.23637102669870905
Ni 0.5880445150527516 7.549877545807954 11.463964470537121 0.6523868310486765 -0.1788888733218403 -0.28613729948855887
P 0.2778369404988085 5.492518394573196 8.096744856464687 0.4099436300139585 0.6382851015399718 -0.490251265925775
P 8.392890312179828 1.8198557422571293 7.962994221670478 0.43126681697176694 -0.5141537835749854 0.429329490739738
P 1.7917875685862155 3.343566933057289 10.340746511512954 1.5169197548104263 -0.4002996791662913 -0.8307805099016531
P 4.090230991161256 6.176065232244501 3.7787276146462814 -1.307329081529355 -0.49975637720273286 -0.2268602589947964
P 7.009574245224583 4.006795089595044 10.591027992724591 -0.31306214890386086 0.9010960675977642 -0.5420345691456536
P 6.31614386572908 7.637599631111283 10.164658509087554 -0.4168514128773853 -0.0059245930145510875 0.05966810528459402
P 2.343258457598574 8.558930197793657 5.881899197668716 0.7425515622602309 -0.5881262212973937 -0.6804851319467893
P 6.733395714213932 3.7493166175893715 1.5633791883064632 0.6697142665835305 0.43803473182321984 -0.6148353551574637
Ni 4.968889614688654 2.9801365309929513 0.47906693714927634 1.8648242082044528 -1.7090428674343534 0.06800824971917319
Ni 1.6482184985562212 1.0302303783830236 7.251058198677061 -2.1720430109536593 1.2574249976100602 -1.120767007932973
Ni 6.860290263545099 0.6221468035080088 9.21023571032848 -0.019953560303791442 0.6059290538067693 -1.097861306979393
Ni 2.7487639924241116 1.6545935186715546 9.234084615367033 0.29943093127367143 -0.24556014939714485 0.19519738067387674
Ni 6.385726532094313 1.7332278093423885 2.609942277799153 0.004191412373528265 0.5241669448366134 -0.175841087634452
Ni 4.033534003752547 6.865381237055641 10.414596372193683 0.17412641893619044 0.8492353741727309 -0.533483594251849
Ni 8.123692654260012 7.258733542044287 0.31431019388206616 -0.05220239303516817 -0.703518359617169 -0.22324143129528648
Ni 7.76806600022338 4.059847916569029 8.526053179161986 -0.5497959582586274 -0.7692033605198043 -1.0025379143850346
Ni 3.013783977587497 8.555096143142734 12.324632877724866 0.3771337825727892 -0.7833148602205219 -0.629857796708225
Ni 0.18941586362822263 4.799485888673544 10.380305093780398 -0.848939183088551 0.36706379993129684 -0.1742557454252031
Ni 8.555964230988225 2.2567028653376244 5.621347152135098 0.9091963281073955 0.3712768095713799 0.5393809335728904
Ni 3.563084646986126 2.4823333645118018 11.523243115027995 0.6070346281661223 0.6303236806010499 -0.27986663598849865
Ni 1.2718119917181199 3.371806915780957 12.406820903013184 -1.302236497497796 0.5735046147294768 1.9226688871270632
Ni 3.144566837059929 8.46223787142024 7.917996526496122 0.633712908788257 -1.3547451089194733 1.3998697691722535
Ni 5.529167978300069 7.836455045801061 3.705605681794323 0.10892092877313499 0.5166025022257942 0.11120869636604717
Ni 2.937184267804536 8.42797552926847 3.586586316886482 1.598817618027498 -0.1066717277276421 0.10495757325001279
Ni 3.6418003208924747 4.238619757250076 9.083208235045973 -0.9186937260748694 0.2936544338012104 0.29281188329525704
Ni 7.314444888045093 6.0834239824833825 11.542909826019255 -0.17511577943265325 -0.4491195288824717 -0.3890575305935687
Ni 0.5675983335168936 -0.06431355399472996 0.27975939337330474 0.7271812504517475 0.9599115950740758 0.3431227157346671
Ni 4.571314424034957 0.4225942057673201 1.7063143733576134 0.37900605989483765 -0.49624579294631316 0.013899383689911546
Ni 5.882009517165748 5.608787910378806 0.5055960634107866 -0.4479681888868479 -0.15868000247413316 -0.9093248832654598
Ni 7.618257548803911 9.002749151383261 11.307901265339247 0.7789915502548198 -0.49006897471163985 0.9099301209496264
Ni 0.2050685725922536 4.804658245419601 5.735840704890139 -1.184404125167644 -0.04914997936208955 -0.5377647381257061
Ni 7.770959626375021 8.369542366168778 2.614098248359447 0.7604001604058775 2.3502837091685396 0.8870028227294918
P 8.427116484004703 1.415679466945002 3.438635211753097 -0.053641696584856007 0.296978870188753 0.404274090433007
P 1.7682497283589638 3.1785759869234305 1.4681291537180055 -0.2791377282422741 -9.564503759983528e-05 1.0575929463776497
P 4.739497401517344 1.1067848752573657 8.233763480293904 0.26338380784212706 0.35188837774243914 -0.8359659107573344
P 8.606593646060212 1.6211630940383814 12.427824107583232 -0.35041899228576423 -0.1546613682330433 0.10949274211620497
P 6.2544644157905145 7.860309376388648 1.245026960393824 -1.3843873572659384 -1.4506835093900112 0.8005379089670278
P 1.724809165757459 3.0578484783279496 6.022438098563039 0.06540449354773897 0.3346915542481784 -0.966687994565961
P 7.09320908358872 3.9362539095670797 5.765658618124623 0.13156283454236697 0.4311634586246833 1.3048312548081658
P 2.206670260659413 8.513147606525669 10.157921785703264 0.6900496357067729 -0.43442413165382604 -0.27468149224313343
