# total energy = -340856.20080242766 ev
CRYSTAL
PRIMVEC
9.36428907534032 0.00000000000000 0.00000000000000
0.00000000000000 9.36428907534032 0.00000000000000
0.00000000000000 0.00000000000000 13.70558361860457
PRIMCOORD
 96 1
Ni 0.3280338594984748 0.7072978722798006 1.4000942063250061 0.15193291355828673 0.04411036005565307 -0.08219893939725843
Ni 1.8810796832551997 1.9264871215217318 2.29695993961454 1.188952663770275 0.6087269282668807 0.4866787180831683
Ni 6.927232925895488 4.1626981078950935 0.2035103511798801 -2.7225380521618403 0.6121295261905264 0.37613490899462965
Ni 3.8191597947901235 5.196918298546903 10.49113062531518 0.9427232562202473 -0.33117737044733286 0.2567886711231126
Ni 1.9324240808661288 8.314374447417388 9.37093221349526 0.03770162831583184 0.290544427417319 0.2607296580487316
Ni 3.9657109205627012 2.624501237501792 8.358103805061655 -0.3442311183074975 0.4368522814793444 0.6009827655450876
Ni 7.343906337548947 3.2184781006171024 4.396079605151775 -2.2177274003646517 -1.3877423897811005 -0.5484127047578555
Ni 7.508212155619595 8.772447381565451 7.171337470699913 -0.536069095590838 -1.6999617310686916 1.8449423816788615
Ni 9.329369752368805 2.750460291352715 12.757349476387468 0.842309593587175 -1.9137849543738719 -1.5978254293175578
Ni 8.273780253792843 8.281309142298985 1.0269076172258784 0.6306869774777396 -3.1537521615188004 0.9934200112441667
Ni 6.934780542980006 2.3359500305013956 12.799288381939231 -0.9139968348198324 -1.437300660325202 -1.213727813832426
Ni 8.329656967370157 8.987470189871516 5.216866107372509 2.0770913998764224 0.5353854392602521 -3.1793649769908985
Ni 5.708274038167551 3.5770835550235476 6.955172219113064 -2.009247443649256 -1.9894952007229931 -2.169783011274889
Ni 1.4815897422594206 2.028529780789705 8.32289407771949 -0.9985005110908676 -2.576206543950731 1.2098410771835097
Ni 1.3674671499405449 5.625999393372799 10.498943251783682 -1.6426785810765065 2.7258416626137763 3.6167785302903517
Ni 4.999041503741769 9.361976207317056 7.839648997808534 -0.5189967134895836 0.3065040360703689 -0.09622610691428589
Ni 6.47430098651095 8.70605457123142 9.803466858173229 1.8764875034749942 2.9285916588239305 2.5998486088497033
Ni 4.007653571830137 1.446454929230749 11.583082595232197 -0.18371869061031587 -0.4389672709398182 0.6231227919772365
Ni 2.7571463938320524 0.34857349140068383 6.99541244260635 0.4433543442639203 -1.6233922220430685 1.4401494426279067
Ni 4.228725710950841 2.9039128982559252 13.608904223589095 0.498537160083651 -0.6263091601250181 -1.0058561801249903
Ni 8.3221374431532 5.152550296380099 12.160498712920747 0.5142735969823014 1.0400819340770797 -0.36318683347439384
Ni 6.331757776510298 6.534344808776366 10.655762320649526 -0.07071099336231693 -1.074839135052607 1.2780856112832053
Ni 6.327019446181805 5.343235317089811 4.925265887812907 -1.0661377506238672 0.12499829395097183 -0.9253875931552772
Ni 1.8941147738031503 4.030221508770195 9.311957793054969 0.9711732840308241 -2.115310334148305 -3.8696213293918387
P 4.441351261225099 3.7589005938734115 4.8594789469892605 0.8657387711443929 0.4853432871011964 -0.044087734347833744
P 6.466669090823752 7.153417966912156 6.148722443637239 -0.3846100363451763 0.06165788202111317 -0.27907293644260966
P 0.4510581451182714 3.0724139178822356 10.414694614828363 -0.04394220990890497 -1.5538207416018337 0.5496200948023954
P 2.2500233129238123 1.8539232446136356 13.348073185439304 -0.13552593295517304 -1.022561151584497 -0.3892825021201812
P 3.5470241867340926 6.9047492675581115 4.261929607549206 0.3083426319410045 0.1348805860616903 1.1473635274745788
P 6.810095032458481 1.1628761597885144 7.982200635669452 0.3137067244663952 2.2889533856901743 2.0408236757936398
P 1.5842129874569721 6.952947264002294 6.723465993191891 -0.403228422777312 0.2757099335076477 0.6399910284874849
P 8.293773011206547 3.657878642126794 6.199213754503256 0.1364067928982296 -0.3135092637436085 -0.44887604541309784
Ni 8.16356257006484 0.7087839849737372 11.348552099692302 0.47587828503355456 0.39793117893411467 -0.0990383795521004
Ni 8.990991162605733 4.27802869351906 0.5664748822027555 2.5348192392531956 1.2790294632537134 1.3869294069615017
Ni 1.2252610543506173 6.070643936827068 1.5664929430288925 -1.0059186579318096 -0.053960770487171586 -0.579107562738551
Ni 3.6790325713996532 5.569916665433376 12.874545428417436 0.04125026489903864 -0.11862041544908604 -0.21342573075644533
Ni 3.9372903028809265 7.377411764259124 6.517855231947424 -0.037813985523980034 0.3802139641600097 0.7107498443686018
Ni 0.4519187232945334 4.837900815416241 7.402948180871381 0.839945978451005 -0.5780981476374302 -2.1061672341964566
Ni 0.5595649732118555 8.322493286142295 12.496559641110101 0.04144772562182539 -0.8162751171966265 0.20100473138427316
Ni 6.003183597525749 7.266117187274647 8.44640905209267 0.8300081505120028 -3.123080957687189 -4.546647042035118
Ni 7.792268503810354 3.2977749014504694 10.611260409147352 -1.3918103892028868 -0.7111432231522785 1.6729507496974865
Ni 1.5853835236053155 5.804061352258778 4.243234740616786 0.09109238523214636 2.6002849250561733 -0.31056535062393614
Ni 3.715759313590072 7.148988658126824 0.9329201195163445 1.8930286956631268 0.11889500926671134 -0.13618130715098484
Ni 4.422510311381367 0.09728653679002476 5.3134081831721875 -0.29853104516722134 -0.1442563708496354 -0.075917734374237
Ni 2.5129725532876455 5.97189750735283 8.601638064654606 0.5113193994499838 2.423363459873349 -2.6896994083652643
Ni 2.000558648988894 8.382452829805032 1.4983218541782988 -2.348020624165976 0.32784187831619666 0.5526090022273902
Ni 5.57825088280958 1.5538071404676073 9.932944075471612 1.5105416191982242 0.6903273148481918 -0.8433303215422057
Ni 6.371687105602585 2.620821071851401 1.8086160042414017 0.2719931467776929 0.6006513503475978 0.13667701584048073
Ni 0.5848082875725671 9.07675868726714 7.518773200964407 -0.5997892594576186 -0.8328988417962365 -0.14357939938726885
Ni 1.3669708426136473 1.1153992136117112 5.268563538685779 -0.8123415864701752 0.7133003787045973 -0.3753134415345988
Ni 1.7092262481000335 0.7612764444389616 11.22987565354191 -0.8667211896623201 0.6665070725001425 -0.6714453903420243
Ni 8.655674695406725 6.839620636264291 5.982062443265042 1.4190599689474592 -1.1456349748192463 -0.4264987061591623
Ni 2.8823469402588486 8.653567730339708 12.765394337227802 1.273857946355103 0.2726454356497111 0.4795189671099355
Ni 6.384815839042403 9.013147070821574 3.9781963273353895 1.249988595936673 0.49302574334711863 1.1130565266625927
Ni 7.308247124325817 0.6144500085642935 2.0744634921085323 -0.5705619871613851 0.48661906848982645 0.8533254850817047
Ni 3.1358101556765074 5.259190821638764 5.9558714628386324 -0.10071782413705235 -1.207197468913076 0.4733375208895719
P 4.532578166482382 7.508352619957397 11.797862868448325 0.3450309885009735 -0.671506839707579 0.9860558575696113
P 1.2023185458430894 6.045884756217311 12.739751167718817 0.01182450343875383 0.07989960184012046 0.10208462257759193
P 5.796157892185164 8.21944864793134 1.412785627459803 -0.28148257432536683 0.8011791420954525 -1.581150025544406
P 5.102310884893206 1.196063200666343 3.5623825574292747 -0.5085176683351307 1.1799782281858064 -0.9493201927114747
P 3.5117114522108723 0.792446417425965 9.350689429560271 -0.8683067889818852 -1.042089708535728 0.7177571289243703
P 4.531726016166387 4.635781997609511 1.1756275123741067 1.9069409348688449 1.016780797457294 -1.6527467639457858
P 8.192751059459928 6.127616272239233 1.0970292875140712 -0.9724277252632156 0.6237316292058291 0.009919058885924852
P 5.422138817777334 3.936400695408185 11.963193139756005 -0.1520750955631058 -0.008821969167004161 -0.9555016389318383
Ni 9.135266766105932 6.559965503991303 8.326936641361407 -0.33826101676699166 3.446039539769155 0.8383351823204594
Ni 4.228809989553522 2.7789745519263573 2.239971684910759 -1.684542568300144 -0.43547931239121773 2.3203673812250813
Ni 5.434171929382304 7.276680105477295 3.250018899455901 -1.3711389768964644 -2.7496482781150715 -0.42135727116753885
Ni 3.428491014208259 2.2449759610521562 6.050274734988058 0.5296063706846299 1.2239029545932147 -0.6667628972646904
Ni 3.7959831790529264 0.3822755681837834 1.3673791256221897 0.7585484519091195 0.8310957271492267 0.36184934560989296
Ni 5.949844606318043 4.051403530910615 9.179985929117237 0.006787198125162504 0.4786039114948338 1.263048771554741
Ni 6.093455345285982 6.2091324096098575 13.608986629333938 -0.6050435658780224 1.8704441254943915 0.20238772777472885
Ni 7.836261934409688 7.023507183024426 3.607241248349464 1.5914406088371367 1.1148244171962929 0.33659879857322034
Ni 2.4008445545655466 3.2001240938110804 11.219706035485105 0.7690238975191466 -0.13891310425985107 2.977575802032117
Ni 2.1597515651635795 3.580211227611921 4.179627806315812 1.20684188534587 -1.0650594299580236 0.6125061928036547
Ni 8.619725189218807 1.4713733027566804 6.591358347060951 0.3652599139533387 1.5289712866583216 0.3447936756791868
Ni 7.6075391710234115 8.101833175745808 12.592827343236605 -1.555090866563509 -0.5534965470386661 -1.2547191686431232
Ni 1.958878197818687 4.0086274579055585 13.834279253591108 0.37341185363651175 0.2418179087458932 0.36909934230408686
Ni 7.100837483128576 5.176316862336061 7.050590580210334 1.847375673710702 2.169605348046444 2.7618497052772697
Ni 8.76700672954795 7.102916355328034 10.519706690197452 -0.12652578633909178 1.2222471641573467 0.9091341074108924
Ni 8.348694567286811 3.250185583803425 8.368807187602105 -0.48787762348727587 -0.9402465125449807 -0.1340308364668853
Ni 6.3295665328406 1.3010743396065148 5.928597034153315 -0.37934518840181125 0.5065949973911211 -0.8187940269637384
Ni 9.219386175870472 4.4438421621487745 4.254364198315233 -0.8247075642346957 0.5137292944430573 0.5088012610138205
Ni 6.844490066641399 5.308727911436652 2.5919725061537924 -0.8133947103250379 -2.0217694873756664 -1.326239802390929
Ni 3.3115591351333595 5.506604706241785 2.550252724969001 -0.4172159953056557 -0.3798316411199265 1.4850095363653908
Ni 5.484926376774468 0.44588624820043155 13.388422971116073 0.46760807460496245 -0.7574392780053407 0.11760380125911357
Ni 8.700089519019462 2.893612180150504 2.4277116366712397 -2.5629257676814245 -3.0217324419446734 0.6971312251439026
Ni 2.6452805952071823 8.84459922974933 3.9304740367818938 -0.7926021990597187 0.13592136862137882 -0.6801809704428091
Ni 4.211326861641867 7.669137465293828 9.686312109015686 -1.1156551406277042 0.3895326704577743 0.6400213675047881
P 4.626754822833488 5.642630370968461 8.481809810934246 -0.029214416780427105 -0.6254216153137423 -0.5018824224068
P 0.9671812443638927 3.939790568093788 2.354824691786201 3.4385918252418586 2.2612415215972024 -0.12046595329825706
P 8.088320506449334 5.171391246223832 9.552106862106914 -1.0295658650371045 0.7970725761262467 0.4832295831923033
P 9.396595984440456 9.315491875794049 9.713421726211315 -0.11617015413638059 -0.7632558846871178 0.06834866377772744
P 9.174765337895627 0.9462988794774487 3.644615999351605 0.12243027611347948 0.7635279074015818 -0.6093445072462215
P 0.6453259428708331 7.750054288156502 3.7442698284480396 -0.32217928071378066 -0.09315672396034279 -0.47675014611554667
P 1.5892603393286284 3.2859103470508617 6.754002003800952 1.8701443348657856 -0.9222968700450955 -2.487774222049251
P 8.123651969550927 0.799082889172612 13.73272072807409 -0.8161640455400588 0.6317709545705378 -2.5921214154087746
