# total energy = -340890.0923876953 ev
CRYSTAL
PRIMVEC
9.10217842151859 0.00000000000000 0.00000000000000
0.00000000000000 9.10217842151859 0.00000000000000
0.00000000000000 0.00000000000000 13.32195818218678
PRIMCOORD
 96 1
Ni 6.270627087942227 1.9672901809734222 11.245251456878263 -0.24094733321548184 0.14860462051600215 0.46859769221174136
Ni 4.763752386366672 0.4858405937367174 6.157009148682319 -1.1178686033392553 -1.996971197385064 -0.8252364401549723
Ni 2.733001819050764 1.4820803681852897 4.769500411893819 0.5057429338034709 0.7976875840024262 0.09098876977474653
Ni 3.169150891393401 4.435800906171642 5.2506761393080295 0.5223409473714682 -1.0010279054984115 -2.0333466506903046
Ni 5.224422726753866 4.665230409635309 2.7276843265520143 0.25246664670899105 -0.40003459843036265 0.07407245363538212
Ni 7.556728457513051 6.5670850315989595 2.717506270899667 -0.6962133413153236 -0.44582671706381277 -0.9228321737232752
Ni 4.937221698316625 4.469160389238941 11.717913917031124 2.0758331019892893 -0.03000888765726445 -0.5522467337919651
Ni 5.572726677382314 7.731271826489456 12.499619902624389 -0.5908505622070921 0.338993524057642 0.35666445897484383
Ni 1.8725183016564462 6.330528522612321 0.6150068737812248 -0.36015473151628946 0.9630593966744382 -1.602254411623189
Ni 2.7826086901876748 1.777200291648055 0.17788386837223016 1.112629466427503 -1.6837699518001776 0.9664355122355228
Ni 0.782035484443752 9.069383042239421 4.6199088439903715 -1.2615665305822596 0.11902330731445955 0.20159788488358182
Ni 8.678144117087522 2.3535047037642984 1.2904831581516154 -0.2664344217429927 -0.9063966538750713 0.2740112056489862
Ni 7.2292502905839156 0.6422560646294029 4.638319819815808 -0.4054123178025082 -0.06728859794432927 0.2635560717539332
Ni 0.8297054120617761 7.608328705673629 2.651362562426694 0.07164867468523789 -1.0585370554584737 0.3898738558472769
Ni 7.672125872609154 4.163891537094037 3.6200018019489435 -0.8764466444802003 -0.7769274686369393 -0.015804828242740522
Ni 7.8745492133823225 3.6678592344376875 12.712252246455751 -0.5081520574655958 0.4549402493293068 -0.765281656867895
Ni 7.97253416160046 9.030489434832445 6.864631595767248 0.5186786680285325 -1.9932690659431287 -0.6956155598303245
Ni 6.756264703105301 0.7904631912301128 0.07024423974768519 -0.4583492750108558 -0.6611933735967129 1.2950294382263956
Ni 1.8151745790578149 6.277308086733876 9.482223256672443 0.8981231010123694 1.0020231795321453 -0.43141979760986343
Ni 0.2677851721395985 4.611391025639927 1.6727182086377106 -1.4587961111948167 0.41429445078348653 -0.7079419426061614
Ni 6.444242034743225 1.7968700987172044 6.842863736625244 1.5303889929414547 1.4879999864522824 1.2302029286693135
Ni 3.4579539031921263 4.457327557591604 0.407292436826059 0.7773198189793517 -0.6686989379451387 0.46336601149915685
Ni 6.0888656916609465 5.773284071626479 5.016329639185986 -0.6044421848485977 0.4973056016693951 -0.5079556251840736
Ni 5.5299009289971455 3.086484909069469 8.795129862277825 0.4740880259023513 -0.9593333539731027 0.6607269754832557
P 0.23072110254886416 5.424561420801279 12.863736157204956 -0.32506174446789826 -0.02988393204362595 -1.5690570989356138
P 3.9071190903468334 6.145909042379298 12.50390975920546 0.9586579251726327 2.5615450852838144 0.8542657375077869
P 2.487570686328622 8.349692017092028 1.4650556540982296 0.695628415346131 0.7305465673795548 -0.5057848427849999
P 6.265657298650345 7.793048309866744 6.158900581310255 -0.5415897682987512 0.7628673909994474 -1.8052754021065425
P 4.6681704131907615 1.124473991446397 12.545393846525384 0.3731053781396864 -1.272502460768473 0.8468303642756642
P 3.929410324734777 6.157487013037308 8.280342521460446 -0.37369338943267255 0.1280134266282118 0.08681098424797307
P 4.757617518266437 0.8083780983441804 3.7626402159328536 -0.43244669621248105 2.454863073143527 -0.1612325936926578
P 0.08551223344402552 5.708576686871928 3.76831542403448 2.0252245358038024 0.4317442708288177 -0.24187678700828663
Ni 1.491619450928681 1.2983073905239622 2.497081552319624 0.26326527998639176 -0.057670615238591 0.2522954112384494
Ni 1.9679182312685501 6.463338404586389 4.921637859037083 -0.6704863688628646 0.8572680146692203 -0.7085062997500636
Ni 5.836926501532769 5.2903953142768625 9.229545879893035 0.5354502310599165 1.6062110822780917 -0.22268633012276487
Ni 8.373512417415936 2.279950001808816 10.294449755955466 1.5416013167175062 0.5153215786308415 0.014416175425330012
Ni 2.096832380977187 5.4484000254815665 7.062942572434057 0.26537024214453653 -0.8566815460381311 1.0421007642793214
Ni 0.4357158086607805 0.2180071800527105 9.1292981301768 0.3205083207692609 -1.634061785941773 0.7411760220689428
Ni 1.4074516092033567 1.0734471805118055 11.320613851422332 -0.38071455794551207 0.5011190618782143 0.7134970680964356
Ni 4.107913141223945 6.748682588672815 1.4089307131592739 0.1737682642658233 1.102039863837115 0.9315042475759764
Ni 5.4825058871604675 8.057302747086341 8.231211694242884 0.10530827172121218 -0.42191031545753144 0.43423258446831026
Ni 5.290777605760853 2.6068911402247266 5.014664850794987 -0.6611501790636033 1.102947463253049 -1.0785294394200005
Ni 0.9893248496774326 7.608428829633723 7.075212308634526 -0.956710571638275 0.0832453783839018 -0.056086815691238884
Ni 4.748897631560168 4.610935916730414 6.832418987151921 1.833402499360062 0.23574573440988433 0.979578477375384
Ni 8.33920630781685 7.045258860646022 9.601841351795368 1.00740295578682 0.7622516117923194 -1.3499168342928944
Ni 4.724922494207026 0.12762710171253452 10.554001097704155 -0.8755431588293244 0.8260260259358032 -1.04672052243952
Ni 8.122619977779639 7.213494420136578 4.973899835552094 0.48420094596663704 1.1255580015637132 0.3338011812234251
Ni 7.3520204700141285 6.446945381665731 7.3187501882930945 0.4701753211115064 -1.0494698030498828 0.5841692935321745
Ni 2.215442864974451 5.313942649255063 2.651269720209153 1.620251876641874 -0.08893960055520166 1.6874630843810485
Ni 2.5871667200864352 4.993837246660036 11.400931471773177 -1.1980050037805303 0.4212713963219519 -0.38368161099363596
Ni 0.92560050016743 3.6426006899597185 4.119029631447709 0.9806822519625239 -0.9871678596868676 -1.145426458352866
Ni 3.6535233037880297 2.866867553694902 2.8406541907247753 0.8936085009714676 -0.6774270618467559 0.8720785973194916
Ni 1.0280910265897454 3.479717211245035 8.510226223615806 0.4020413444477463 -0.4727050295118956 -1.2083518942324933
Ni 3.600484911473391 2.544495708730502 7.053177755671547 0.04142921367906413 0.2735826027519998 -0.2632282561008692
Ni 4.115622686151094 6.9814161828195465 6.275374784086265 0.0714103334221867 0.35476261396644065 -1.0313412117699723
Ni 0.9331188993525837 7.449268141798854 11.707522870409125 -0.8111239120129901 -1.4753763841510008 -0.10879083095317393
P 0.2026936754654189 5.6418031076681885 8.124755348783074 -0.1519982195785834 0.3616652546235449 0.053076568110005364
P 8.558077284579817 1.5615241794298698 7.940712946647314 -0.1600311171853889 3.553453030758828 0.18875188215884914
P 1.8396958471023726 3.1387314118815555 10.537229424170784 -0.6498352682714164 -0.3770540783747894 -0.8958643868851797
P 4.053636852675432 6.040960927845614 3.8518979957021706 -0.6044714954246364 0.9037322196690307 0.6525673224905988
P 6.878170175607438 3.9231935370308304 10.541678568870182 0.41665035261017275 0.7040783458856971 -0.1339886703750402
P 6.426611115588694 7.858920773429648 10.362898135946212 -0.8904470725243503 -0.353835474166481 -1.3802622793539714
P 2.5588407415583494 8.65308582052974 5.800340296297023 -0.1885333383901398 -0.7900051277565039 0.9911312152099897
P 6.9073699632417895 3.857157234260502 1.4400237538571985 0.9215993297574387 0.21481464068417197 0.314576014445226
Ni 5.213527419460126 2.804399304775155 0.5642449362319697 -0.1945335218376327 -0.02847342484934451 -0.13672638102117746
Ni 1.5061465273203345 1.1015274002287545 7.039894947038502 -0.6594853897666707 0.02614966181217432 -0.5739836112484243
Ni 6.9958249308947265 0.6847650572135501 9.126713111570766 -1.1962011178025722 -0.4091553297847083 0.5653583314732585
Ni 2.5978435751036093 1.608919221266548 9.084935934113116 0.8368390573909071 -0.2136072506396321 1.139414190720515
Ni 6.422496931046696 2.177395760139169 2.7527690194265495 -0.18152425406215836 -0.9310131668721707 -0.21672111367826546
Ni 4.442600233279766 6.847832615699306 10.308757469852733 -1.1911144473082842 -0.2212567967650899 0.8264008927767186
Ni 8.310115746320783 7.292310181086029 0.05799361812141571 -1.1102504246723652 -0.6828047812189015 0.8257457756912231
Ni 7.840388738634281 4.048448611106983 8.212600470497263 -1.178203909894203 -0.8572199350401042 -0.5120794175444601
Ni 2.9425339609905246 8.578138485311147 12.38593005615678 1.2466001390804144 -0.3953143101365579 0.5359644516921738
Ni 0.1703654691870763 4.767375053286394 10.42545740664786 -0.7278075711818368 -0.37941075153242393 1.1014719071487868
Ni 8.611388742240162 2.412887314277548 5.788363650234281 0.285969663562443 -0.04070416258758151 0.3084858423870881
Ni 3.811000088657699 2.5446777522943065 11.22946463902508 -0.7468296208102945 -0.2213066761664189 -0.6697816294863561
Ni 1.3869717082752744 3.3087783048319723 12.73094265915163 -2.2924837674409355 1.1720584591180976 -0.4080430705571359
Ni 3.075571397419349 8.505585022956593 8.075371481011825 -0.10579549577027586 -0.37135831354159266 0.8256017939141911
Ni 5.806206650140646 8.1377933088228 3.672130886662376 -0.09899852745310048 -1.8889748373087276 -0.10809920420278801
Ni 3.0170899025469353 8.382041158380208 3.6210549239655565 1.3531435687603084 -0.4018197153552435 -0.5256985509897915
Ni 3.4328865044561527 4.185836888710751 9.067710061888052 -0.37950202569464964 -0.20085715006281538 0.3404274282906911
Ni 7.2741058247055115 6.1825362074169 11.38421259087331 -0.3460933683272169 -2.2557997817563407 1.4845264260813853
Ni 0.7156305434567181 8.951427915071855 0.42554230409752813 0.6546118637244532 1.080179573428914 -0.4432389017319786
Ni 4.812403528793605 0.26048522523101086 1.5282284116099023 -0.6601909004741275 -0.37088960143529026 -0.1668525109825965
Ni 5.94453245209801 5.57364599737953 0.5821653046529515 0.9959795444412266 0.20428520190775784 -1.1231630189689754
Ni 7.924911565309025 8.844650262721927 11.399305822748397 1.1812951472250173 0.2279144112909236 -0.10960484221403703
Ni 8.83277192018364 4.939205973162102 5.823294169257219 0.5253432245329017 0.4280195136790628 1.0738325481649635
Ni 8.171380346344856 9.041293720344282 2.2418055036668982 -1.0784487067807362 0.627936411315796 0.13159420200093466
P 8.6071471272035 1.8388038336397272 3.5134262179548403 0.35554345799652315 -0.28560430980322427 0.15258623087156944
P 2.0988075536444737 3.3276835289331403 1.586738123234706 -1.9114267385543402 -0.4089930931752311 0.3140972750365945
P 4.787909567283618 1.1771118879206643 8.343169396200889 -0.5171871710846705 -1.316178818610501 0.3890559879316719
P 8.610778896301415 1.3865985189694736 12.57297071578841 1.0884922070596674 1.609618565297744 -0.5321373646365997
P 6.504389228224456 7.717818807124254 1.230524379758923 -1.0048724760554824 0.8964814516438884 0.44347981409819104
P 1.6524549395505563 3.0996466587325835 6.1390915109147945 0.2029590268971666 0.5929516677104949 0.061509015148074705
P 6.905658753742021 3.9822120604164692 5.935838051490674 -1.1099079537312821 -0.9102419957630904 0.6999712656958591
P 2.0853545342792708 8.383670448276265 10.221191785008983 1.5415540084193387 0.3207574606655895 -0.6462966589905386
