# total energy = -381178.14084054844 ev
CRYSTAL
PRIMVEC
9.15468318186103 0.00000000000000 0.00000000000000
0.00000000000000 9.15468318186103 0.00000000000000
0.00000000000000 0.00000000000000 13.39880420621857
PRIMCOORD
 96 1
Ni 4.274953237213374 2.420132038293179 8.844617696357256 -0.4347992556050576 1.269683246152123 0.20434562283204807
Ni 2.891497519151393 6.095151424449408 0.054149950849236475 -0.030704885283024536 -0.11858827665956996 -0.1781028870854352
Ni 9.07418602390856 0.8816939427312864 13.157893352716867 0.6949316463894225 0.15778397302242503 -1.8755799040590602
Ni 6.885392828888452 5.425175092589641 6.903841346378118 -0.11547004274556243 -0.291154293087176 0.06655223399893699
Ni 6.429910723300469 5.329371333394837 4.024371249952968 -1.5176797729049023 0.675025908604431 0.22712456839977657
Ni 3.2480449639062896 0.6958483819180978 7.257863929519453 -0.8066172823918882 -0.1900837135963952 0.08989399404867097
Ni 1.491279576236504 3.4235677039962997 4.887147039948845 0.4557807429527312 1.4457397922314907 -0.9021841584556205
Ni 5.075072544774366 3.9617257531378667 2.313397587413847 -2.2782611960836503 -0.84364682434136 2.167481359724906
Ni 5.027257634666917 5.849970700249195 1.0673060591240766 -0.6555721707551936 1.2818990714920246 -0.3976887239060054
Ni 3.5156729711973425 1.861952697096282 1.6045339924573114 4.269375420467306 2.6245355700734216 -0.21455984436088854
Ni 7.271207795683078 8.128076984108722 9.392682028138545 -0.7863528757158973 1.3701812409688854 0.1514068658514876
Ni 2.9976002968931765 3.036699948639092 6.53951425187991 0.9801636604548926 0.7153253795544261 1.9229763910651527
Ni 2.7577750623373953 5.600935854441626 5.667064708196395 0.9127861023411828 -0.4172890146354362 1.0862471197792325
Ni 0.7387911696515889 2.063071931281722 7.0386861673466585 1.6621593155089374 0.8779340276590042 -0.46551339685946286
Ni 1.2090406946334677 4.131572589673096 12.399373840870838 -0.7111594211021945 0.9120309693427132 1.298848040641537
Ni 6.754334384871939 6.576797614488297 11.069421753027504 -0.4709713346502405 -0.25516244837359925 1.750600893381798
Ni 1.8894533652875085 1.6071961743181664 3.059616866975676 -2.840839136598295 3.1482775115574744 2.1375712024290348
Ni 4.127883252362489 2.3452741941521467 4.441971276654367 0.11653653633686381 -0.1898595134007311 -1.0646233708618698
Ni 0.29423700934319014 7.159108700476164 10.141420676504044 -1.333544563582458 0.10865944758163223 -1.0576042592315593
Ni 7.60650722084016 3.9085004252870696 11.030860396650976 0.02481165972704114 0.09366708793785804 -0.41573066900938077
Ni 0.2934698468949795 9.139843411480957 6.244258326301806 0.41224810977741905 -0.38276218450316013 -0.5060506948518768
Ni 7.861172196786747 1.0678754804161852 7.619404338465926 -2.2408889260827793 -1.2938613860602233 0.3086773895726039
Ni 5.261626678063586 6.910641445024071 5.629521352586468 0.06524379960015861 -0.3455084423580243 0.19044186826676235
Ni 2.383641471245832 2.1145487146503195 12.497761051651382 -0.25531568612201194 -1.2406308088708569 -0.3645137798159335
P 1.8049464851033494 3.6965786649812418 8.582979598253127 0.9139677813541098 0.33625915584561444 -1.0224104849392457
Ni 4.536529998940378 4.899064606477253 7.7043524743780525 -0.5294824435122558 -1.101407886680071 -0.4387366429862508
P 0.49136754807892363 6.581548895044637 5.708734994971636 0.959363950100722 -0.20389825088198435 0.11048827326025489
Ni 6.75768499890589 -0.12735903655443667 0.9668901705568569 -0.2354783396811106 0.4024516925122876 -0.3639273111848442
P 5.50320961178472 7.627553837408612 13.044378943494518 0.7559194989267046 -0.37182574009631447 -0.7414297899509618
P 8.064744886057156 9.087423695747614 3.333019648399561 -0.34054904147021997 0.2311645427971051 -0.07075881588111685
P 2.3660187061765536 1.295964411169985 5.25025473065109 -0.7444966018017436 -1.1562670006117957 0.4187452874659885
Ni 7.129337670863025 4.523786679991581 1.9379631158462607 1.5844968305294518 0.3386171145548298 -1.5624727608498767
Ni 5.1307879464427435 4.261514162344958 5.531401458553988 -0.3437346382870532 -0.5928429100467725 0.1284613127989078
Ni 2.609185400083134 4.592812990964234 1.8168375030506145 -0.25321355217734454 -1.1579801266481604 0.781735431548544
Ni 8.411716532234149 4.78594934144037 5.022179531922019 1.477041944778882 0.6099145208170786 -0.05610995561969046
Ni 5.972167410973729 1.0749062770775908 3.0723858190373017 -0.9649892667072995 0.6368583963957741 -1.2033477561496826
Ni 5.219643301124517 0.38667550701099745 8.621849467451906 0.4624550696491133 -2.0611204783694634 -0.7490271426822455
Ni 8.023530502502927 6.507469198971599 3.19103234363515 2.00553271380183 0.7530802297056965 -1.4092013309858247
Ni 3.5011902624494997 8.084372526736914 12.18171026329153 -0.2157651775228994 0.4807227576100495 0.5434340205963415
Ni 3.835821395736421 7.316761499051768 7.539868451233775 0.34573855609095944 0.28966176770204954 -0.7987299092240115
Ni 3.1725096732119447 9.096331202455357 3.3139531897970746 1.8963089090762955 -1.742355365543554 0.9092567490316857
Ni 1.9849092465225027 0.5568674751010906 1.1757432810698427 -1.708486480710251 -3.562515398071413 -2.5972466524504814
Ni 6.061453035763686 4.817734401347141 12.706434730374573 0.8248628588656376 -0.7791833545506517 0.10909216424367664
Ni 5.436270568570921 1.8432679887812706 6.5934444903334795 -0.08611087285715494 1.3600564938300577 0.9748044530255083
Ni 3.6960293839920695 3.90591880463796 13.122494023901343 0.7453795186273291 0.3466710952075578 1.4782845589367315
Ni 4.771768737236571 0.11661601587454165 5.257891567337215 -0.4880061786453402 -0.9712038801584434 -0.26733302229786216
Ni 3.3878369756506417 8.148372916658639 9.822435812193696 0.6162245221955064 0.26280890917526356 0.6539917136419511
Ni 8.693378668798553 2.975299488732781 8.71878932282598 -1.1721499903906394 0.34895886280047 1.30860717691083
Ni 1.4118169264695772 5.761335057963092 3.7642867015798815 -0.3087650641904037 -1.3744757545791813 -0.38972858851866427
Ni 1.9423765885942603 1.913777358424689 9.744521219347922 1.054092646533875 -0.4763403122716377 -0.5597448419412231
Ni 6.8847977744835145 1.7818858382412655 12.546720297152941 -1.4821712955856472 -2.35665130325778 -0.6771434691680661
Ni 7.781682082970361 7.649836336202702 5.408333221993303 -1.171629342000479 -0.12843405910539818 -0.4771481528849137
Ni 0.1733384326897351 2.118970426613157 11.093593778424346 -1.1619805060568054 1.1915093687538578 0.3846164641030796
Ni 2.748583760451912 5.842628644360593 9.138788791981746 -0.5672177532795005 -0.7434229091215907 -0.7202050762442307
Ni 8.989569287526566 8.367206462744885 1.357861970371497 1.283725840288118 -0.790009241521562 2.2943550163217195
Ni 8.511154700640642 7.232748971757864 7.739899193592339 1.3236658710161655 0.41991822472816714 -1.8983141124317822
P 3.794332371687606 0.9865727393355311 10.692728512526395 -0.0011446551274044803 0.977277082935717 0.5811035101226573
Ni 6.081886288560897 7.966341196846937 3.4701558865612645 -0.03133326289564281 -0.5393122851184841 0.09459808439255966
P 6.49574204985277 3.125161651945292 8.143913670494875 -0.487065926219258 0.4697032665710943 0.11946476572725231
Ni 0.8075703041791142 7.934263187079274 3.7122597217537954 -0.28632473290901655 1.7672834962438013 0.6332267131804579
P 8.128049520059264 0.3577201596667794 11.000391780181587 -0.28798772243373627 -0.673450336587195 -0.0033892281872070665
P 1.5407423293114704 7.747992848967793 -0.17762557081022493 -0.8491204458614214 0.7540382227435917 0.33344945431096124
P 0.8904156093710274 2.637235349263533 0.8397957043455382 2.1158052715068525 1.2261323581443657 -0.41237255117042526
Ni 8.100951657926764 3.3025885661311 13.32244420504816 1.5501152677257883 2.784543547330359 1.061202775216095
Ni 5.471955523500815 4.367964818046551 10.017762878348314 0.9252742075058646 0.3307726788097464 -1.788834997162332
Ni 0.23366321732558354 4.927892703725647 7.47776582712964 0.4826762817919945 0.14033312453582927 -0.7671855587588271
Ni 4.4728774869784615 8.326147708804255 1.354512271805861 -0.8008412991400595 0.30482484859573306 0.9615802410257503
Ni 4.302820092730715 5.889363301856004 11.46322601180964 0.6921209164135048 0.514354843842198 -0.19669659092722255
Ni 7.120128059611235 0.9923218803555347 5.14413547447963 -0.651874153078316 -1.9658299958955692 -0.0036100859487615245
Ni 3.0777129291639573 4.020782614157042 10.78102634700416 -0.8581861556081155 -0.4038390597781174 -0.8544313165513736
Ni 7.315507307459825 6.604582077857262 0.8116835033196995 -0.6045373156655653 -0.5290751807715082 -0.02717938862826932
Ni 4.326338473750443 6.308638635574376 3.2407953703175303 -0.3106537965726843 0.4793613584861487 0.7233575058302832
Ni 8.435298996035947 1.7214374653828532 1.7223492718248792 -2.0067218490139247 -0.6319786997059696 3.1835414769660915
Ni 5.054913932471742 2.9076738442825176 11.571407818095443 -0.85315244983895 -1.5115263517089967 0.6249313059408851
Ni 0.07013036576088942 3.912208071963983 2.8012479062254374 0.8534360425176398 -0.434316145321052 -0.35055886029773825
Ni 1.9615739591658323 6.426706584196964 11.286523233061226 0.6130273554144475 -0.587381115601253 1.3006241587053535
Ni 7.038633070184371 3.053407245393083 3.7508613587361945 -0.09714553340476173 -0.1955341951880052 0.5879477867380003
Ni 6.441500552172005 1.7486634930794938 10.059138384326033 1.7094485875132046 0.9143130805086706 -0.549077334925048
Ni 7.762017823557993 5.734685775305082 9.209011620042478 -0.5248755408678638 -1.829317787767727 0.03829375337387598
Ni 0.6444558216345063 4.609392122154085 10.188021675625423 -0.030392239138612175 0.28499110169925757 -0.47705970693616545
Ni 9.074533901868369 1.8928405980540712 4.487125835837591 0.25469913558393553 -0.9656960629663369 -0.6155735188750688
Ni 0.6381052179313593 5.844963088564575 1.112896381225378 -1.0570931239230956 0.16247443651955892 -0.36105050385768145
Ni 5.163085668606075 6.473981367998394 9.153553464970697 1.7381307859392452 1.5850645301074637 1.0755649574750379
Ni 7.653351734533404 2.9539324582539783 6.15617471140982 -0.2165110545499884 1.206940101486631 1.2683352167646609
Ni 8.444545226020347 7.8391277197546305 12.645670520947386 0.3943894843294434 -0.26732273788521704 -2.7228165026342075
Ni 4.485227154551685 0.9044460767711185 13.020650004762276 0.6087171580748678 0.9117005825864879 -0.15508817135781677
Ni 5.599745745631752 8.897619649939124 10.998555350741123 0.09421756112468935 -0.9071224762975023 1.2373092006967916
Ni 0.35431187112896523 9.230117742051425 8.98167428877553 0.35224421841996106 0.8571404879524206 -0.41851311685052445
P 1.9145005783937659 7.800476647483206 8.410120870960602 -1.4577445300018508 0.17414493087895172 -1.032298947697551
Ni 1.329955749716598 9.129260597756236 11.221552446725294 0.563433860757036 -0.5894482825429268 0.9774737723275553
P 8.24423160395236 5.542190252649648 12.424657244802441 0.6446673509172317 -0.549401551033686 0.3640833771467343
Ni 2.4163969275668076 8.020427064914104 5.834254855680661 -0.4339649326292203 0.2590854375770893 -1.1271086338802847
P 5.835176732274156 2.733249666170852 0.8984076477634844 0.5035024745087264 -1.5813042917340832 -1.7270213062896451
P 3.533982337503086 4.408373589483327 3.8474798847316034 -1.2212554896680385 0.02088172854501565 1.2230208090985777
P 6.309828744384251 8.19759764797163 7.235233552765553 0.17614242092495472 -0.3109319899347355 -0.519783213946621
Ni 2.4626280774888096 7.144232340352747 2.1253585645172306 -0.7945336117544768 0.7965118185267702 -0.5323314829252768
