# total energy = -340865.2193860745 ev
CRYSTAL
PRIMVEC
9.27123093098012 0.00000000000000 0.00000000000000
0.00000000000000 9.27123093098012 0.00000000000000
0.00000000000000 0.00000000000000 13.56938361787479
PRIMCOORD
 96 1
Ni 7.744518622202964 5.5308454035557295 10.078184744557321 -0.029575913884903902 -0.006577910327833833 -0.21746313405061257
Ni 2.191718944281505 8.793447124394678 12.43232359860695 -1.607517202684025 -0.5302393762829384 -0.887421141213833
Ni 3.458206146754562 3.5698410359596955 8.967707322926513 0.10401937770645957 -1.991678581527557 0.5638578356683321
Ni 6.417833318607997 7.919105168056454 10.929188231782009 1.4256828735806155 -1.1195328784155558 -1.631762448384635
Ni 6.52637161674972 7.162572740588727 4.03713609701273 -0.10010307337118889 0.5420746783549696 0.2336248314121396
Ni 3.874308253092541 7.32416102096048 11.227307437234863 -0.2036208288508816 1.3089193088346103 -0.46203443717192694
Ni 6.828938231583168 3.1526356531649924 9.04159254197331 0.028545929958492776 -0.42197433592624745 0.04965597246423061
Ni 6.4683151699261545 1.0872279563322664 11.229370286072015 0.07423983245118182 -0.5144540884242237 -0.07123215597310958
Ni 3.5882815138792212 9.068709964731893 0.5860280045041155 0.14447491461834472 -0.21038257305474736 0.3967844669241812
Ni 5.636602332478823 3.6782124519483013 11.634185596120787 -0.09522286246075214 -0.2770330231944455 -1.5714891054158742
Ni 4.172146540254315 3.093633540807093 13.48925595428681 0.43047414586714244 -0.529026844032076 -0.3239985933107065
Ni 4.96197195726906 6.424592045809271 6.037330884022353 1.5054348940992783 -3.308965545600572 1.0945204155316184
Ni 7.833364826276778 4.966273808327209 4.101102026302814 0.39616277417978224 0.7986962277725986 0.25702007040762836
Ni 8.947738946182886 1.329327604352668 9.286560708781193 -2.774370977672732 -1.0830748926988378 -0.3819278615273229
Ni 0.5776672086329098 3.7435653573554095 7.985704126873508 -0.24546424724922888 0.7194954517717157 -0.5433095792033352
Ni 5.324013517227573 7.935811925829699 8.367967168174546 0.19415068457691723 -1.4817120965610417 0.5815470254179791
Ni 3.3492969993836867 7.655876385205183 7.128539906829554 -1.8713535246825386 -1.4612414874115158 -2.4346452034347554
Ni 0.5794398679482508 4.594247132873808 11.74381233675007 -0.04861904655928401 -0.5517525677643659 -1.699340038324293
Ni 0.21143876087728244 2.6286535060670326 13.340060528030206 0.48835224913084935 0.063355067217878 0.7188899569772328
Ni 4.457051460549453 3.0799584754821554 4.52749241738051 -0.49835229776635454 -0.45065447746975934 -0.010425566208698174
Ni 5.235028244692828 3.3610343774863107 6.778449890403499 0.37380060443449814 0.6339445651830888 0.13321476832349316
Ni 5.83270740485379 0.23141084611320129 0.8509942159939583 0.47272045613086333 0.31460146836652275 -0.318439096945058
Ni 7.760539308902281 4.0935821310587075 6.575261597751749 -0.44896860512690423 0.22140797763097353 -0.8809532741013023
Ni 1.7379478274925286 1.923696935143459 4.116516374512469 1.0875830649818365 2.501508283805892 -0.8126478048566843
P 5.342806301914792 5.735201871279304 10.779816652141555 -0.1689163354901607 0.3134650407692343 -1.2118141417494805
P 7.845074390687216 3.878146542614252 13.169683120927576 -1.0112020178179362 0.28316587556506073 -0.9373807609614114
P 4.6167205961603495 1.3803101021301807 5.810790215410974 0.24917614888317727 1.5086258902327503 -1.2327519203434123
P 5.948477262963956 2.1878250273754207 1.8638900799583018 0.5153773715694414 -0.4041393646273556 -0.7335647853805882
P 8.651096647785126 8.873977034504783 11.567410483919886 -0.2907120633434348 0.947167150924214 -1.8263682182210998
P 2.161680156720286 6.626686333235025 0.08164060355141319 -0.8516954056774493 0.6286313805002915 -1.8069152517028106
P 1.124878424321806 2.0618104593099633 6.786455598137793 -2.5069271408286182 -1.3167948549279451 -2.3338067945594387
P 0.6178533582267685 3.081636568244063 9.957375972546068 0.8647470966550849 1.3235447720572688 1.2224559377340432
Ni 6.694199435401936 2.6815458773746723 3.831668008724776 0.45889923397705484 0.3575481471313778 0.4796997156621738
Ni 5.501158922762205 5.012277655203372 8.681583235790542 0.7117268635698903 1.1102229138685396 0.1703921487047388
Ni 7.595390875930681 8.844105129096683 2.1280589656054705 0.7531043980754127 0.6738866527936652 0.661469510076235
Ni 5.121798703802346 8.65588060284117 5.694486334410833 1.1968539208952227 0.9421797250119515 -0.00914104306931974
Ni 2.3758826714778154 5.6384287649323905 5.508070625270503 1.6158704597447269 0.8999262156593791 0.37890527265091517
Ni 6.919972446108972 5.854429898451301 12.269870312408202 -0.6020402602753245 0.2867487078203126 0.32118040713562107
Ni 7.044030784490659 1.825282820957553 7.069798316055132 0.3073884955578513 -0.18860250106517842 -0.1027320263536037
Ni 4.3154983097825745 5.482412494228629 12.667385455381138 -1.6509685889994405 -0.44602417778659964 0.6713538590694825
Ni 5.066208404352634 7.166689167032301 0.6396889608391702 0.8110904876718935 0.3269077965377016 -0.8342347869988408
Ni 2.984668766051845 0.022955567284437418 4.424772743644163 2.3811734567688605 -1.3281066803963384 -3.6811620387727437
Ni 7.99986685893478 3.0358737733668484 11.086118645835626 0.10684836251482244 0.05491824930443445 0.7433843425741713
Ni 8.010751283810357 8.017843775317868 9.002797076988767 -0.07404674260376924 -0.42331002401853546 0.0321182206907834
Ni 6.664049393071972 2.1715354749849696 13.19245326359744 -0.04738517415218291 -0.24197037516335745 1.9167838891011957
Ni 3.143197540283104 5.8097981937229966 9.273329735408165 -0.09365654641489676 1.7234850110016124 0.7018952221914493
Ni 0.6595321759679592 1.7016787728815759 1.920596635587758 -0.11101380674642172 -0.22506408632632205 0.40600238597802335
Ni 1.7256263618539915 8.234864744216944 1.7608310791772814 -1.060027266850755 1.8560510899975131 -0.8860738831573192
Ni 7.6202841304374305 0.3643306268254478 5.329334276542815 -3.0492915825098645 -2.890391750715441 -1.0647745517277531
Ni 4.371617069383826 1.136031714888518 7.885901182324433 -1.0263311601498903 -0.20009353242391345 1.0426651214232237
Ni 3.046415162705461 0.8879289449712369 10.288360763809344 0.31568004614268214 -1.2204180813684078 -0.44301135910220474
Ni 7.904057960583659 3.922500110420693 2.058339310525111 0.47522882437501385 -0.532429956176354 -1.5639969108038871
Ni 2.8256022604383184 4.345945031495859 3.489190599850115 -1.3821494690743552 1.0373611927118072 -0.5818002790793658
Ni 8.187535111346566 7.777718899442694 -0.11309047242955074 -2.505878130738813 -2.7990908490169146 -0.4899185651767047
Ni 6.107525226116025 4.7438569831439885 0.6222609013152262 -1.0637373687124907 -1.7860229816348339 -0.16498846119066424
Ni 2.605772108628425 3.571194635646096 11.552593202969165 0.8814572103209141 -0.20792356999129355 -1.0083113265337023
P 8.34021373898797 1.3041376704625969 3.4693112269214836 0.4662842135872163 -1.127387084352652 -2.196193640057934
P 0.9361625228376689 5.88461702570418 9.680968135213847 -0.05385869769166854 0.4303890423525039 0.22509802488805103
P 4.085729398631439 4.4965839883769325 1.4148250398872502 -1.1960255114566565 1.5092383270057685 0.5409943008065974
P 4.933629804931205 2.0521127519676687 9.812306243963766 -0.07819367489260727 1.2542645976042077 1.289485882700347
P 6.834528783712617 8.879678841402978 7.238831394702088 0.40237147409365537 0.9733826329773172 0.21684684062285234
P 2.400238194602297 1.9705259215544821 12.923562540140109 -2.3966800370448915 -0.5105974336822949 1.0305619104017862
P 7.933531203070422 5.642990210450946 7.976884405081229 -0.9674397851303209 0.7229587277299678 0.514188750577979
P 3.2763416847789864 8.356716529685183 8.931476280361549 -0.908203625176823 1.437601993615705 3.6444204603773365
Ni 1.902660512619877 4.194823970616889 0.7204478703482772 0.3614911909395258 0.34687935456362196 0.015548232147244191
Ni 0.7568828799892751 4.025976316584508 4.96175315622386 -0.3121177827127205 0.897484438987106 0.7137696050315321
Ni 2.6652377825227638 0.5765518795762385 6.395982882026428 -1.753106433412471 0.6983208745766296 2.461918694438728
Ni 8.835343816057994 5.615769877031274 13.453487546135209 1.8455028821680217 0.3973148855063544 2.049207271871645
Ni 3.8703865224942704 2.548670598569924 2.349077689194792 0.9750502504877271 0.8168921819553352 0.17727782008097856
Ni 1.128160439999791 8.446693823907907 9.714470654575335 0.4577916027351729 -0.1018784201040568 0.4847241654599588
Ni 8.656529588992184 2.1985332988671518 5.305669460107627 1.547887149726218 3.037695393031833 1.8200656730418396
Ni 6.325241537319759 0.6853850028551376 8.986785661520178 2.1027543518601655 -0.3010810652825847 1.0647647815357404
Ni 7.094976197345256 6.465700682860641 1.4450983895859066 1.5032132038576111 1.2472886805070067 2.171795156608911
Ni 0.6000785546735683 0.21773392654211807 4.855247111857882 -0.17199343175358767 -2.1063698371255657 0.5705609587201205
Ni 5.260403603197474 5.345207550673544 2.99694758402903 -0.09007679948343841 0.5999802924225021 -0.24642455427996915
Ni 2.6929494911710607 3.300585953134723 6.27262359444169 1.0838230837187721 0.20165650603565913 -0.16340106209888633
Ni 7.956162277279353 7.486212862868671 6.310401078292214 1.1473347311191724 -2.435159681177329 -0.4189951986932655
Ni 0.23023432693372023 6.9194347147267035 11.544831328603037 -0.05459557585769307 0.22957662948469496 -0.6973672524141087
Ni 1.635621253939081 7.486277761483772 3.939612948099859 -0.4803905710816114 -1.4926652531384357 -0.13804972781829128
Ni 3.2228188697817903 6.49143761936371 1.8318941355902396 0.9413212336663983 -0.9125588168217251 1.9830730992467331
Ni 0.11505411909790447 9.247153342568552 7.341321141916362 0.49419842349898113 0.2858645054431464 -0.49718964491682116
Ni 0.7422120844840676 6.122850570510684 1.854473290907089 -0.7464264718346049 -1.0305218011924702 1.187724704900445
Ni 9.078871233610627 0.27622333984071673 13.56033291754586 2.2133243862009495 3.9179020187750977 0.8863610753804347
Ni 0.742548630159522 1.5386627229775922 11.36724924810108 0.830368619175215 -1.7309257835503737 0.8138305123108759
Ni 1.8575837888165918 1.7260064823138712 8.649423190638581 0.37746699754249186 -0.2337798689327651 0.06752385388358693
Ni 4.113867583893259 1.0775117065285142 12.197260814709685 2.643744024681073 0.2979831430835513 0.07502967534232885
Ni 0.5193465317335746 5.860224417656783 6.99125801205942 -0.5557241508176042 -0.5250778866866571 0.2128330914777689
Ni 5.475190205490916 0.6051119058362181 3.501009564783152 -0.4554737532352736 -0.13739049696773759 -0.011897779878850476
P 8.535206263675486 7.206963393318083 3.1210532056874336 0.6387486714399516 -0.8256429315647716 0.4507146412837334
P 4.129359810441035 7.265919149522339 4.341537488407401 -1.357257590928682 -0.1538453000896512 -1.9760755848829776
P 5.370638536562564 8.626444445277322 12.472326177832377 -0.9306087323449005 0.086608895539496 1.6842296650454156
P 2.861926942433644 0.83210501050716 2.2776484191680475 -2.149534288328182 -2.275359191945507 1.2060145043485682
P 5.861466762574438 4.642531702509249 4.898682827822176 0.9715242396123398 -0.0512351440258924 1.6333452194907225
P 0.6814271144570251 3.7854249640958115 2.8283205852879942 0.7479359665005958 0.2715329193118227 -0.6049754316442484
P 3.726561920198843 4.943587106733906 7.352800779804727 -0.3663719160705948 1.2121681826547899 -1.361450803074423
P 1.2489645763956794 7.578424523697028 6.110035875397376 0.32082739467157645 1.8493358827608666 -0.4974729804851949
