# total energy = -381170.36805364786 ev
CRYSTAL
PRIMVEC
9.27414768627729 0.00000000000000 0.00000000000000
0.00000000000000 9.27414768627729 0.00000000000000
0.00000000000000 0.00000000000000 13.57365258407864
PRIMCOORD
 96 1
Ni 1.1743111115247997 2.857624537378287 0.6108825348633857 -0.5396205603875223 -0.5503407750185038 -0.4664351373427838
Ni 4.344140552145579 6.504998383826135 12.599267957874707 -0.620868448725421 -0.42497069955041 -1.0934297535706008
Ni 2.9147811087507765 6.027991878557172 10.482266642560102 0.5509077032655673 -2.164574727601072 -1.1164149016118645
Ni 1.281761385080156 7.419661186294373 9.488132742290794 -0.9006306979255715 1.1373380249177767 -0.5216922580438756
Ni 8.48194986951992 2.7450456602258213 9.621547846751804 -0.06299948365067214 0.09627624342593097 -0.16029311259752393
Ni 0.22940345905494416 8.468335420911318 3.9032939481878834 0.6130039583756798 -0.961321073827093 -0.3609875118302299
Ni 4.48559912477978 1.1778260134475926 10.298194289332123 -1.1834543596598652 0.060408582995044355 -0.09117980273963007
Ni 8.057045525206766 0.8700420963438746 2.5246177211731964 1.8002622651626672 0.5022680878809931 -0.4551893892256354
Ni 7.43506554538081 8.522626280689762 7.68996270864569 0.0820924957263812 -0.13196958306248238 -0.1662112778541718
Ni 6.037377315881358 1.1966896295715006 6.228528625936956 0.46806495963672295 1.0814828656213697 -1.120843112586547
Ni 9.375699469254918 5.342233586005496 10.046226829279409 0.2107319859743661 -0.38629745134992827 0.7476287196728221
Ni 4.088387385061506 0.2513553663141819 5.058398300129294 -0.17566548128853618 -0.11112487840298926 -0.4674065001171176
Ni 3.1337159100472802 6.78776714273368 8.069903203374999 -0.8717626087409696 -0.8781664553847844 0.7022297227127325
Ni 2.773007215099755 7.8415885292428396 0.09096733110844327 -1.8421193104077693 1.7456294083091355 -0.29156644092393014
Ni 0.13220482820527496 2.167442476443571 4.217048561486573 -1.72346855594138 -0.3207651739750734 -1.796562704823893
Ni 6.187729796019407 8.137962462611434 5.3992593918974805 -0.2289019720151735 0.2723777838106213 0.5847423924268252
Ni 3.1010523623637 8.337022765700693 2.9618659558801173 -1.019977964238353 1.2353281657110209 -1.1533050897699946
Ni 3.28629418559818 3.648737146138218 1.758005555420217 -0.3224230212934705 -0.3186982641437156 0.9647612098568932
Ni 2.0097912421808837 0.7778848921043118 9.833242321053259 0.5166618947088198 0.325581107306478 -0.13643224681952634
Ni 6.045482920843155 0.7518078440132578 1.5415460241057537 -1.1026481868450753 -0.9986936009382801 -3.3377246200111355
Ni 1.4550117355279042 5.736551791687064 0.6149418292475718 -1.0226575679530452 -0.5104470241473595 0.007031967146116921
Ni 3.3603018830754583 2.164892085866347 6.187522055114208 0.08381359218254598 0.3604462946147792 0.17781800885516472
Ni 3.0193471224169808 1.2658191254356146 0.6874795743376133 0.6215037683165748 -0.5931884663116493 0.8846430642480636
Ni 6.350129393829509 5.681370613743479 4.691407297628999 1.1244634829479538 -0.8525356421905574 -2.7122608386055482
P 5.043698776256928 5.764939957348461 10.625414037463806 0.2929072712225407 0.7063314035859319 -1.4876721707992184
Ni 2.3672539854846684 7.8818847003629875 5.308369963628487 0.0615727785064746 -0.4693430550181981 0.01986408591377869
P 8.47538377305201 6.022343922697064 7.868863797197813 -0.037797530463747814 0.46270189555259666 0.13781087233460781
Ni 3.407386730204799 8.253119552783785 10.408697612262106 1.5002068129311195 -0.42763796196992804 -0.7393312555507202
P 0.3452301426806611 2.1690840005605487 11.969274187147732 1.575245744244829 -0.6756825683518234 0.21581377137264768
P 4.329236997027035 8.000862739327399 6.840197608512883 0.024671534604751057 1.0837158687169464 -1.3658931551164928
P 2.8552410814570264 4.595636885502574 8.66261026386295 -0.99961739830413 0.22451001359506495 -0.026529670859412376
Ni 6.977126687481933 2.743506151731933 4.553906003755895 -0.06757090507143847 -0.6308960081647522 -0.4692702927987338
Ni 4.973947912506726 0.3828145530561519 7.964000785046328 -0.4745701077450924 1.4101474969491778 1.5089148822280787
Ni 5.435401672328395 2.7366803791325247 2.586920517023147 0.3727773053763064 -0.6337131658985731 -0.045712671545766435
Ni 3.8002859913106746 2.7011882164451135 8.34497256498359 0.2606291279151253 -0.10779298581627889 1.079007921718316
Ni 1.6878855805973845 3.394263811416535 10.199079619597894 0.24781449264896033 -0.9286292400210265 -3.068576913102038
Ni 5.982437265774166 2.977047735425268 10.289819734091274 0.6850172154891879 -0.11140898530231136 -1.218348857544205
Ni 7.853802581570857 7.183485744695832 9.948198162223697 0.31591761607478497 0.509349934428439 -0.3955773339899574
Ni 3.9895156979931783 3.751142283424447 11.092253294769817 -0.4130816614223079 0.8437545535638178 0.435965765109333
Ni 1.5172412656121819 5.981203804149544 6.390190929016552 -1.1161868447614585 -0.5892099412798755 0.3793117640607145
Ni 7.196571566893882 2.74954362178929 0.4534288399435884 -0.10525170745166389 1.0547801595192028 2.2258736836208697
Ni 8.70284151595022 4.5555076490383914 13.437223358512831 -0.6598813396535087 -0.4230557419158843 1.362612427482692
Ni 7.137569440158237 4.434990101580093 2.7024736132960347 0.26791640560515795 0.579143558182809 -0.22468150617592272
Ni 9.084315027270131 0.19546378866799594 9.351635838597739 -1.4655205744028437 -0.04999073009583003 -0.7596355143257111
Ni 5.147828904988116 5.080786092323549 8.500214375711868 -3.4483532755039965 -0.4461365349947478 -1.3991177214975776
Ni 7.574919690488247 7.238138296228865 0.8531325431094986 1.0539939161724814 0.27807766240887594 -1.6259026471697484
Ni 4.835985693500211 7.235754840307603 3.670681634079413 0.9107932402808702 -0.6861513290936311 -0.21039234324676023
Ni 7.7568413688985585 2.8976888548095956 11.817778204616332 -1.606875455334968 0.864755324185201 -0.14443069164397063
Ni 4.133116598712248 6.155733986959682 5.855470476107133 0.29425812882348035 -1.2248617189620583 -0.8240269932279035
Ni 0.8887230117609776 1.9534136992028919 8.216797353890332 1.0455033622029672 -1.132871761616307 -1.7379279258998197
Ni 6.495937541666323 7.735761231509354 12.096988473107581 0.4464597226621214 -0.12179727051517088 0.21113513495005573
Ni 2.668107332121623 2.2995527083438003 3.914994212741434 0.6474683107011365 0.23990526510421264 -0.14620346727367725
Ni 7.010921681167045 5.001269551199465 9.438805406283004 2.4871617852762324 1.090435189718651 2.762137154610701
Ni 4.435277600154253 0.022376663217190035 12.622058248072785 0.14893217905874995 0.012495561363849448 -0.14826240668523497
Ni 4.626501248560769 4.434665506415718 3.789736648468519 -1.2880332094142204 0.8048655898081041 0.4090699691597536
Ni 0.5302150720279081 8.270285999905393 6.963867438724631 -0.8181072853093588 -0.4121092702067097 0.09391879893734793
P 6.074056569455624 1.2680541949960185 11.793263850388051 0.9727336865394085 -0.79473595757327 -0.45314947597747113
Ni 2.4963130228397814 9.256758526880722 7.54107368899159 0.8090366904666582 0.4545322152576108 0.1602522320572595
P 2.6675323349733038 4.6573285150287465 5.200405902298664 0.14789988113949368 -1.4002256098497756 -1.0728868964222424
Ni 2.720682474602662 6.017456446936347 3.31042366270299 -1.460410506869788 -0.9891139276696448 1.8964181809606502
P 3.3472717057627293 3.890273045022708 13.285904512199702 -0.4702681379356288 0.5540141101050329 -0.9075978732720241
P 4.150774575654195 1.0433508739212103 2.762740733757983 -1.0954490979934748 -0.2575101226701694 -0.09007705659375455
P 2.1751400189130123 9.117609216987352 11.8318545057731 -0.8313011582918135 -1.1164074454126967 1.4908138017519939
Ni 6.966517062680679 3.6583080664134755 7.7323260872555215 0.27068548370986284 -1.269619225683407 -0.7743998171190792
Ni 5.388353921789268 7.5165389316386895 8.679237883011698 0.39228580772287924 -1.6934732951308704 1.3303070304817672
Ni 1.1394774133136898 3.8467216481112674 2.811877022326167 0.14632790866668346 0.8146329536075131 0.5282696541510773
Ni 0.4937120272571604 4.122775924190047 7.990116784557108 -0.24550538489980947 1.8665501897566241 0.0658688347786672
Ni 0.00872882767739525 8.580895749768677 11.457113098162308 -0.37875152068187035 0.1899315042892471 0.3128194367654355
Ni 5.440057294400274 4.431289716706228 0.9125251114571472 -0.20391984814853908 1.7403406491063704 0.23247297719588347
Ni 8.163067580038875 0.18155256733768052 5.500288245686764 -0.14160376371813677 -0.9172225408459816 -1.23195513547373
Ni 5.460859207362873 3.7466164994183173 5.988192801745895 -0.9946520838790548 0.2746784069193398 0.40093834119155464
Ni 1.401370066078208 0.730046984193623 5.335219548210752 0.5943086959590216 -0.35425199287860926 1.1711259200014994
Ni 1.3632718679282507 4.204471889989212 12.167395019089819 0.9262427420667209 0.8616813132455676 1.4425022591307997
Ni 1.2844508878706837 6.616890974059638 11.820425046328115 -1.3123108510146626 0.6349192703915324 1.5859939839002686
Ni 7.7607457850186 0.740716890953975 13.259436095081888 -1.1234756651133877 -1.156449548936247 -0.9850073617004391
Ni 7.3053851401396095 7.825803930106709 3.1153428963289556 0.738473021315483 -0.4888101626038743 1.2197051144617832
Ni 8.274737590731094 2.080126377226958 6.522520030799044 0.8074508340367773 1.2920623851782715 1.1448181353449056
Ni 0.4684483219065523 -0.07765151005106534 0.1671637274083576 2.1274914495955297 -0.5049826585986786 1.204072550130849
Ni 6.168884728190607 5.0842082527708055 12.215473127422143 1.6013717519079196 -1.4534764987541162 0.45234240669514353
Ni 8.454108878564181 6.625200610267614 5.54885510159516 0.6990143010992285 1.2301232244713138 -0.025554194320020505
Ni 3.531975628439104 6.118526106974865 1.2957338157843248 1.9786711135242956 -1.2875207885541762 0.34222257251790095
Ni 5.066921241731 2.4999484886807704 13.228026412147548 -0.9718530837066681 -0.5624427004883603 -0.37776190307509133
Ni 0.1725751925058503 6.031785004906572 2.9519704404404865 -0.4663888574858806 0.6167569976602088 0.09899081414361662
Ni 6.106460441007704 0.3743899174185129 3.669351721320235 -0.7467817982914945 1.3961177583289892 2.2255037018759607
Ni 5.066522453386198 7.728054414892359 0.8112968634954634 1.1894283178551128 1.2382713074997447 0.47652748858177935
Ni 8.552572503140155 4.470426619382183 4.724797938480776 0.6573151215882292 -0.31862215949014155 0.13569845397729532
Ni 6.42456370209425 6.3198678503622965 6.6451984546373195 0.3299946629931414 -0.7821529787019369 4.799136314451929
Ni 1.3787225977524544 0.69859371276578 2.4962221361937567 -0.35652279119065694 0.5685421285178789 -0.47165524809114256
P 8.144296705390504 6.016658870246742 12.11991416585994 0.4696209912699332 2.0712128296084584 -1.5192473745023385
Ni 6.482758977992737 9.159954974716833 9.973987711740591 0.6548522618700335 0.8742761191914427 0.633177090889445
P 1.2784226919608803 7.594673624777295 1.851337794154814 -0.2231211036673383 0.634144854119353 0.19749414712785343
Ni 2.6612815595222155 1.9188767737134953 11.892678075088261 -0.31300198508988675 0.5584160958274705 0.9492096352755394
P 6.125593007410665 6.384490110515388 2.12225419248893 -0.7547172510884873 -1.6937890265990763 0.01921873902029593
P 7.109635707726963 1.4148361283259534 8.453765735104701 0.25050823743103956 0.22135681267806392 -0.4719954050393807
P 8.639832957471446 3.0227136379789172 2.0121580046365475 0.3731801972416799 -0.667536027985289 0.4248241466702168
Ni 1.1040687179542603 3.165155270253793 5.95765210643732 1.3604352173257153 0.9080570722966298 0.01569967012344393
