# total energy = -340863.5801493168 ev
CRYSTAL
PRIMVEC
9.27839079973974 0.00000000000000 0.00000000000000
0.00000000000000 9.27839079973974 0.00000000000000
0.00000000000000 0.00000000000000 13.57986280953697
PRIMCOORD
 96 1
Ni 0.5526942372505171 7.446724871724839 5.64058595498318 -1.1905606316873432 0.9545927539643236 -0.5247768105064704
Ni 8.111855572849782 3.47241908649678 7.786272211135851 0.732946435070299 -0.4512504591825454 1.8362476821183409
Ni 3.530084283431907 9.14738890098152 10.896372932265352 -0.5623668529451025 0.34281341202436444 0.019329553566547353
Ni 2.256458176772045 6.0290888661703494 12.918917317588852 0.43613982879335217 0.23903211847063996 -0.8524878196717576
Ni 4.490295637513866 4.951329582889496 8.939840583967543 0.3457169588244046 0.24790062460486342 1.2808899135012197
Ni 4.715148152803629 2.3650617375324097 10.299375308233575 1.3673951935833162 -0.5704912818244497 -0.18600491554133128
Ni 9.237120215472206 5.408986194124435 9.43060342033269 -0.5756633129436926 -0.3147511065705096 0.30516886219871314
Ni 1.921925807424336 2.4733127194539106 3.575699634629359 2.3493977070191603 2.199526561085909 -0.2539072358102595
Ni 0.99536717567282 0.515303251389074 4.035256460237961 -0.2768263065002781 -1.3662780492597373 -0.0715795120101993
Ni 5.559268284994629 7.083345986323821 1.1323848794893603 2.095171397306585 -0.21480435627152686 -0.9104762232610836
Ni 3.1543929738421665 1.0331302249931689 7.481282237128681 -0.47445466521315066 0.57764589059136 0.529776577713907
Ni 5.730120567595343 6.306948826366046 3.173994501604862 -1.6539659810648677 0.13953145457014032 2.45831966423356
Ni 2.7081951748702813 8.181582677430232 1.3209950736611338 0.1692446653638569 1.4488315437829369 0.819951280496633
Ni 6.858113057023706 5.133139644666457 8.826326898956484 -0.0676565228067093 -0.7344415315585868 1.54925909037308
Ni 1.0723314248404596 2.184114566071613 7.961520595153759 -0.5668912231780172 0.6387414723511 0.2171072933730906
Ni 7.217381615434818 0.8062698659999855 0.36932355019206076 -1.258748087296858 1.3180770640744783 -1.0811977302807831
Ni 6.18355551115442 7.981679754185288 12.562717122914899 -0.4137043826079714 -1.5126481240182656 0.6309492300001908
Ni 3.605619660463101 6.097619058376761 1.5580718684299033 -1.167816396012292 -2.1958694239492957 1.598269715943828
Ni 5.6061891057349245 2.6617289952643093 12.576106768240253 0.2254312398577537 -0.2907120633434348 -2.6014604334215132
Ni 3.0241893200061827 4.332247533798186 10.876152535856548 -0.12704206385387798 -0.5575789446381558 0.8142629718626042
Ni 3.891486871657191 9.144521878318132 5.471163472357962 -0.9858180305271926 -1.398794533830204 -2.005678495351075
Ni 3.539576076909724 5.147697439355309 6.844929391967372 -0.19133789771847046 0.003960527309644793 -0.8742730338676492
Ni 5.874102631318481 9.041541022198587 6.389759389385468 1.507220011024159 -0.10898340657995424 0.35776386268660965
Ni 6.407600806470996 2.1403298413191 3.979728076634155 1.029881082284678 0.825367566416198 -0.9090060664734603
P 3.9639232662625874 3.0495657180138376 7.793401726393285 0.7242792463136043 0.2484302718560883 0.47585334533289014
P 5.92774100677817 1.1711555620176182 1.9597779292934505 -1.113574861059908 1.2497415129228735 2.0216612439325763
P 6.109087149030312 0.7125627611815917 11.844858256437963 -0.08441420188102236 0.17540374298671726 -1.2132040801184718
P 7.599846150086932 6.633770853211247 13.63947805137834 0.23956613659723905 -1.5383442432327894 -1.062846481467105
P 1.3127252442116921 8.79648945079816 11.74192286443185 1.6185870873449415 2.6435992715730925 -0.39319623535229054
P 7.6202864443505005 7.05265307056173 9.135431839148808 0.5184845497398555 1.8871339274452466 0.3283391296675894
P 7.591245082096768 1.3268933464996953 6.796816298048289 -0.2795678738011572 0.37842936145576117 2.2906279451791196
P 4.003319312310302 7.80823880063608 3.2539250522142003 -0.8707028000178875 -0.465827585665772 0.7491603258260001
Ni 4.657139655420135 6.3070416102710105 11.231496335087682 0.15921042105630645 -0.6719105029039009 1.2591574069201348
Ni 6.983890918592907 4.07361239871103 13.429764158022504 2.747406790379062 1.5304267881579257 -0.2659885924548258
Ni 5.858811843780413 8.957729320844603 3.655440906072571 0.08677910256877312 -0.8160018089305817 0.3138491635815305
Ni 0.5218380218156886 8.391636159878235 9.55761623567696 0.35052132219158344 0.11226876219944536 -0.3912943903438874
Ni 1.6372647869947783 7.621965833030349 3.6890379580600365 0.6173367814230787 -1.2910146606400474 -2.789819451017318
Ni 8.73022318587287 3.5037150976411375 11.621034714654252 -0.17506744269322108 0.6607485727498104 0.3971511062349805
Ni 1.0173291259777992 6.425610162424508 7.633580522253743 0.9544958233751433 -0.18104859997732045 0.17463266914864764
Ni 4.11237751420499 4.762514336287753 13.169207468263544 1.081243238806738 -1.6891715824317233 -0.18575243321089302
Ni 7.5196251858550545 6.310057087182341 6.713911095445804 1.411391396658608 0.19070720611300704 1.0475890410874023
Ni 9.418772544610729 4.9022747323350275 13.647354477070735 -1.9742040788918773 -0.40815208533117453 -1.3439241070445693
Ni 1.9408073320845105 3.711912901989862 0.7779717028250145 3.4507289748250245 1.1864039292064923 -0.5745212289194492
Ni 2.2347931349629504 4.193813947591895 8.53082871842713 -1.162445618618682 0.5439526121039728 0.5927668053931985
Ni 0.9322648419068023 1.774835482884904 11.923947257029278 0.27773056348210234 -1.7743090356320153 0.5092352632274456
Ni 7.707577542140634 7.977699324662333 1.6819198247758531 0.4575149520350186 -0.723904893693321 0.16101610680647752
Ni 2.585831761003756 2.089669829208755 9.81054052141358 -1.515171918881384 -0.4205885113223144 -0.037350158513684055
Ni 9.02111928471601 8.99936145900195 13.470150208336186 2.6378019481650252 -0.6389528170309577 -0.9361890546461554
Ni 4.897941723973209 0.06091448928696656 8.469054122341147 0.7015134133719982 0.45440314587891417 0.6339882739368308
Ni 4.405843727215632 2.212051799856274 0.7046306651462192 -4.444795104293623 -0.595353078063136 0.9914911696525698
Ni 7.315602657229712 5.371056133775151 2.1383396265576224 2.8873910162159047 -0.8301030242186543 -1.6609763509444297
Ni 8.259381981742546 5.511308284518737 4.873242648471792 0.2367572063935342 0.715660908516974 -3.0089280910911533
Ni 7.5754996534243775 0.610532940087927 9.27744966760386 0.12769358139494782 0.4962792172874098 -0.1832276099065102
Ni 0.37927462399945 7.064000542138827 11.700558871759846 -1.2002783731957392 -1.472406759999716 1.1965536160459844
Ni 0.3645822926484003 0.9117159904744248 6.188519450069994 1.020947527240474 -0.1814851732941068 1.5685385074279825
Ni 3.507834703021539 7.74823544929586 7.500144277168813 -0.8450591313078543 -0.6213345897285623 -0.4260960714041049
P 3.959349019747862 7.425811379545952 9.621237231471728 0.43596036579269437 0.5300599132822806 -2.019397130488748
P 0.6661921489977325 4.327608338549986 6.928350473081457 -0.5306538381125376 0.10828895161609092 1.5130150204393813
P 1.5723810022534517 8.673829128435749 7.380451184087151 -1.9241531849820732 -0.6254702091634905 0.47302641740705625
P 3.467427312409716 3.889937380444292 2.424087146514309 -0.05541318666298199 -0.3499556794961005 -0.7819125805563567
P 0.2784862515542036 5.714904007181246 2.578992659368859 -0.2722086052226086 -1.7365721832028738 1.2963317019775866
P 2.365219470170848 1.4133772243166414 5.5763535132547 0.700456947083026 1.0926869618673052 -2.079940953510076
P 2.699028125059838 2.862671098244848 12.54001197353116 1.5645751519048605 -0.29217167860809684 -0.2074404597072879
P 8.855249497811863 2.280962406073038 0.15324839231189308 0.11350957658508193 0.44254907475380556 -0.9922164778543685
Ni 4.869624076178196 0.050107020036759604 0.4043550413502694 1.2318342936251494 -0.9121155586367194 0.35926435849153615
Ni 7.8309430221807705 0.3776462664673318 5.047539997463818 -0.5346920127376533 -1.6121801553773332 -2.01939764470938
Ni 8.320851318781198 3.35297836563662 5.622728764633807 0.07923908543798612 -1.4332884538420154 -1.7963058516180805
Ni 5.765267110795706 8.329044137589518 10.24912911233937 1.1608001125954588 0.012433854887978586 0.02645690863994798
Ni 4.5329112850638325 2.092768811634553 5.161108424978806 -1.285736957180876 0.9218572114045156 1.1396057379060307
Ni 7.986903488034762 0.6828227361234802 2.764656036718976 0.7018972790739783 0.5593085257347529 -1.180189315755348
Ni 5.859572671801118 4.450120206664454 6.81294863560438 -0.15054477496150848 -0.64482418821007 -1.1235278585075619
Ni 3.6692508624874134 4.732294618440976 4.378731342346101 1.9786842261504183 -0.34778309732481394 -0.7874211690794116
Ni 7.866998847649781 8.319459560206738 11.142833891182182 0.9969179970950959 0.8386146612340912 -0.7846955426181325
Ni 9.543752464597238 3.2690367668156872 1.9743487137289972 -2.6703336022441433 0.6054631699139443 1.134820657812562
Ni 5.620505662270871 6.819440725434711 7.596846446439445 -0.9979068433709264 0.9343026362567199 2.3875001703178365
Ni 5.197346106901547 6.423643143639271 5.414087453219357 0.849093706388544 0.07492554566429677 0.1770389645972951
Ni 2.9044888042121237 0.5454979175815091 13.181700821066947 -0.9238765558273895 0.07626251930816544 -3.3383082604287475
Ni 2.1530412362991687 6.4879516681698215 9.9888581970077 -0.49881278234254095 -0.2097462250223291 0.05810384612126768
Ni 3.787095700182192 0.7674138222791608 2.7801648664337084 0.05564124351338804 -0.12986924889002793 0.27005042122902523
Ni 7.130238971892628 2.8610288231269854 10.069672050392294 -0.21693194413749092 0.27378546279142524 -0.3422565110796299
Ni 6.086058183818247 2.198561020074508 7.889832038822373 -1.8769945250183997 0.06722174926213584 0.7587762516492094
Ni 1.7900984352514822 1.3741110757358759 1.207505512465365 -1.1386238336087358 0.9467249211804728 1.6492171535259725
Ni 8.416567195142061 8.487778842201934 7.515557539461433 -0.10549133426629574 -0.3395013169319959 -0.15642025990567898
Ni 0.8139709301119976 6.817455149868481 0.9275820382232691 -0.6541344098674026 2.3062831352178734 0.8040034989181251
Ni 1.597312037517279 4.48345746371802 5.132916035455494 -1.074882843806349 0.5977801994473898 -0.8626516475786369
Ni 5.568166261480678 3.777139987179555 1.4453589085186833 0.019517501207637355 2.0327426985577186 3.254035983442228
Ni 2.983689145489396 6.813391214831058 5.292208371336742 -0.7453936596947164 0.387136659421772 0.027368107600307702
Ni 7.428771186114304 5.694018350173849 11.518493654244235 -0.2976720396010358 0.18155305041756475 -0.06435831167141175
P 0.12023309540855227 2.1407288121104457 9.86363796670733 -0.9649789822946543 -0.3679302616966502 0.3968024646463102
P 4.05157622128208 7.408312335069742 13.318029140469605 -0.8689547069785293 -0.7331150994376794 -1.8908486572926724
P 6.177700846751191 4.3223753263100155 4.490846773909353 0.08978266528178731 0.5600394903635065 0.1096781186541337
P 5.654371787582731 4.2865978525558965 10.925908832732544 0.026021106654110022 0.6427598494818737 0.40859534351618015
P 0.9077160763314266 5.088018831682463 11.360518849813475 0.9399716616170393 -1.422628660135324 0.08500529849780199
P 9.048638990928332 2.2571354992782826 3.8102378617583135 -1.1478623214878683 1.207393901194598 1.0229365326460447
P 0.7546114990722278 8.965690179890514 2.042655296724446 -0.7806468264700556 -1.0127927593438237 -0.7879215057545979
P 7.957268308789259 7.76748810957589 3.8347086888535196 -0.6147970457203606 -0.6033278687384963 1.4788334894616662
