# total energy = -340868.8389174152 ev
CRYSTAL
PRIMVEC
9.27662836683714 0.00000000000000 0.00000000000000

0.00000000000000 9.27662836683714 0.00000000000000

0.00000000000000 0.00000000000000 13.57728331082872

PRIMCOORD
 96 1
Ni 3.1251754903298776 8.716570453749156 5.911847740331135 -1.097923013455264 -0.9506679649886206 -0.5396629835896835
Ni 1.6578076967228532 6.076117347247437 6.430296234138732 -0.34568147760077883 -0.5407659868458752 -0.687862655357783
Ni 4.664121748179765 5.202583639960088 1.31667917057506 -0.27983501141961487 0.4998461087030618 0.4923492861053843
Ni 6.388711892295616 2.7621346403889193 3.9994327746274574 0.8800533879948521 0.4496304070806192 0.578257813143746
Ni 0.25842089088987547 4.65624589072225 2.0211546753989094 0.16996868801407503 0.8785395224534869 0.5631566958362495
Ni 1.0732316854828006 2.5635498575938227 12.195821860395798 0.10950791162485657 1.9363708100941879 -0.3829524461370953
Ni 0.4338836775567533 9.067097132064452 -0.016766578055022074 -0.18788387773159898 -0.3641497116082954 1.7107739911928475
Ni 2.8813671443953366 7.103875000625712 0.06421838732084531 -0.08225190412238093 0.5503788273452909 -0.10342442443493799
Ni 5.857615643414313 3.485257095831558 13.157106905767506 -0.2994013635873166 0.5464910622551103 1.7614401500891472
Ni 9.196190691992353 3.2888337674388186 4.122388917248064 -0.06759584477210294 0.30089594585497215 -0.7537967961567469
Ni 4.653147496857927 3.5718451447225488 5.911847740331135 1.2454711676822936 -0.18722233288820014 0.29095348993027953
Ni 7.900208606898403 6.387311121416835 12.443797267779003 -0.7966977092853311 -0.6528030926504886 -0.46483565406614785
Ni 3.6373381407768006 1.5721936938071737 11.606866352918178 -0.5172342222725221 -0.25080571406680024 -0.669327315557757
Ni 6.798117330661384 8.986594551362073 1.621521237322596 -0.7155660348103224 -0.002777048524504895 1.1663637227261656
Ni 8.427900333180286 5.873311698559325 7.263493306094197 0.3601753003415797 1.4085526416582324 -0.1545415548257274
Ni 8.243119173349598 1.6648301043734295 13.591539759721769 -1.0999207606115833 -2.426880728997988 -2.6962822037891048
Ni 2.15926511806969 4.846175579279581 0.6990050770939356 -0.3023481049204664 1.9404166980287871 -1.4713189262521758
Ni 0.9566801270655728 0.40745456342664493 11.545416111492884 0.9872002555866998 -0.8979282113927438 -2.100561715084221
Ni 5.239133555605097 3.655780077909358 8.425545924908535 -0.9601486507855466 0.4695405157409849 -0.007127612183716757
Ni 1.5741325091294598 0.26827730849719034 7.892026620705789 -0.29461474083195066 1.1966634021509712 -0.7549121407081129
Ni 9.182192259832881 8.442306936986554 9.168345964378124 -1.506280787039341 2.0687173168801145 -0.6162312070637257
Ni 7.555192245814868 8.56242072068492 13.179360609483448 -0.7928559669417378 0.7387874672321083 -2.2580710942890208
Ni 3.849281268376164 1.5798932953262996 6.453160339999202 0.45629856312941414 -1.4197662509858646 1.0446348435550847
Ni 7.080581386873273 4.168091154409662 6.0806953633314 1.1048040568458135 -0.18417814674523764 0.022731123048928593
P 0.9305014819005445 5.164929805543062 8.518957861603704 0.15493699049193316 -0.5014929002778653 0.2403734629898828
P 8.826025391489118 3.6393975522674586 13.501943300261319 0.3840945301613385 1.9845075177004143 0.1780563501182159
P 5.424397100109271 0.9059323317518635 3.7079156568221774 1.4767665796303084 -2.4074845838595635 -1.2511800451416129
P 2.517964505949262 8.16048296812987 10.663964801920507 0.3467448858682867 -0.15747826885654814 -0.1363481717461523
P 7.785289735068363 8.043792260287598 10.603505304401528 -2.53422325754041 -0.2645490317948218 1.2057175419334396
P 4.791248662900371 8.991000949821812 7.464246964594319 -0.2955819898412264 0.36015858817103136 1.0439211053175117
P 8.193554148148767 1.938258724585765 5.37215112931925 -0.9287256563895747 -0.7931992092137694 1.1377375743490405
P 6.4874894308205 6.841467014876898 2.6703526072924366 -0.6328796142536842 0.48931281327190573 -0.019480477322114838
Ni 4.192284601110723 5.4715316486859935 12.670388191521377 -0.12548294689687423 -0.6011984811003195 -0.29570026058664556
Ni 1.6151908661459076 1.6296716829788662 3.4015707762841614 -0.42807427817639826 -0.14397894881853268 0.3044265847160499
Ni 3.3169141214127875 3.0429289035002745 13.697713554019183 2.2364851405881288 -0.2400893560905607 -1.4131999106222566
Ni 7.71128079420139 9.249763220634463 3.854929807370135 -0.28733389089982125 1.022855285786148 0.39116274986202954
Ni 5.414127872540991 1.5222854333578992 0.9281498566172934 1.4913226230676122 0.6051608081821772 0.27751253393402525
Ni 7.605786976761029 3.8060336270723503 8.502352696881733 1.5272195940745374 -0.3788343102036637 0.7455396983542774
Ni 1.5349294777802713 8.294734333412752 1.8138981004350432 0.6887915949299558 1.1207014448023602 0.8391571640011225
Ni 8.577560178129755 7.287227559692611 2.137567084391093 0.1611631739073031 -0.28044050621409766 -0.3255150299552329
Ni 6.882998479938496 8.148506840947713 8.221248594383946 -0.8945803779664335 -0.7681101274556256 0.2440156877281604
Ni 4.804579177819629 6.874055810222306 6.967196869370056 1.0836695888600434 -0.558101135690213 -0.2379116317129516
Ni 5.379618815129969 3.086927951699328 10.985502016684876 -0.8515725069463399 -0.22808076166545885 -2.3213636837000795
Ni 7.408955476721491 4.868541530198392 3.182705428620254 -0.060001577364612785 0.6558274812991093 1.6369434783649421
Ni 7.965172835137486 0.9852892488547109 10.8104640995958 -1.0326758714209956 0.3538827824646486 0.09226763648717012
Ni 2.3117728879184027 5.8244980802537345 10.825249189838189 -0.8933588468545066 0.6193504694189979 -0.4360426410938555
Ni 5.4525238372249225 7.430792659825134 11.61960223596108 0.1611734583199482 0.09164491530150669 -1.0164236712281915
Ni 1.0731760257127827 1.7163153916398746 5.742796959170304 0.655175192427091 -0.6651652137602674 1.1243549823945473
Ni 3.998078386890358 6.960226410838163 4.345938962221802 0.2615218149327238 0.3770959873563183 0.3311408607824426
Ni 7.994765279530272 2.7641847752512407 1.8131921490186511 -0.7458616004700703 0.40271111682126126 2.8651502025398337
Ni 3.8923248238565797 2.11124928980102 4.2410954364278135 -1.3948448051538365 -0.3076841724213991 -0.20907593842818187
Ni 0.489707643896084 5.049612038694561 12.085004185953235 0.34141524612525714 0.3127394754571195 2.139522926838767
Ni 5.672361375538474 5.4397128134924975 4.8910401369024115 1.2026486732001287 1.6732489976641958 0.12434369108610842
Ni 8.623414551996069 6.010188349661379 9.978501746871897 -0.7890119106052992 -0.5912089739877754 -1.2451603213100944
Ni 0.2412953073182387 3.747368229473612 10.356874080464252 1.109738003812321 -0.2085581182514989 -3.535130064079925
Ni 8.532800446407126 1.5268588111276933 7.8911713155731835 0.6758445478509845 0.47887362021645274 1.088291403902771
P 6.162631183111737 5.257965111127778 11.699028727776449 -0.10645395528988118 -0.14827731908357045 0.17535309225443993
P 0.7116379895623041 6.923073514351296 0.4022661451981544 -0.4853538286241576 -1.8061665464622443 -0.930073942887353
P 2.1554338705668 1.061376154469014 13.23136167728539 2.2829259485491713 -0.8560801650087063 1.6525341337143475
P 9.18953007284689 0.7065850101075234 2.36368304476265 -0.4485333173616985 -0.5098140185490511 -0.7958412748223068
P 9.503998496819003 5.357234310954485 4.703401775544145 -0.9540762193392214 0.5746438705402426 0.36107621488929426
P 5.979195134389813 1.3901676925923663 12.303001241204864 0.06708496657395543 -0.8075199967118158 0.048015351537014084
P 5.89083524948659 3.5445811340421733 1.870040255126309 0.01058703148722693 -0.4934178365792148 0.5005225659447959
P 3.1301477631181327 3.8578992561005836 11.619154174812437 -0.1913201571066576 0.12345820315736158 0.26607343885914825
Ni 2.5233913335259954 6.16808584057348 2.625127188827324 0.19301657097247404 -0.02841583213853171 0.23353715679433973
Ni 7.600814703972774 3.5496183432287824 11.542646110271667 0.8525361564111898 0.39751106067756053 0.3703941498561105
Ni 4.418318927152921 5.407958914697354 10.26058360599633 2.574885254036146 -0.7591637168956151 -0.7974268741418717
Ni 4.247833051588466 9.208241032201201 13.250464110355495 0.09918004733628726 -0.7739048797605317 0.02222538705710366
Ni 2.8424702417812457 2.9836883549446855 9.62141927531134 -0.25672362221313205 1.1868207050289368 1.4057794497884692
Ni 7.627021179022811 7.008854496577029 4.803574518970808 0.5244574794938387 -0.5526467974438611 -0.2425596720079242
Ni 4.514870074877093 7.8439551326671015 1.8431027817633716 -0.29115300753559537 -0.1711987037664342 0.898546561703033
Ni 0.41873308815791405 7.440969121110051 11.510712244886799 1.855685222017662 0.18106376948597205 0.9287066302261812
Ni 5.67061736941125 8.832314945501127 5.519002938871322 0.5419821186411634 0.0012104753683333993 -0.6607791688774297
Ni 3.357527200269093 1.5241407590251586 1.8942346294902035 0.07798747241907214 -1.3573277820449852 0.16929120233107617
Ni 4.24278656577352 7.599877764510808 9.229660767029708 -0.4904019325710264 0.47882142682227863 0.3223916538349028
Ni 3.581260922483889 0.8134489855531568 9.03766424567905 0.042500592366371964 -0.2729380271894654 -0.634134826817024
Ni 1.0202621376825483 8.192236866925013 4.153114037960711 -1.0735350715292027 -0.13074908039181998 1.513505844032871
Ni 6.023750780289044 6.870818266932939 0.20238448976164355 -0.8390193528716776 0.5814017580893664 1.0968724607035625
Ni 5.429118903932446 0.1975819792719429 10.202201145561848 2.022526677256665 0.8538592460979875 0.8982917653797498
Ni 1.678615174081166 7.324658755029566 8.822830520690097 1.6371424817496256 -1.852468000631945 -0.5014689890184654
Ni 6.367793095397268 2.038195841652686 6.784473265704359 0.017035615326048078 -1.236716561418115 -0.8894409998573392
Ni 8.149415950524668 9.094722931249942 6.325805220221523 0.3256232733983231 -0.4491514105616716 -0.807918517701815
Ni 0.3044988314990932 3.8401901726065937 6.606964054826495 0.2019727517244973 0.03957339141724797 0.5199907019717367
Ni 1.2689685433786542 2.6000441134688126 1.037380299951516 -1.5644234568183444 -0.9504846453332212 1.0611747501916369
Ni 4.391954749421166 4.244725381095806 3.5245946382916227 -1.2583531658512843 -0.1540479030187605 -1.1952672931343933
Ni 7.337219309796912 5.065614222574673 0.8901564976031578 0.24310628854001357 -0.15684500614792343 -0.5058442352680256
Ni 3.236995968295594 5.519176411821212 8.234350904246131 -0.2041705307067645 -0.9686042377520674 -0.2784702698616043
Ni 2.2509553125456434 3.986779453576749 4.911975631731766 -0.7255018058667957 -0.21857822149166226 -0.5286010693485671
P 0.6708523654189434 1.6893946162079423 9.939154927783497 -0.04660278746020361 0.2173546334972063 -2.109467502214283
P 2.4581488064368235 2.4715999175244527 7.675835724991235 -1.4450671916444984 -0.38017694027448723 -1.5238969574592078
P 6.543047157926579 1.8963561943907143 8.909046576784803 -0.1308274990382392 -0.3195603550336948 1.3766673629138615
P 6.576285317255529 5.647407245313837 8.409456540722061 -1.4182037915947512 0.998395352971571 -0.334274778425734
P 2.3790377199848876 3.7945120546786706 2.601936545649417 0.09535784537671965 -0.4539526886050569 0.4062885497598745
P 3.6852240962487626 5.332781118660009 5.861951539498697 -0.8501622568623745 1.8058479867805608 0.5419450947556408
P 2.946424138917783 8.609722248571694 3.3964658477106973 0.9625521180207165 0.49874541943971523 0.2503614274405301
P 0.7371450068357845 7.9805998680607475 6.562023428851306 0.11999364164752883 1.310196889995453 0.1790649938883884
