# total energy = -340895.06432059634 ev
CRYSTAL
PRIMVEC
9.02526110040585 0.00000000000000 0.00000000000000
0.00000000000000 9.02526110040585 0.00000000000000
0.00000000000000 0.00000000000000 13.20938190782273
PRIMCOORD
 96 1
Ni 6.251437439880143 2.0741945599149574 11.562053671390855 0.645152003863134 -0.13538195117814103 -0.18762111098851555
Ni 4.834724134921194 0.12151972723345103 6.251524984914022 -0.8627231242465206 -0.28020422183357546 -1.4894632012613702
Ni 2.726838274854542 1.577525409460125 4.812164591964008 -0.5457091897837635 -0.4190209097248784 0.3281565813431381
Ni 3.4576858783058952 4.426646948647725 5.044914346108663 -0.4298581095496984 -0.24097227291614629 0.021827637398052727
Ni 4.930518257559844 4.470933905477183 2.804813824257326 1.2681344136077644 0.3799062031116037 -0.5115284301369964
Ni 7.342104157836651 6.092683094938192 2.5604278008157033 -0.6276993556043254 0.13671866771169355 -0.3038162048255606
Ni 4.968532657838155 4.48770284083262 11.20438256905717 -0.5966196034803855 1.3250678935700149 1.1179804463267713
Ni 5.52086059426553 7.808583809494961 12.465297302125249 0.49082102238631603 0.4719264994746582 -0.7309934251089862
Ni 1.7509006775860418 6.659225817794422 0.31628305940959156 1.2511085684737293 0.35121989092050476 0.31214400796496566
Ni 2.7819555451536035 1.749059524296209 0.4100816967914677 -0.2480209522328116 -0.8125639868936264 0.10072553744653621
Ni 0.5891735653770908 0.06092412337101452 4.684918336483503 0.13845339101461318 -0.2249512148975416 0.13390176708818877
Ni 8.31291540672954 2.4209089951218923 1.2723623744054495 1.0820564787366527 -0.2909072100733764 1.4931311370312608
Ni 6.893927735941973 0.7339360478424352 4.6975203087315105 -0.7234163840926767 -0.9556314796414831 0.8053633553801292
Ni 0.8261290912524425 7.563845800865577 2.616884419880506 0.7562642838606329 -0.5982519968774858 -0.6232230650005267
Ni 7.653168811206139 3.7101495105435975 3.6134131506330918 0.5052251136267879 0.6434692168440724 0.9570149902525711
Ni 7.600704967707131 3.924679969854011 12.7840532831104 -0.17249685375256743 0.789643116431395 -1.3475035968657114
Ni 8.03081281663002 -0.37424057941605693 7.046214578690326 -2.0420763172538186 0.6921322292674146 -0.8532648070470983
Ni 6.825371851679378 0.6509009369971009 0.4719327144902559 -0.46723732152910497 -0.23237861770986432 -0.3335697819389094
Ni 1.9439961414878633 6.465363206688503 9.232750175173244 -0.44396909502978377 0.17312805957866315 0.2791958351737192
Ni 0.12055492680853377 4.892449705714185 1.2895816702959981 0.3607851660114367 -0.22807253413534267 0.31280503858773223
Ni 6.403946304054622 1.7663248490190033 6.903222852477262 0.6154588476740755 1.0658389884365256 0.3549711304328209
Ni 3.5774149937123716 4.307666929922896 0.38163136583293944 -0.5843495278637807 -0.06680394499842687 -0.2572987779903117
Ni 6.03866690650854 5.658315322717259 4.753409238865282 0.6216294952611617 -0.39266196011537535 0.5713194341526999
Ni 5.332043104184201 2.8176775290808487 9.394023470522999 -0.08131833656451802 -0.2066650149938441 -0.6385000457642551
P 0.3396476556680181 5.6401655223944465 12.35119453456623 -0.8506263409829866 -0.47436441949218944 -0.4684333987197352
P 3.8945446226248372 6.231220854736882 12.527975936278338 -0.26374993293229415 -0.2742518609048825 -0.0594171656160525
P 2.3777501959455187 8.62798727608278 1.1882288892690729 -0.21070627494275324 -0.21038025906190222 1.1939989679449308
P 6.431708007581707 7.655479278079655 5.825232113910801 -0.5028810388746436 0.04650714242260377 -0.27570916217669933
P 4.6919625528693585 0.9566867150762784 12.678906282264624 0.31069004912725845 0.18516647880043596 -0.5423808967414788
P 3.9643820939813357 5.93123922215129 8.28359052795834 -0.06948817669880936 0.05632541406460622 0.1757269306540909
P 4.554561975984978 0.9986361292485461 3.9618107970584275 2.1283010899810186 -0.2543916316458458 -0.8252433821335077
P 0.22150698623708362 5.559578964919366 3.4594313638267464 0.2877000159899884 -0.362369479779421 0.20604512202165803
Ni 1.4231122151672404 1.1920835783381296 2.500152593726743 -0.4793634153686777 0.41278855566192135 -8.124685989663426e-05
Ni 1.7954764427746885 6.445949869794237 4.623957209541468 1.4035960689839053 0.32816275199072514 0.6554829534754969
Ni 6.063107313904947 5.455463551431568 9.236462265114952 -0.57105975273341 1.192315923815553 0.25761836611325956
Ni 8.440577726752501 2.388562458892674 10.178198634972562 0.6944778466814555 0.4126312041484506 0.4677314875567042
Ni 2.1345013554182044 5.3380629534210575 7.083834575053119 0.5324291848454056 -0.9232744034670164 -0.420577712689037
Ni 0.6414641238605857 0.2558905239247101 9.061081583944913 -0.19212516950645622 -0.6635063380006057 0.920370342446344
Ni 1.4546645284086879 1.1969662446606761 11.233046798706724 -0.07810600027480742 -0.34325358488557656 0.19186471675621797
Ni 4.106863892935206 6.850741860981926 1.5126725898780116 -0.14155774097154977 1.247801101367051 0.2292130754976891
Ni 5.601952566369193 7.457970461438969 7.985203659031147 -0.10901605959010258 1.106850654962197 0.17963757856240675
Ni 5.172115475283044 2.907975267633675 4.84720877877328 0.7874083135636052 -0.569020096595562 -0.023621238963365772
Ni 0.7432546300569073 7.420632955752509 7.269466147922138 2.008258597373425 -0.4013582023377927 -1.3205568930735385
Ni 5.17881221911175 4.276493677652884 7.175310110195765 -0.3878797082353836 0.9303462227121333 0.1943574012710846
Ni 8.366904519375518 7.24223061712445 9.237505585312523 -0.79848693997527 -0.06140334280814587 0.20164982116743982
Ni 4.755744073944103 0.466222431713407 10.429665878371063 -0.688444496003182 -1.1975512040725633 0.5455898905970797
Ni 8.25268081331609 6.980588294221257 4.8749091105240385 0.1298569075948538 0.7903851368037419 -0.30018683560308945
Ni 7.265795574182064 5.908576791216142 7.039279567965289 0.018482117964587524 0.4138486214953195 -0.5052220283029945
Ni 2.6592390682817615 5.253180371603033 2.359076930471676 -1.7992297101330947 0.1854367017426871 1.5712787891772808
Ni 2.4046364491338115 5.150969288233641 11.355445586383457 -0.7033833767012017 0.09721778140359386 0.23646204375061858
Ni 1.2958740824218382 3.3562238916181513 3.827801913342278 -0.7937833638520135 0.6750693602478567 -0.7852748121603702
Ni 3.6267741473500936 2.6318293499424374 2.6116398405828503 -0.2033999710893271 -0.46543652087494036 0.35783559646480956
Ni 0.8388763702061669 3.4382544908891797 8.361037197053358 0.7791314182667937 -0.7808882530569003 -1.2488606529798167
Ni 3.734427463237961 2.516784345111565 6.92260099085275 -0.6598589710560054 -0.8995063545131411 0.11519493470730484
Ni 4.101475811984078 6.54592268837991 6.181831917737118 -0.07532946597093478 1.0563349056008324 -0.6145957283428318
Ni 0.7290714320423379 7.6129612724502325 11.239123507089294 0.5773676972293088 -0.15633618483230494 0.1955228823340955
P 0.12288254167837626 5.55738582644177 8.081632257533892 0.18300032438705258 -0.983535405140603 0.10019717574689195
P 8.4207492278419 1.522083229756975 7.864852703126292 0.27182293974841576 2.063281233466208 -0.06510598847071368
P 1.8018302266768562 3.2865308244412472 10.405915000932218 -0.34541511131326963 -0.8227537829424346 -0.6993068926389828
P 4.086412651000103 6.158053061988478 3.94496875708707 -1.0706796043582787 0.7557534056624856 -1.5076627549885326
P 6.86773642786798 3.961809894532305 10.569737932577945 1.4546010992768625 0.3932908519486259 -0.40821919112368404
P 6.3806701553561975 7.655813212744968 10.037307087046479 -0.4294585601184346 0.3407580721572325 1.0780908092206851
P 2.3412339890305027 8.218484098535814 5.860804278501717 0.03867941884806887 0.6103333535220521 -0.2857881436792562
P 6.8041444372789535 4.082974026473504 1.6524675685652974 -0.4467137476544565 0.051522593359324166 -0.5321731029705415
Ni 5.339470894172106 2.7163689718339246 0.49737402335647907 -0.2138543336534317 0.9820914736052248 0.5921170876243415
Ni 1.5020290993157577 1.0236451281021075 6.974118084449291 -0.2003313594663324 0.7321835887623455 -0.5426017545030333
Ni 6.900777909211499 0.8453258218773163 9.295812382928382 -0.7448385585221946 -1.0943885179394444 -1.3366707679162657
Ni 2.813237100558311 1.6190416110936083 9.142583302908175 0.10875920638429011 -0.4861554985898465 -0.02054979912689364
Ni 6.241473551488106 1.9834365330396724 2.647939441228474 -0.2744171828381532 -0.36614283077892423 0.23869736083904053
Ni 3.993587839304369 6.837059564965325 10.373512508083408 1.5368285779192112 0.7911693232679343 -0.11701681840739202
Ni 8.249693451850723 7.291698073896868 0.16013611243544792 -1.0546976271077257 -0.26861754543724065 0.9334906818783859
Ni 7.445894661920361 3.8418461223339873 8.217464244017426 0.852284702522016 -1.3907019866300565 0.057331486731617386
Ni 3.1511158050262935 8.438167982005513 12.302056499828513 -0.5861392727743517 -0.1036681650146279 -0.33824584725834006
Ni 0.1150928387153633 4.886095921812017 10.227245514571912 -0.3233948982884366 -0.3474755933867242 0.5615109327027104
Ni 8.690035947002388 2.4823258977557736 5.694221421973488 -0.12276374819349826 -0.5160237469041886 0.5961316081003734
Ni 3.5563951603201143 2.7702227055615323 11.59952836104793 -0.0005432740979797095 -1.120225019386574 -0.46665650932497055
Ni 1.0437985364167963 3.1604750009162768 12.588567930036286 -0.08123631837367298 1.2135390948603875 0.26095797200945375
Ni 3.1412421692465045 8.310063424182545 7.920860766708229 0.3352217157200356 -0.07256810117571373 0.24383313940370913
Ni 5.51195266143678 7.799775154539684 3.492190354493932 0.2982312545386154 0.6320290933279309 0.6875896042020545
Ni 3.077000359849301 8.517689558656084 3.3886688031947183 -0.7727915920916949 -1.2345257244143837 0.9678452480988557
Ni 3.3320993683646076 3.95563661585463 8.899160274839225 -0.3995910831350409 0.9688767746871636 0.6031072680872581
Ni 7.355362266575693 6.192403206209574 11.401123335967636 -0.5538850407263365 -0.6681636342669589 -0.12763393180160598
Ni 0.5305788619281636 9.160820648264867 0.20519563162573698 0.06557701456986124 0.8513431645443531 -0.09339763632655529
Ni 4.4648238036280805 0.34786425348695793 1.6736417339244964 0.8849351415671856 0.06144730867220385 -0.6395022617765245
Ni 5.693369437313878 5.607620430418286 0.3543182177887197 1.916707013116673 -0.6790422288526757 0.06990880917599573
Ni 7.764612736808368 9.024999492094803 11.285527790202059 0.3757947520463915 -0.6537472017313127 0.5922240455158511
Ni 0.19773896080191433 4.906628391098142 5.759713230050307 -0.7543580679768556 -0.6647011296396552 -0.31430553439265874
Ni 7.889766034210872 8.696182149896389 2.5777319341617635 -0.5204941239707165 0.6938322426776568 -0.025271887192911315
P 8.490947709647386 1.6172094830650003 3.541686692102269 0.14180559531629772 0.2591947094614439 -0.4104565650946351
P 1.8249619711956864 3.3966299861210003 1.572748338693907 -0.21165681178148066 -0.6936352961755022 -0.5196759989447953
P 4.823000320590347 0.9514881646108684 8.28331254991262 -0.10657094048371968 0.43289149705938346 -0.7514079842095963
P 8.347400929869005 1.7908645342888818 12.407982380717979 0.34904088099131503 -0.7566949436401483 -0.28327463322878316
P 6.293188298305467 7.737094715334348 1.355652900143442 0.13129492559296096 -0.7398339062187517 0.26530056524886564
P 1.8281117873630965 3.273525423016497 5.962318611704564 -0.27014323805314766 -0.20589934047241315 1.3346365110950562
P 6.8614187450107105 3.874075330167285 5.981129061149022 1.1819633769366356 0.07417504065151742 -1.026042425264878
P 2.5208727884463404 8.56692235863666 10.029975867353679 -0.6313901741923512 -0.08369120767206877 1.3108232107255426
