# total energy = -340891.47329630953 ev
CRYSTAL
PRIMVEC
9.07476242330167 0.00000000000000 0.00000000000000
0.00000000000000 9.07476242330167 0.00000000000000
0.00000000000000 0.00000000000000 13.28183209754303
PRIMCOORD
 96 1
Ni 6.4384623758365445 2.101923732476364 11.322389790392164 0.5598697975548617 -1.4494198121862394 1.3176461471846468
Ni 4.770738808403362 0.3539384274269369 5.905899951740142 -0.6399943709215945 -1.405614899186147 0.12666771123359474
Ni 2.7534553864868596 1.794743019229731 4.769877613434762 -0.5479655899181078 -1.6646532855753846 0.06804475938406346
Ni 3.6387075506795425 4.432340911890305 4.855970793483274 -1.1989745667826512 0.34751595970635635 -0.4931427285409572
Ni 4.974839293532757 4.791166098965198 2.536085783516719 0.3550842589719175 -0.5616428302948844 0.17232561828202578
Ni 7.32758038888722 6.056178927498947 2.746390683820316 -0.26113383546568575 0.24262343536632408 -0.624037333371706
Ni 5.09650463540861 4.330585599109375 11.299160213146411 0.4801540295907731 1.2495283684708027 0.8750032271654544
Ni 5.714804508860488 8.029340853763895 12.75939114919875 -0.6143635577273677 -0.07400791894603383 -1.2675705706844944
Ni 1.9132957175415186 6.401954605987469 0.3420631931180877 0.026669281761070203 0.8126390631059358 -0.10824421442108455
Ni 2.8671893858700224 1.8263141182366742 0.24957865778627858 0.2222564416741979 0.4476210899600742 0.10013212683691142
Ni 0.6898117249909469 0.03916486033175243 4.748135389775452 -0.43949434708788176 0.12431155229659237 -0.8077490820034863
Ni 8.425227371205088 2.5520501058429668 1.4562861367599211 1.0471092732375065 -1.172029405652375 0.831740302711761
Ni 7.105312229077773 0.7494683066988358 4.779241860938431 -1.3464802978075199 -0.8076068999986672 0.5409084259610104
Ni 0.8376377924250681 7.576319631135085 2.5213701485211284 -0.10237618567608174 -1.0657443718401902 0.2939218285299841
Ni 7.834641822664736 3.9356247074510815 3.946165044184788 -0.23674872175310196 -0.35300089408032753 -0.35623662740880585
Ni 7.61265498049519 3.7512799804527917 12.565715751318328 1.0056672040426358 0.638535526987881 0.19809732792949108
Ni 8.057572440142337 8.739822165477495 7.101715900668331 -1.0854673041904146 -0.16094694413143892 -0.6132075897460536
Ni 6.868433701518634 0.7965164132816177 0.7205379636019299 0.5868378415032731 -0.36218847411686655 -0.9316916809964341
Ni 1.841704915568027 6.443344598103212 9.390029811627942 1.0010762422378436 -0.6440009209778264 -1.7513804518603
Ni 9.038953564317932 4.776020320223436 1.1141703100188844 1.166794896726313 0.9856506517113929 1.0337971295096324
Ni 6.477901293998137 1.7081697842408718 7.177648069058874 0.06229937225985399 0.7141776391032282 -0.9976525612682754
Ni 3.577235108979906 4.592120256591442 0.48604700607691725 0.23955456663301325 -1.2657890533040395 0.23517443528744658
Ni 6.01903592426945 5.60549899361512 4.822872411934545 -0.21003213169386406 -0.2613549503375563 0.123936942565993
Ni 5.342893514148914 2.6373800983587152 9.367875593747618 -0.8562274892198478 0.9481595967444703 -1.3415568923639734
P 0.23319417395269523 5.566713458359105 12.42556602554847 -0.46192285129472704 -0.2784268182181785 -0.602129220444705
P 3.9778768020116817 6.228172902629329 12.476369268885799 1.7152263705372461 0.8405941535579653 0.3100447022337757
P 2.4666112161762888 8.442905008705957 1.1509394330301905 0.16477171719416786 0.5616258610140198 1.0831165445700508
P 6.362905902616709 7.789240785489761 5.876679216240758 -0.2862450287110167 -0.04351643522539602 0.536288924911128
P 4.687232843165679 1.194193381379341 12.662713166079902 1.4920088505013593 -0.5920252992414836 -1.0932826864697751
P 3.9254428238391843 6.278310965869733 8.384315619077176 0.5965676671965274 -0.7987242527970567 -0.5623843364465992
P 4.961454018731019 1.03965924944797 3.702044856088845 -1.3212505767064535 -0.7681875176607802 0.42347586017243843
P 0.17208290780364124 5.73556756563769 3.6785630004434386 1.5108200696705916 -1.0713025826542584 -0.2728079293695043
Ni 1.6038463136505234 1.32889008231641 2.120298311743182 -0.5120663049183375 -0.2625016623474899 2.4332516655213383
Ni 1.9198839951727462 6.667627355204853 4.877633159231901 0.12511090826943616 -1.3954441293007322 -1.7205961194895916
Ni 5.961819546218638 5.747764046541781 9.340966200276709 -0.37659693623271273 -0.055032663395111675 -0.5763940204621298
Ni 8.996701469757332 2.0714234554535595 10.35253724459496 -0.4530702860001036 0.7710805229378591 -0.32111792932880184
Ni 2.4368822939725674 5.152060331907749 7.075351900428328 -0.45327494581174194 0.6456903928651073 0.10092454083121974
Ni 0.3457529915820783 8.983288970667862 9.204243104856095 1.7100797933393002 0.2084601592210539 0.951473748719368
Ni 1.3704978687340112 0.7918864694146036 11.99587238760125 -0.6195597572163266 1.0874483391761853 -2.0870541675160896
Ni 4.213602834723485 7.048222897703045 1.6850391219072132 0.004548024381998619 -0.18566475859309312 -0.9425617909417187
Ni 5.607840282360102 8.006690246370582 8.140275288891914 -0.39240279291671776 -0.05922741820274961 -0.5761577360816077
Ni 4.954520900121849 2.6329969880338076 5.259313135858098 1.8508862579671221 0.13456716858632953 -0.910363094721987
Ni 0.8479802993345862 7.360558076093668 6.758526529514382 -0.4186558130759758 -0.5068924740268819 1.0415636608289287
Ni 4.837129771419975 4.461180507361437 7.008278515265889 0.5530962262764539 0.6795284244604749 1.2813331716862255
Ni 8.235192768070737 7.110548367084962 9.191094681357631 -0.6255751101724709 -1.336424970454047 -0.10632694279371364
Ni 4.801112038750082 0.4798026619473749 10.344130384543211 -0.27266986112974334 -0.32129559255724666 0.6124354874667194
Ni 8.168093973573082 7.16098589749042 4.808475301105424 0.08334847962066935 1.171733471678511 0.5208520215307675
Ni 7.212684819894145 6.08081690789672 6.949944126465534 -0.08547298216283988 -0.1879720665700311 0.823686064948717
Ni 2.2437168977489974 5.299797466668611 2.6121776677286253 0.1892506761721386 1.1185067511438864 -0.5265305599727835
Ni 2.4642790021938845 5.136714908389283 11.47367061993952 -0.6674552953460248 0.40169835928603076 0.017094493588441527
Ni 1.273016769127059 3.5138751166641606 3.6514412575282185 -1.164847800302271 -1.0904156493346253 0.9853547177375289
Ni 3.6938185838123876 2.7166753737604608 2.768385185879278 0.3103288091330978 0.24841124569269477 -0.5983882653450339
Ni 0.9547466960107838 3.401139341164517 7.9996073941788834 -0.2439840631592766 -0.46092834859194165 0.5324597809730249
Ni 3.4908524440051734 2.45885229417257 7.10207435379014 -0.6088464845638805 0.6044169880376171 0.32293364238130184
Ni 4.0952044073755145 6.777214188090122 6.0111045817767605 0.777056795125952 0.8965423867888107 0.5153748004662801
Ni 0.7834569224564115 7.304158426674826 11.188880975876483 -1.0886930102165637 -0.8593822327987457 1.921778771212626
P 0.2287448178609722 5.60283101341735 7.966296663185843 -0.24316388125082636 0.02084187644601572 0.7970406944470467
P 8.715311231755807 1.58941744115238 8.076323622056119 -1.447136158358385 0.8986928574729104 -0.25078000303518744
P 1.759886856169751 3.361518927751377 10.30207974971183 0.4935409924206403 -1.516361568314111 -1.3283360227983252
P 3.907456644410681 6.278102246330452 3.738795829574996 0.06488538781947535 0.14660533069778622 0.5352810524719039
P 7.098615054295617 3.9011859834696643 10.348047959547896 -0.6850059026352784 1.0322331274566223 0.612526761628945
P 6.528111955339159 7.958966069975781 10.21703651969353 -0.5227669791652932 -0.920502240038518 1.533674605671262
P 2.6300204659084048 8.555622634680445 5.596818075733533 -0.1859655776629636 1.0337547063074712 1.2734470840699292
P 6.959553392558795 4.157493577707121 1.712732574864813 -0.6145103677178771 -0.2285178492028774 -0.22705052062873154
Ni 5.572984119300122 2.991177866965702 0.30272228239233273 -0.9494834577622163 0.2805721466959555 0.5067268949832952
Ni 1.2599581857781106 0.6336743362105924 7.063729851995389 0.7382339087214834 1.759118958155138 -0.8780466419774685
Ni 7.0313710635967235 0.7838916035838714 9.263838885654716 0.29572622872857457 -0.4513319631527582 0.6508685946319371
Ni 2.6257099536841166 1.4758286379704566 9.163879468387861 -0.5211605539101218 -0.5537125197042141 0.6814035299960006
Ni 6.329256682979529 2.21770862820203 2.7098656719223433 0.5172437353542189 0.67039303781811 -0.19018861460537567
Ni 4.2541125748692155 7.2047534774014546 10.456786302132173 -0.23042920729297733 -0.5731518593757483 -0.018580848325980902
Ni 8.077772861639737 7.135576562273564 0.36695798929680223 1.5757843903571185 -0.2199131382530019 -0.6570870647378232
Ni 7.212285530340737 3.892083996604484 8.238653882517776 1.1717761519909884 -0.07394004182257588 -1.0199890199819466
Ni 3.148779268648251 8.536384138016254 12.353989743195102 1.5815066375528763 -1.1777447108695975 0.388650267852821
Ni 0.1749405505392798 4.8097239884360805 10.213343998800767 -1.0797391434573855 0.24736789202984497 -0.03632788789675679
Ni 8.542473303705721 2.4471639999728163 5.8110541631856805 0.9279718089426856 0.1397199164318626 0.8545411026563605
Ni 3.594749400754382 2.5925144721758095 11.281309247680312 -0.45992664680030465 -0.5222311612664812 0.16170027735769574
Ni 1.0509754783820482 3.2818334375588014 12.242064343993624 -0.5265840389185383 0.11656713246448311 2.3100189481112214
Ni 2.8227048997153696 8.217070467203571 7.961302821339474 1.435409099729444 -0.013927665824685692 0.3089301290133583
Ni 5.489496303587596 7.861249026541815 3.8520497740178117 0.22590483706006256 0.7476557162560156 -0.7898084383646655
Ni 2.944569886367926 8.439338627013019 3.3957924910538844 0.920162854421228 0.6243237542638732 -0.0765885351890165
Ni 3.410077982303304 4.260256189134148 9.3816356562438 0.9474008642015747 0.18715342732347767 -1.4229402778384719
Ni 7.144569651987816 5.9901781792731645 11.50407198205023 0.8094352114566576 0.6069333267015676 -0.5796022429867825
Ni 0.4950337434573645 9.00776360533924 0.6391763647612995 -1.4638138761243822 0.01596243686652735 -0.2140703063189797
Ni 4.721544520471013 0.4290357176603545 1.4309448622623961 -1.3810626637680794 -0.5415910538503318 1.2490455152971134
Ni 6.054491021659541 5.699123319126657 0.37542202035278854 -0.805158952678807 -0.3910645337212684 -0.011601074574038084
Ni 8.261001392841 8.80065937379671 11.701427196155807 -2.1970328481297776 0.3402536217169882 -0.47145855869930414
Ni 0.12133411304177576 4.977307628953823 5.927840912699898 0.14583579952161338 -0.6668462010071161 -1.0190809063453805
Ni 7.9340558467006845 8.834136172944918 2.670192624886254 0.12191194171616423 0.2848612609896126 0.4605336842566843
P 8.683849029899793 1.6830599161890716 3.6760792379259914 0.5844883674344902 0.6729808531499443 -0.9154173693164428
P 1.8998559941643172 3.3966019598757926 1.481614706589838 -0.33403952248647634 0.3027911059951559 -0.6944228250738042
P 4.5994254404662875 0.9381671047817853 8.115000260161205 -0.006863559889052696 -0.15031337567699274 0.7364626757536736
P 8.409582480521566 1.614236916801702 12.732243089472053 0.6015034139352479 0.4513067663417775 -1.0925254965887765
P 6.475650752878929 7.673210871174503 1.5449955708595118 -2.004670622911851 1.116647843558277 0.2924660699200641
P 1.8297353037283726 3.3695047188195315 5.916870432220019 -0.21854942513625583 0.16190236606617278 -0.3403695784695622
P 6.649378007661603 3.8205113441561465 6.024333770662165 1.1048480227098716 0.1786353625501375 -0.4637069397783433
P 2.243099813893731 8.465564690861845 10.293739135426897 1.3688676643637845 1.6041737401330889 -0.7976114793488521
