# total energy = -340886.15762417344 ev
CRYSTAL
PRIMVEC
9.13360262081509 0.00000000000000 0.00000000000000
0.00000000000000 9.13360262081509 0.00000000000000
0.00000000000000 0.00000000000000 13.36795067426889
PRIMCOORD
 96 1
Ni 6.818444205048828 1.9048127639241297 11.202569665410739 0.24629625623222098 0.9124793697340414 1.182598182307157
Ni 4.7121624411408165 0.656496847345246 5.626690860919856 -0.1857426630188801 0.10408134129264655 0.07219194878321761
Ni 2.6112603689995346 1.87067135845039 4.564166115941849 0.7737709252858287 -1.035981795865777 -0.5999373549997087
Ni 3.5328865111417755 4.1105959915108246 4.149893315494443 -0.8696167660425604 0.23424600993590622 0.3503688557741192
Ni 4.134644766420497 3.1382874900925586 2.182330876908545 -0.6136066249566853 -1.8546817204538122 1.1872174262467232
Ni 5.407384848964423 4.994600825695245 2.7411913421689382 0.5677139761896287 -0.05604413537876155 -0.4238052184873991
Ni 5.59623121054148 3.005694985206984 0.27366464616542957 0.6973916778941409 0.30624255487886615 -0.20225043086591618
Ni 5.797417068853428 8.25129633626976 12.509339723480094 0.059316378372130094 -0.2668558255511275 -0.7857008439541953
Ni 2.1466431525619583 6.512961741839973 0.20729989170523908 1.0747154649905493 0.5936859747733583 0.2875735177144531
Ni 0.47337725442309364 0.371540328631078 0.3319982241052725 1.045289189309632 0.2920935170719937 0.018755426230632213
Ni 8.483910920166284 -0.17599994991338294 6.82911133919885 -1.7632656333336598 2.0327882070836734 1.4563340228075692
Ni 8.982276797177821 2.8612196637025398 1.297365187760017 -0.7829777885960774 -0.9961278970936329 -0.18082414267134017
Ni 7.315339572086778 0.6480911931297612 4.551105064623645 -0.32542709822711696 0.9594459682915668 0.634568829030649
Ni 1.0459253361208716 7.489407765109391 2.4284348780720997 0.5828528887135962 0.15635958187107266 -0.6485764561636507
Ni 7.7651877535722305 4.239142310568451 3.6962245481583564 0.4262379962986078 -0.2102501612419411 -0.7083420062580574
Ni 7.541350561505634 4.046213228754165 12.67113235498406 1.4548317272304299 -0.40474460231152226 -0.259950613790862
Ni 8.648260960319966 7.491197951164194 9.014917551790315 -0.31333648561117006 0.21366227224728365 0.39226163935316316
Ni 7.027019147637998 1.0755364748436815 0.3472632136633948 1.8811013480979217 -0.6013149520735257 -0.8593914887701263
Ni 2.285921454346082 6.958434927813944 9.058898587043846 -1.1849846802614623 -0.20999022271233514 0.3337973245686832
Ni 0.05183227980816611 5.226192446131879 1.3470218434954584 0.1831093391610911 0.7396870962282421 -0.05218645219556819
Ni 6.620327237116541 1.8735301759766823 6.660314148075352 0.749979993513818 0.6764377013502931 0.8281063055035996
Ni 4.020785279894109 4.533646183788157 0.4946393672648054 -1.4472870821139527 1.852718940300487 -1.5987122027978855
Ni 6.40999864288185 5.936083419282083 4.830910231629094 -0.28962063005146893 -0.5913089899007493 0.37928579591878553
Ni 5.542507361692754 3.083403673749139 9.145709823658533 0.8782147921242165 -0.46640222722231933 0.25146957290304434
P 0.6248626157084625 6.0795905789405635 12.183482933575073 -2.4536631392981554 -2.692587785656653 0.47508664237019466
P 4.234210165315424 6.252462270059202 12.58933363932282 -0.1295116084402931 1.2302669491380296 -0.3728433827275514
P 2.6255635902333165 8.555326556709668 1.2456388577387676 0.005915594153486586 0.4939078888417559 0.047428882905924764
P 6.345953823411047 8.34831346011729 6.006166463246918 1.7734780550902873 -0.265529136319904 -0.03628803579775686
P 5.036560594755266 1.3538556047515986 12.523095841934882 -0.7657421414440813 -1.0294151983918527 -1.1296288291989771
P 4.220491494630148 6.332637031227871 8.222238693847569 0.49465016632441905 0.4220224155553636 -0.7631538118916147
P 4.743171021018652 1.5980059283788146 3.5714485801385996 0.3084429049642946 -0.2933227614934045 -0.024798547100918583
P 0.20436526527968732 6.087975225870711 3.7332275112390843 -0.22451746979423268 -1.7536119122939802 0.710754215243976
Ni 0.8578580708217464 0.19256099764077317 4.346709658456301 -0.19873650417538677 -0.4094800601139787 1.502667101546154
Ni 2.4037175234725723 6.070055098118042 5.058312268681352 -0.49605553131237795 0.8089490158488585 -2.103497143563461
Ni 6.251274901757546 5.5304510066297965 9.233175939559597 0.22441179745430384 0.6119860586341267 -0.8430235889350643
Ni 8.981326902536496 2.709574464376563 10.192874589614286 0.164398135904833 -0.8924782440217661 0.06086161137206293
Ni 2.3687906281992763 5.374348609371454 7.185567523597749 1.5402771985894441 -0.2491805197585515 0.14080286508339623
Ni 1.0954020598906007 0.3013230207121333 8.747745983514474 -0.7993685712492749 -1.34892824512738 2.1952145639741163
Ni 1.7128427103534878 1.3786442014492253 11.641185342762535 -0.52031723207322 0.6737249304048204 -0.4991578243867856
Ni 4.328030528350804 7.180911213134798 1.604367482394989 0.2790071162016808 -0.19580647501278536 -0.06266421179844048
Ni 5.796348437381939 8.236271560452666 8.271325412798216 -0.30781041358661826 -1.0780980083095366 -0.1828368022259948
Ni 5.649023431953522 3.329517721875246 4.752399612803206 0.8625372334879596 -0.9949207641594092 -0.16878700900114804
Ni 1.177796286423133 7.7420888733038815 6.511915944374286 0.3810904532276921 -1.9158053272380102 0.705945481001423
Ni 4.477995144849823 4.951901234847268 6.127761197578472 0.8495408212282918 1.554817301187148 0.38186358394829073
Ni 1.3885176255576022 7.671787536243589 11.226177287328333 -0.3703285867254977 1.8440635786183337 -0.19903680902462495
Ni 4.94803772106573 0.5005908225367928 10.327931340405913 -0.7038556883519298 -0.29951526345736157 0.27550295970316424
Ni 8.292178340255973 7.540966950208176 5.118347436733489 0.1678308157354658 -0.8130635522378642 -2.1733786990459474
Ni 7.35257726874714 6.491561711603223 7.113273234511141 -0.3940670679930181 0.2719887759023187 0.4054701676236372
Ni 2.4606107323264843 5.326990881340063 2.3108908963696537 0.4829241361367425 0.9851639418829615 1.0203024374573075
Ni 2.441530637079122 5.538589046297292 11.055562509343073 -0.05992624404198712 -1.0549058864637897 1.3516857532678592
Ni 1.0837932513413437 3.6362149541927162 3.5113997116829814 -0.4549299649166617 -0.20538563406078825 0.31322181441017666
Ni 1.5888357916491103 1.0382165757624349 2.27597404805891 0.41746204987819074 1.364198026802257 0.004437981166695582
Ni 1.3929474226830072 3.503741186137307 8.17200205436478 -0.8416645038040086 -0.5449741113899517 -0.6848698912780463
Ni 4.1321238921800605 2.938645210572762 6.881085189842982 -0.8228476282078216 -1.3725942212857523 0.27177383167803515
Ni 4.499367774279611 7.260163480469104 6.199266343424596 -0.17731458685618495 0.3024242095740405 -1.2181390555262441
Ni 8.649183454154329 7.474675264566549 0.09152417541202652 -0.8162789738513683 -0.806974922841623 0.7767500625188107
P 0.4384320919451568 5.7605812506951635 7.765535743820639 -1.1845589055779535 1.3967219675718914 1.641379916869741
P 8.796919471687165 1.7424629826786182 7.890606727195346 -0.24133711245473274 0.4418348222956004 0.5018397420943229
P 1.959221632946887 3.3907037238197573 10.163799593347687 0.7956425285479394 0.5807569254165159 2.0325411240698736
P 4.2374251933322125 6.401166449438001 3.8461599371299493 -0.3968713702110326 0.13948080383786302 0.4443023099994864
P 7.334081724048284 4.163780957822644 10.532594361121244 -0.8100304218384953 -0.42463568480849456 -1.4168074254678569
P 6.866961900574912 8.322547567971379 10.45655803516396 -0.5751236383901386 -0.9745861663671151 -0.7504399638693721
P 2.632103249494739 8.966210790696199 5.690682705497202 0.8163427372097684 -0.39987004782804036 -1.7675863721962009
P 7.054264683359818 4.335529215855871 1.3986751046981443 0.5951630735395169 0.01029161173399518 1.6199587708814875
Ni 3.1827955341999776 1.957276175652637 0.38635411823457133 -1.0359995364775898 -0.18604425341969896 -1.0304744928943026
Ni 1.8493169962252418 1.3043971481865102 6.949970818543608 -0.2291446841535989 1.3270216748622758 -1.7145262591464279
Ni 7.098781861069558 0.8880236192054061 9.067694246078412 1.0426409530535077 0.6171496051129371 -0.4755684671026197
Ni 3.0431884227323183 1.8644148408609005 8.876773643414388 0.5478784295209403 -0.6032273386048902 1.8889383276438372
Ni 6.666040916730256 2.1400578252889333 2.4591411357131285 -0.5268162095340024 0.6155804608536044 0.5980339673294088
Ni 4.508245635735062 6.890453525743039 10.394517128042256 0.20930450949922014 1.449023605189085 0.5922808668957155
Ni 7.583511269816705 6.33760571089018 11.447056105603346 0.060455119962263625 0.5396354727858577 -0.23482965035351813
Ni 8.110255249237795 3.989018611023679 8.010890789593919 -1.381619564712814 -0.4414185606937881 -0.04636161798367499
Ni 3.3671116290261054 8.826758950467985 12.540393971369532 0.19200252788566288 -0.2004735414711515 -0.11168023668582702
Ni 0.009271519715460962 5.221168964855647 9.891187138169569 1.1537172376067486 0.29238816549427704 0.5041578487045382
Ni 9.204935754545083 2.7331848263748557 6.031739636383869 -0.516790449866884 -0.5007771051577633 -1.4030422533629643
Ni 3.8642718705313475 2.9519802699605786 11.246924264999176 -0.3118951251789532 -0.6922307025184917 0.7004703168194647
Ni 1.2732789650808305 3.859851207008263 12.702654243312303 -0.5055243900347616 0.10037226787217553 -1.5213867894428446
Ni 3.3016054331840348 8.561071592569213 7.748932681522574 0.6396858385422403 1.4799568044328317 0.6196011519772232
Ni 5.861114811436055 7.9748039268259285 3.756327304867665 -0.6847174248605821 0.8507793216210832 -0.4184074445105955
Ni 3.472084120494722 8.862644873984927 3.485117771005965 -0.30801173096414697 -0.3784219052565934 -0.06332447109025868
Ni 3.84400440698233 4.63874654568926 9.487421633831577 -0.5015486932164652 -0.5394094728179807 -1.4377868559330014
Ni 5.3984521858950485 4.7949859469824085 11.410494295514695 0.1263874609890146 -0.5533214549133826 0.716366933445063
Ni 8.482011130883636 9.0228756594921 2.5821798925715416 -1.8655567154951032 -0.6521045239215673 -1.5608424243353054
Ni 4.99990744864341 0.560315448110036 1.2875840130350764 -1.7726509312033019 -0.35251546980347676 1.2801612628653114
Ni 6.268007661208561 6.00409222215995 0.231115759755741 -0.2315792617370205 0.5541058984878908 0.22979517325340426
Ni 8.607990907689224 9.012216745584166 11.477147671808211 -0.5566703167809575 0.9801266365693702 -0.16175581318597948
Ni 8.85452510152207 5.094175358192492 5.874278159100248 0.4644870124774775 0.6023827312164077 -1.6690856103151257
Ni 7.371712165608425 6.554081219486516 2.5603505830257314 0.6110118676463155 0.12347183000411639 -0.4501335719692829
P 8.653421445631006 1.8825359078646189 3.259427371028555 1.086332737514503 0.9919346849478917 1.4821918644109375
P 1.8968573963030415 3.56909211073993 1.3009492133105507 1.3631338472038006 -0.5830914870869636 1.182274737529467
P 4.937415341567078 1.2617432253501366 8.045941901858772 0.9710786674344889 -0.8116119073930022 0.051668374908569084
P 8.715018459679936 1.9744930160266336 12.597488119474493 0.43033710606864595 0.12264419189649846 -1.4638023061601564
P 6.574951500788681 8.186612164636529 1.2120637356088944 1.0951513642473978 -1.1943504377470786 1.0879371058871459
P 2.136988934909272 3.460603182377951 5.829963747362022 0.15649636455925306 1.4094586984122692 0.6062992926619946
P 6.5846696536576115 4.3964229425261285 6.456051179141653 0.37529621514341815 -0.3919381945754734 0.11631156481025129
P 2.7517899743015564 8.999868115246954 10.314188922354605 0.6439135034703426 0.5277477202093362 -1.4311865770076642
