# total energy = -340877.7972436294 ev
CRYSTAL
PRIMVEC
9.12000004099051 0.00000000000000 0.00000000000000
0.00000000000000 9.12000004099051 0.00000000000000
0.00000000000000 0.00000000000000 13.34804192372030
PRIMCOORD
 96 1
Ni 8.00126768232752 5.768244846331328 9.101829132639924 0.2948283995046535 -0.6424711145968612 0.4257350885202604
Ni 2.10062779860516 1.5329990097908173 9.271629849293841 -0.49959696880673315 1.3761372014420044 0.6579337290088346
Ni 3.918681522778707 0.18411364437186803 9.177085547156926 1.031792697485094 0.8740272364054301 0.4130469515296306
Ni 7.259984976935189 2.0869204388752762 6.5536346068544855 -0.1345406862237683 0.48132825240453236 -1.3196649773868885
Ni 3.0081407407217666 8.870814065192292 5.34885435859581 -0.8578832796557161 0.3046716108473205 0.44713360880069447
Ni 3.63017032846409 1.4563910113004497 11.321568688897873 -0.015560059221786106 -0.05391577618184908 -0.763144298809918
Ni 8.22041215800907 6.7015035479405896 5.517786851266837 0.014903913695025946 -0.029495181245639525 0.2105442954435922
Ni 5.605516689538038 2.3644055534071717 2.686186507066177 1.6509174240465312 -0.7725252258041856 -1.078376458781904
Ni 4.2138138369628475 6.96425986276273 1.6997399665050306 0.3159703236895913 0.25237742942929436 2.025406312797305
Ni 3.1595327377384455 4.963979422180132 1.0463129553814223 0.6121189846675652 0.30680074137518126 -0.8499676243530653
Ni 7.0868782603464195 3.234015776270687 10.340034180239932 -0.0457034155743858 0.3414394144949733 -0.8550244700506823
Ni 1.0337610996287683 7.5174881718608475 4.232249916599548 0.32319126691806277 2.6304619628601857 -0.4319671854729012
Ni 4.157607278070451 1.9943250806999546 7.1627192668519015 0.681911837090987 0.17651677354523793 0.25054063333087173
Ni 8.399994074470241 1.336873413655656 2.8387814320591502 -1.722610835926775 -0.18891386165801013 1.0487231546918454
Ni 4.053484240122293 5.44444837271204 10.478239569516465 -0.30891547372533895 0.34265760317279054 -1.3600752628831352
Ni 2.846680263903497 8.188045278646891 11.548979532416531 0.48726518671425756 0.2779822744815922 0.4365350073492417
Ni 0.445786503215359 3.309346974786215 5.715191071376801 -0.2466515826891107 -0.8331464390306684 -0.044345873105226856
Ni 5.245057816641218 1.6428676476257527 0.011254079778227807 1.0847329971275512 0.09489504680768818 0.33416139277632123
Ni 6.250428356829449 4.860430944220652 2.2798184670740396 -1.1761873936848066 -0.25899570607676037 0.6644759010027266
Ni 7.120649619680924 3.9435244022891545 12.483061770009565 -0.7404923657383571 0.635612182693499 1.7958381679530426
Ni 5.875413964219459 8.889765424818838 2.3850951849994635 -0.1887778503007781 0.07616018940234626 -0.6792324904866109
Ni 7.3858044944557975 1.4683929310639408 12.078095473989805 -0.03924069066817758 -0.29757819433564875 -0.2668303716298308
Ni 9.134774219990708 1.200620616340645 7.8615556690806745 0.29032099855260324 0.014169349521846565 0.653095684190243
Ni 0.4913509343174692 3.444468892123511 9.519943732400582 0.03679094357610438 -0.6545149331352728 0.0947441230521207
P 0.3078227939340632 4.144027598338051 13.081494270216892 -0.23961653021920026 -0.1371272160040219 0.41153514287079446
P 2.989672741085696 6.965153622745118 13.245301322988919 -0.11158767697202071 -1.1278686519747607 0.4530947114801358
P 2.5842796290743473 0.8238889277644962 13.055639070726391 -0.8773832973618567 -0.6546080070697112 0.8472309421481925
P -0.09968251003566268 6.895212344123376 10.871913481758751 -0.04087051296211671 0.24536808799099677 0.10135340083852222
P 7.178844338534142 0.8328839835872403 0.8456291833360842 -0.23575396194000042 1.44719760772394 0.37142439089283774
P 5.165531418208361 5.867269804379948 3.948123618198523 -0.8947320730529493 -1.9281216827115184 1.1336001551418993
P 1.4754791709242998 7.175141618607108 6.3989311379030624 0.5552502965049793 1.7684191525101416 -0.8577608951452389
P 6.132625319150868 5.368050134217539 10.805359371070262 1.340382155329582 -0.3086023133602943 0.5640766365473576
Ni 7.738429287506996 3.14739401797765 1.405856180296286 0.47281815805099214 -1.080401716742049 -0.010090294356466493
Ni 8.377066394922052 8.268757277056386 1.2375730316124631 -0.027514917590817128 -1.2915880166450144 0.14459292825344774
Ni 1.1540356572586454 3.5328416903820425 1.5640434891790567 -0.14105560452415064 -0.10315008772762879 0.9984889411266417
Ni 5.175736698007256 7.868425764945293 4.64391758848725 0.030061852382386935 1.7918506440602044 0.5278667622857038
Ni 0.7373136814705425 5.492383091767442 7.26017376093147 -3.1210037634431864 -1.9831679729533844 1.706702649336951
Ni 6.315080035555427 1.0004275002856382 4.486957831580289 0.5267493608518089 0.018150188546465516 0.6034571952275091
Ni 0.7517643211857792 6.572482910483061 12.989126000037094 0.15046892741825055 0.018973455778709257 -0.34464146637203874
Ni 8.806609266457507 4.709221347200378 11.151354836252098 0.6642095347152175 1.6298048104376317 1.0668041805632724
Ni 6.408550913713496 1.7242727660215886 8.741672131737156 0.4287700186918422 -0.7522009124245368 -0.47437598945641524
Ni 3.0332116202277213 2.8793298632601054 13.426394423420309 -0.7030733016599504 -0.485128599987229 0.11411944225493895
Ni 2.5982788287984797 4.89176726360314 12.087078673812782 -1.6944842528938884 0.044490883323523384 1.1190027169436987
Ni 1.6483761275172029 5.6631550884022195 9.819540286496753 -0.6869982504749588 1.0043109471250575 -0.2892272512677922
Ni 5.654919728564504 6.305868835736942 8.826472626066082 -1.0757238516504053 -0.2614174281443756 0.11316864830589542
Ni 3.354463613897149 6.468514912531849 5.069185916106939 -0.6665255844429038 -0.7018664258360429 0.2066210491297861
Ni 2.782849385161344 3.993036881313465 5.580309010034779 1.5283519079067678 -0.38687594956121757 -0.5716143396852994
Ni 4.977768861908397 8.42293087401825 13.37433746444614 -0.17846309863833137 -0.014928082064742032 -0.7423160492106571
Ni 1.9160754822419364 3.386356253268675 7.629500009653549 0.9929710966322061 0.24395320992134112 0.9426152698874732
Ni 8.081295680750491 5.462059092365005 1.0627508430574983 1.7875556162292763 0.7332367126172082 -0.5824615668124485
Ni 5.551435090603767 5.870434444317586 6.277370660298526 -0.5608768986631372 -0.028872717170292213 -0.2849792746247157
Ni 5.049424700496352 5.968757162380044 12.756816804614965 -0.21531112070461625 -0.6513190519057944 0.6994421326652664
Ni 3.659418167887734 1.1874239766006973 1.7511165734926062 -0.749861979878715 -0.6710005894951218 -0.257043467446396
Ni 1.6546415673937367 0.8518481112135343 3.2910796151461907 -0.22608892804641062 0.40028939475364617 0.18399302731762504
Ni 0.7588615050459226 1.048115979345892 1.135809337617812 0.9973381153516503 0.8035224455166484 -0.5038894255344999
Ni 2.2602186754602718 5.437927572840539 2.9888802131013135 -0.9324946365137037 0.7329878298311957 0.85291667967906
P 8.489780472700916 3.307395294824675 7.8386507895320365 -1.5485142417872557 1.5885244636316063 -2.036719166706963
P 7.141434099271345 6.890542904215392 7.385885662454198 -0.39953529019644096 -0.646529343826635 0.14276795922956703
P 0.40422210403442443 6.652583868904598 2.3638848014174334 -1.4956755007196691 -2.6726000296808166 0.09339120856865206
P 3.480319611417039 8.73742494782085 3.2698163355652032 0.8338054127709059 -0.5815074304292953 -0.6935597057425603
P 5.661613808432592 0.8540825111695033 10.685107613439937 0.012130207604630721 -0.017544950862298816 -0.0014794127590039038
P 4.9650282221594635 3.7575311259543263 0.8885816464896655 0.08999349574101274 -0.8296937045953775 -0.5238203601304721
P 7.359137614981293 3.2055978568306887 3.904208995063901 -0.07219837654112082 -0.9692141034219244 0.03998399659210533
P 8.089148000595754 8.617132150191331 4.211734477003823 -0.5362087064924959 0.2746331555037012 -0.5715107242278996
Ni 5.443509012730551 3.6701159276769246 5.082894187836804 -0.3218272966910006 -0.5983309297445373 0.3481304533619037
Ni 3.649158168089917 1.8237081240621216 4.278888683680487 0.8708354689410099 -0.5795243385609955 0.9879258208988148
Ni 6.254869796741927 4.073803599721881 7.967019347002414 0.827479470552878 -0.16071837306040063 -0.4926961279218417
Ni 4.097460879255691 3.8728352836821496 3.222524576497132 -0.2397738817326709 2.5729782668214205 -0.9895836682172119
Ni 4.21648599691019 7.808498246126222 7.177869410553353 1.425383340062326 1.1341969081856338 -0.2654823422423686
Ni 0.5674792208172899 9.248135817756813 12.403360267580156 -0.667712148551837 -1.3096086215921512 -0.5719701803628214
Ni 1.8044010844425848 7.90325504425895 1.7154765261949267 2.052279225928749 1.4099626346318817 -0.6487266085882698
Ni 5.120287099099943 7.72592576775339 10.971583223794665 0.9863798165679334 0.433242452640899 -0.9538682170934734
Ni 1.1071588581823968 8.537934071752005 10.178535399422417 -0.5438119727610505 0.15794492408032154 -2.125499101755849
Ni 8.617250710188996 4.945274302548733 3.5978308091013704 -0.9957193488013046 -0.2532834861833315 -1.3441436792545431
Ni 2.008506680420493 -0.14791454108520527 7.604525802145689 0.01691940146315796 -0.8792800001639373 0.4001744664423366
Ni 7.487638412449065 4.4634373520437824 5.865970204405557 1.2330676518116184 0.06550348101944849 0.17605577474841938
Ni 4.7610503061790395 3.109299778728333 9.45528566967473 -2.6427217540641452 0.1725408196166254 0.5800560426947494
Ni 7.6868830485227635 8.560834391300732 10.070416889552993 2.350125072103488 0.061555037894661734 3.066426185307622
Ni 8.966364303309385 7.779843206690895 8.018728833983431 1.2311071856511377 0.032268887336034745 0.14716197453220464
Ni 2.894104262968962 5.977968362198529 7.674630328764214 0.6817753115131225 -0.6522289653145734 -0.5374675186002614
Ni 6.968728662674668 6.907031863890461 3.431034220388254 1.4107864160847574 -0.1023910980744172 -1.1504074565072253
Ni 4.742080706552854 3.4042040929169666 11.950354372507062 0.9830607794970295 2.2225122233478047 -0.8007826779879822
Ni 1.0853164586128217 5.436076212877021 4.986267789740918 0.7413279742657749 -0.5893611221457592 1.008204882862825
Ni 7.286505936412569 7.030233941462648 12.39524529174007 0.09720261189494227 -0.05729780528020454 -0.43886545525463133
Ni 6.174148678332611 8.585540470813877 8.700187076554657 -2.0673656879482265 -0.6321098259671952 -3.200812091121081
Ni 7.572782730771216 8.817471186243464 6.372661890420722 0.745697049867748 0.31542679248129546 0.0836680677436172
Ni 0.12709814149541196 1.0301495796999367 5.1464706185839715 0.9911060183990092 -0.1343313984264396 0.6476498305843233
Ni 1.094126378439214 2.3928143528473496 11.644497850534254 0.3096232984256409 0.44981089852254147 0.368129779301966
P 2.1367885978925774 3.2218314565107904 3.598405369090049 -1.822935281280151 -0.18292241996126563 -0.3935903854669157
P 2.2094932364598643 1.6423478076359965 6.400345649875189 -1.657414087514468 -0.5136542182307476 -1.2612186603245377
P 8.695865108639826 1.4401026916214261 10.221756902570696 0.9796532964773773 -0.3702087733181818 0.019003794796012434
P 3.313359774707139 7.342274735313592 9.211270042483289 -0.042889600274674526 -0.9928515403352062 1.7608873629094706
P 2.580859629141741 3.6368461683325366 10.31723509268921 0.9621301999919495 -0.7871154649135348 -0.3748825246447673
P 6.432199073247487 6.8228998655483615 1.2127274161020691 -0.6921499698792273 1.5935373434651652 -1.1458969702313813
P 4.137005198476434 4.302378155217605 7.350539279150732 1.366457512260395 -0.9949752715464283 0.006063946805892782
P 5.699835727679393 0.47102792671795307 6.580050686333933 -2.395962956373209 0.2546541412786131 0.5943099815106023
