# total energy = -340885.9993212675 ev
CRYSTAL
PRIMVEC
9.11055132703103 0.00000000000000 0.00000000000000

0.00000000000000 9.11055132703103 0.00000000000000

0.00000000000000 0.00000000000000 13.33421277575396

PRIMCOORD
 96 1
Ni 6.5131878314491365 2.105384645719962 11.31814637161313 -0.5301355037152226 1.5078028801108228 -1.5678227123078805
Ni 4.938365254801572 0.5275073012009789 6.141631304229091 -0.5494290618375118 -0.646529343826635 -0.6607074350992298
Ni 3.372817219439737 2.098661058815377 4.9580066924812405 -1.1790256344645502 -1.222337666988624 0.4209574646259589
Ni 3.623694472273837 4.8864168909398575 4.776528153586149 2.1425020640717487 -0.6180502625503356 -0.29518012641711744
Ni 3.7372848266456113 2.7455830898733624 2.8528279452220424 0.6177864673659876 1.066603377406376 -1.6993960883732087
Ni 5.539233448728557 4.622848640059569 3.124193005957269 0.19957211270280467 -0.06728576973085186 -3.032043594062694
Ni 5.396871973158029 3.4822622729421533 0.8678201035828327 -0.08379919400484277 -1.7486982770424464 -0.7067188688323377
Ni 5.748138391441485 8.011035359645696 12.689903868970312 -0.9198913459273963 0.965900465667659 -0.9878869972410794
Ni 2.5035066296542077 5.365130812215514 11.721306490450132 -0.851004807368328 0.15781585470162499 -0.9060505833895622
Ni 0.5335421304226554 0.41824992505660374 0.18859205739793722 1.061466570400443 0.874362765367978 0.20466289696215073
Ni 8.110121716250397 9.102042106255315 6.821396872944299 -1.2989740246964403 0.09577667808169311 0.38476558808643413
Ni 9.088877359538342 2.608332633616482 1.3887851178513144 -1.4637981923950985 0.9095629674181948 -0.31921171344502447
Ni 0.8025830895056327 0.37732806150738174 4.663747727230388 -1.4012597075412447 0.0567380761219926 -0.36349150919900625
Ni 2.115060051265585 6.940008052171246 0.3145363194155351 -1.2872536509357186 0.5527007906102481 -0.5258386761120815
Ni 7.737345286203084 4.379815571947486 4.097456808884667 0.9423792426172674 0.1694061306423857 -0.43218804323445564
Ni 8.148513579686606 4.150521215288132 12.334253453371831 -2.247522629349213 1.515569411430119 0.17580894884493592
Ni 8.377543730356484 7.461368464368804 9.463277289838228 -0.5890610744068371 -0.5531746449228732 0.17760306463088124
Ni 7.003107730899101 1.4909781724701945 0.04157417902668581 -0.40301553543555757 -1.5701102227904766 2.937835803130018
Ni 1.921251292158209 6.897516440622484 9.391512565710707 -0.11979978046916787 -1.234468645924203 -0.4446427240580407
Ni 0.010862510387990597 5.268230987937507 1.1232790526964933 -0.23214721842534858 0.029227015185917405 0.1121270944152585
Ni 6.651486001112557 2.095372149773974 6.858638984798722 0.23908816851955597 1.1692564708929283 0.37782103844780096
Ni 3.4940422158522195 4.756199780333844 0.7492317007342892 0.9044652411803131 0.4415332318947815 -0.6105002181172196
Ni 5.846495903937288 6.183622746508122 4.824545314535495 0.36018429920264416 -1.03286021951766 1.1085254715614588
Ni 5.299124867603427 3.1737516721969334 9.396033221296149 1.2745976527346048 -0.28242076986892006 -0.03841202411929513
P 0.28513474806258426 6.05489976632535 12.282943739160538 0.90174321426346 -1.2538028274764408 0.8784863006180482
P 4.152479983830796 6.392764563556441 12.802657874727124 0.1544309973897921 0.31954312864251416 -1.3893215613427623
P 2.5625885552317627 9.002363563812134 1.5369682357416667 -0.18336927769069708 -0.28731280785389873 -1.8535121256257434
P 6.141495557013809 7.817873449684967 6.092348687695671 0.6297325839842703 0.7735372120084679 0.9063645150855552
P 4.827444291978637 1.247425802930521 12.44440730777015 0.34330372139722165 1.3842078942652807 0.9443109124223414
P 3.8849486431083737 6.308355305194676 8.402047469297639 0.06642239328929204 2.0349664456819148 0.21595338227430552
P 5.04737300183865 1.1777938588766654 3.937593053094086 0.8730836415452384 -0.06722174926213584 -0.6871957111977455
P 0.22762439259484074 6.164162608800541 3.8065313943768873 1.27875075567103 -0.9134553604940655 -0.7079596832179743
Ni 1.001395363420594 8.039924918012145 2.687390354108663 -1.294310814892816 -0.15797423465636018 -0.19151504672628306
Ni 2.1119169110459617 6.522034176820887 4.98104818792892 -1.6792671788338176 1.9463814002526547 -1.683131032664598
Ni 5.980184134611929 6.127510860674326 9.292199356377111 0.5594321957968107 0.8137564645398309 0.9501969388894733
Ni 8.835859127134354 2.613470984584214 10.207513675261156 0.8240285358898002 -1.2215072006675285 -0.2161768111390212
Ni 2.294956998444367 5.48846034599244 7.105789111070943 0.74600506802647 0.737879096485226 0.9051195869348605
Ni 0.5567248394164329 0.13725774469796925 8.906747416220924 0.275972443140415 0.7288691796771318 0.49384875346904633
Ni 1.6530822128405012 1.544402445652428 11.423220182572429 -0.33854358100441695 -1.2024558404630323 -0.9145316242773799
Ni 4.27179176445742 7.306416206817062 1.3931581825047035 0.04206787570432755 1.0977679759346384 0.31646706082035175
Ni 5.277951946239936 8.242534469734466 8.31633540209122 0.5310806412373111 -0.14025007790371974 -0.4876940467215601
Ni 7.289807671685545 0.8974066191284165 4.796956742903427 -1.3037393072955674 -0.2112130393758427 -1.0742102432193565
Ni 0.7929341045589576 7.790614680012177 6.939257342739081 0.8145799888823907 -1.3856528542419233 0.05460894559413176
Ni 5.286688964995352 5.051445418297118 7.4123555201556774 0.5298588530150682 -0.9840341991538923 -1.780123071210631
Ni 1.021529681928905 7.890511875688027 11.585644003295515 0.8445693361556292 0.7722272349477926 -0.7783508313470273
Ni 4.655719509370875 0.6262064593728283 10.30538650642454 -0.3918826587471896 -0.570281736916805 0.01959103475805013
Ni 8.052533921096083 7.480682833254606 4.912977792378378 0.08383467522846852 0.9520432480695926 0.9868372158203262
Ni 7.501609769731343 6.374689229655767 7.258545725744632 -0.31191697955582415 -0.035934766223396176 -0.10847792769844543
Ni 2.133399591155734 5.928190217993408 2.411052754440479 0.2887996768120703 -0.5427501071554395 1.3368882832437106
Ni 3.4923112110935866 4.474592637758327 9.372897887169449 0.12686260085322024 1.3417003599203732 -0.2004714845886225
Ni 1.4595923230307684 3.923896250177618 3.69929747168984 -1.2319343095381237 -0.25399542464869157 0.420567942497024
Ni 1.601625818752293 1.5085524260460008 2.624573102473005 0.39092106616486866 0.010192881372601801 0.43414516696082656
Ni 1.3497555158198196 3.5713452441522278 7.9888866982314175 -1.1574011142162388 0.37639304775202276 0.34375983509803376
Ni 5.614441050215484 3.3887515737705223 4.910257381741915 -0.04886510113181907 -1.6627586396558331 1.7050967383024118
Ni 3.774838519356588 7.271231257460004 6.357979567404142 1.7372959487427757 0.34329986474247975 0.06921409710181628
Ni 8.310462740683771 7.699390729232214 -0.05667947318359967 0.4209060425627332 0.016501597199449002 1.2780611858031732
P 0.3017296173670588 5.821788088645642 8.314828516896071 0.1725541893530641 0.22607067321396548 -1.6406528088957293
P 8.777414940152086 1.7652968739567305 7.86697203308089 0.17639824568950266 0.9006564089571842 -0.06503245492030091
P 1.89452093446437 3.48513209662094 10.198152583737496 -1.5592583676776373 -0.091641572867397 2.0220014008808143
P 4.291953414619815 6.309157033714464 3.2531082187737628 -1.232380910157239 0.5782583273643783 0.6390569467089897
P 6.623161296930503 4.571073376673718 10.513547117091257 1.8911186231246078 -1.4575568394710767 0.012350551145552922
P 6.411586962668736 8.140241199050612 10.39940557436213 -0.36627858502584015 0.26012570591614553 -0.5641411712367058
P 2.365481776531623 8.906538784594751 5.834811621816515 1.5979704395358543 -1.0433696036894158 -0.2848977706545029
P 7.239216779976653 4.063050811668994 1.688537745572987 0.5467345457244842 1.3853456074141497 -0.18330577144261334
Ni 2.7962195343390603 1.9144457102913728 0.362193613586112 0.5663960287091536 -0.20357891986935261 1.8843666491127546
Ni 1.7518861423530048 1.5589702172790294 6.863985967392626 -0.797411447522904 0.29688322515115323 -0.6575141249729127
Ni 6.937384213379213 1.0348766396731022 9.012274021582876 0.37676251527629956 -0.4792495154986327 0.9354915143584985
Ni 2.9037878142610642 2.067976721830765 8.935322660565411 0.6750665320343794 -1.3258207125756394 1.0437892077253377
Ni 6.589406704137159 2.172574962009009 2.583570155016668 -0.05710188721931456 0.4450528150122658 0.8307391151407563
Ni 4.079130934821559 7.137843674980283 10.62490083110385 0.22521578141283793 0.4799606826330443 0.3436017122536147
Ni 7.300312137405039 6.4788410528173115 11.683823860039773 -0.8002016086735315 -1.4072897157854087 -1.8487381012758677
Ni 8.091773065808885 3.7638603049663093 8.47434516067979 -2.4889273618170877 1.438118271130491 -2.088812030747461
Ni 3.178507380007494 8.984260898257377 12.637873510146346 0.29768772333031956 -1.2383103882677964 -0.8177578723897401
Ni -0.0016708751196489772 5.03400782299173 10.259090328627332 0.5525498668546807 0.24195057766901554 0.9989098307141442
Ni 8.8158523563451 2.6525279182697927 5.648838847934931 0.8575729475041489 0.7200127577277664 1.0867916794287928
Ni 3.4578642163967883 3.0881398210554862 11.847514958457207 0.8565581330863894 -0.2936001835245073 -1.1998793379851076
Ni 1.2472344813519354 3.4707829782270077 12.838313839589558 0.25230646698204284 1.0741418518752661 -0.3763344265999454
Ni 2.90628410533404 8.915540009339644 8.053144328037286 1.1435238420135143 -0.3605213708270888 -1.5397616924056063
Ni 5.740057332384077 8.023270830123822 3.373982458958838 -0.15937651432052552 1.991400902386138 -0.08683643816926981
Ni 3.248467303910354 8.568655766260937 3.5222858361271587 0.5578208854456328 0.1522879829048603 1.3920857543514606
Ni 4.007112026311062 3.0915653883673073 7.005288796894979 -0.030999533705307898 0.3470372202977249 0.17733155613704943
Ni 5.208666203137807 4.542803335799831 12.065622469100111 0.12067061310989541 0.724864686503429 0.04475724961103259
Ni 8.146181278538133 0.45239262733793695 2.3293402192816366 0.6587392556292655 -1.3753620138388765 -0.28298435568187397
Ni 4.762987141097958 0.6957427426373911 1.6174800002310996 0.2801250318562079 0.04027453124933064 -0.44793219344258983
Ni 6.236008416835175 5.897551433765603 0.7022358325925374 0.3606224151813273 -0.18254755312035012 0.11577446135985868
Ni 8.185538860418632 0.17235523276195897 11.187191306346856 -0.16621513450891376 0.30879977408308107 0.34082774905290336
Ni 0.22829037389934645 5.360220225031814 5.958832646441759 -0.7538955265181403 -1.107188240807274 -0.3553030598509429
Ni 7.574138869118069 6.735321294738565 2.750275023824394 0.19055062593048475 -0.7817804258538665 -1.6364871075538139
P 8.746867261437892 2.1441409312106203 3.5934100884939832 -0.00410296642478003 -0.14501278939968573 -0.02828393454635774
P 1.9705029328170007 3.6757703838546085 1.5781971248717623 -1.01633676794134 -0.5273746531406337 0.8550188136237273
P 4.9112340328478385 1.448677882500019 8.132590158017454 0.0667844046144011 -0.7061452557170549 0.39221818770973743
P 8.662011586059426 2.167637043171224 12.252274890113242 0.8577768359848389 -2.596143134973658 0.8945004166581176
P 6.722712291654628 8.298054169729781 1.2280813692252284 -0.6990022169143704 -0.11050087166574518 1.7350081811498637
P 2.20399725365388 3.7660650583957267 5.760860365362302 -2.021165535243081 -1.1134344788273018 1.602734436583401
P 7.174741407993252 4.2591007664112315 6.305788862876218 -0.29333561700921096 0.4113777913573238 -0.4083765426371547
P 2.4103967947424705 8.871517825162197 10.009500396700574 0.056108670068109816 1.228821989161387 3.668812773178772
