# total energy = -340861.63476462633 ev
CRYSTAL
PRIMVEC
9.31003455346184 0.00000000000000 0.00000000000000

0.00000000000000 9.31003455346184 0.00000000000000

0.00000000000000 0.00000000000000 13.62617664170531

PRIMCOORD
 96 1
Ni 8.774260883667598 4.276834459981344 1.6749432173482062 0.10239392628789462 -0.1872426446031743 -0.404778026652619
Ni 2.3574404528378006 0.31605799118133976 13.116762742855332 0.24447668652497898 -0.4338307210442012 -0.9079462577503783
Ni 1.334183841930272 6.107122124395939 10.69522735568283 2.0071879900170653 0.7705395628327246 0.16231297124103014
Ni 5.414008656264634 7.388927710742358 5.860864256852855 -0.3692548940453447 -0.2199956706644792 -0.6700875907625492
Ni 6.735493610776424 3.9637659209628153 2.8326916594570832 -0.5828053233051124 0.17776658679193902 -0.12916682350636466
Ni 0.336095979004505 2.025034971613857 7.170747977044873 0.20542780015263332 1.8675356935983451 -0.855905587104055
Ni 8.279944587858017 1.9038555591219557 2.2941573535345428 -0.38937146228956165 -0.12647590693776284 0.2386888761986083
Ni 8.299793581975466 4.177943270715135 7.878832912080621 1.4493344515612845 1.3869718301636629 0.0449595954298258
Ni 2.532106015050505 0.5051494522613 3.4648234688788624 1.6604220211028564 -0.8468056816853158 0.8334007211333195
Ni 6.768143902694763 5.585406396275074 5.449517128855607 1.1086787093098711 -1.8344589656490342 0.812101445434911
Ni 3.7249076690503826 5.061893831444704 12.963931074171823 -0.3016932449452869 -0.68348560933601 -0.409318851945766
Ni 0.30021138100905437 8.646722717431691 4.549398761754385 0.5817725111652239 0.495101909149857 -0.8913857822885358
Ni 4.570929148150265 0.46934864457872794 5.012566474253105 -0.7354635450651978 -1.6036307231454254 0.21042731024975372
Ni 4.97234060704707 4.403683683644693 4.476758146509547 -0.46775617014705245 0.0887771068354084 0.40906919782880513
Ni 5.087691937776531 6.908129585410515 1.220876994835048 -0.7046671285096316 0.07928947905994732 0.14257384094088993
Ni 4.798606048310793 1.5229447967761003 7.210100562990019 0.5313104978599301 1.8404331809545982 -0.04636727441062982
Ni 2.003538101343129 4.103323342079411 1.0189739949159586 -1.251481892652748 -1.4398730490380687 -0.6702439138347553
Ni 8.649217806748519 3.62042114889084 4.175878305004417 -0.34817647610849073 -0.047422455148021556 0.7306141873926965
Ni 2.8859525063365914 3.106134828511873 11.052941235409998 0.7761003447499537 0.1849258235445396 0.02154533027094354
Ni 3.6889430047559593 2.852501551428524 5.55198616448173 -1.0972838372093683 -0.616025518810823 -0.8887262331785016
Ni 4.430207972688135 2.1050174802738084 3.276850142974092 0.13369607883528586 0.9949901839447637 -0.2472107976266904
Ni 3.9422504306225585 5.976474406548762 10.392698707020944 0.0012233308841398287 0.5381390907459893 1.4332092638646479
Ni 3.1610081734125544 5.931050746933828 5.7759725668616975 1.2149411174142366 -1.1101681493712041 -0.8348834763264332
Ni 1.1963487772450692 0.9777119208406583 1.6474590637205677 0.05274849534662528 2.0829594286214257 -0.05773335015572637
P 0.6434407086499526 8.200483441144865 11.91887129284982 1.1584994894867404 0.23155020827129796 -0.5208826176583868
P 1.1444639535037227 8.452636422700694 2.5392924308850544 -0.4199884158444703 -1.145032822458873 0.39578662178728613
P 5.046550894153166 0.046121912222255645 1.466721496834598 0.18919154079942901 0.3464978028544871 1.3482677287252458
P 8.42375669486189 1.3203305102010197 4.599025902065392 -0.7377793376825681 -0.582478536093313 -0.0721801217086757
P 4.17871600360057 7.784296957077143 9.325292049254235 1.8088307235579686 1.3313462703795589 1.2706805770683856
P 0.9410396939041494 4.166091596460203 6.63177889249884 0.1399968242423331 -0.8892029157046042 -0.6437666934798333
P 8.58574198972564 5.778999259163565 4.0305821784591185 0.9595518977418119 0.1028361560316358 -0.4487125232520402
P 7.19308181944091 0.840356322945816 9.855923066665378 -0.15748418239381912 -1.1608052548017815 0.08835673146853816
Ni 2.417099155607323 2.9164428701896163 7.987146787531761 -0.2161513572177245 0.1502161879774961 0.15509125668161033
Ni 7.270113047080583 3.1248107582490237 9.966049605885122 1.4129425431958118 -0.053576647674875466 -0.5582875406694062
Ni 9.352395422460015 0.8136020760436974 9.349833300892882 0.6568605505493139 -0.1779715037138935 -1.4213613633871263
Ni 8.129838897353489 8.187682143343977 2.119388449935955 -0.7309893113439282 0.3934805993619288 2.1705743968279325
Ni 6.740744470383479 1.9802071542238366 11.961521493108474 -4.138457418597788 -0.007618178666890105 1.5627288427247408
Ni 7.416019911906419 7.565213219004047 4.40718239470911 -0.16458531221497463 0.6372785146523282 -0.3137532614336145
Ni 1.2734451751280926 2.2812657483964407 13.448818166772138 -1.1708181589530933 0.44791059617603507 -1.6266145856351082
Ni 0.9634861877208346 6.409940315138993 5.570040183896626 -2.572515725362705 -1.2545859854993684 -1.9834613358240873
Ni 6.95607626444657 0.18091445754649096 0.5844430183486943 0.0782767215247168 -0.9793493920837133 -0.7224378222294913
Ni 0.308567137209998 8.435785259777342 0.4957965913371018 0.25127905415879304 -0.0970768849503554 -2.4662296631092557
Ni 4.4761809243541615 4.6011681410646545 2.1190747017643985 -0.9797723385537448 -1.380163291882262 -0.886879152667434
Ni 5.489168566916686 1.886957846024783 9.405836884013949 -2.47342720929896 0.11163601371145289 0.7227916060244842
Ni 5.713670745222595 4.466908129728936 8.738849235438174 1.585937162520404 0.22812549886046518 0.30757567186799284
Ni 3.195101520719357 8.336195817903812 1.1790209405417866 -0.971180740229992 -0.40254810888083575 1.6229088546487467
Ni 8.569104957601867 1.0443531496833927 11.451111871205356 2.5528557850399327 -2.329752679094723 2.0408324175443884
Ni 5.477354132800811 4.4910118097336635 11.104353109385318 0.8301194792788865 -1.4604555011751108 1.5625882033818186
Ni 4.277765463457772 8.658350950852281 7.405050828947142 -1.1805672679200572 -0.09760833197379318 0.1949001611484321
Ni 3.647941611654059 6.259424983104837 7.955397706978604 -0.1554147014593001 0.2276742702556595 0.5094106124630453
Ni 5.992748347316728 8.907105769719145 11.960186434123276 -0.12554233937989992 -0.09201155461230605 -0.3466731520900868
Ni 3.677668552656413 1.7722023575202364 1.0473146717419108 -1.1678413357129565 0.10886693560674798 0.1496204633750262
Ni 3.5316034172395843 7.892004749265128 11.788728178886869 2.354454038496145 2.5531486336900033 -3.1036562733036743
Ni 2.2648335370374824 6.9719684937892 13.066523002256833 -3.552183677128102 -2.0778370197931957 2.242371681275893
Ni 1.6446828113538587 8.080477093033265 6.872825933584355 0.46715633177952454 1.30312815607413 0.5074110655345132
Ni 5.982246628102617 4.54055050471441 0.05124894836694604 0.3103905156089687 1.3986068432994299 -0.4906577573355744
P 8.673889398873868 6.7170876720474375 7.620698233188741 -0.5435391787156381 0.36058410574422417 -0.29904835112327205
P 2.238011326881584 2.8933074338003744 2.73406487517818 1.2540563382481433 -2.7673230696870146 -0.14679122145634718
P 5.159826087130192 6.8206431887305525 12.700128446115448 1.1740520925093585 -0.6973356278452248 -0.8052507410616648
P 2.8714102320347816 4.612721894207128 9.377739199095345 -1.4034302328300023 -1.1409979902678673 -1.2498872944721184
P 4.365251860137735 1.0129876425625248 11.700525840533532 -1.332912329315098 -0.16675558039341604 -0.9300106937495854
P 6.748006297499619 3.52478847179213 6.7768562332271784 -2.5448737952757203 -0.3983340707994882 -1.204746693379738
P 7.629061437417497 5.22154230758262 10.316051983817035 -0.5171072097763546 -0.06448121040252121 -0.008233700763701949
P 8.462039557812618 1.5611438694139514 0.050748999500104065 0.5436769898450831 0.8907808017146852 0.5552623806898372
Ni 6.116776630446499 2.0477607664734707 5.024339013212541 2.281673564199309 2.2659556392434204 1.1420901948907813
Ni 6.323077690788236 6.807981541451128 10.735574253340799 -1.3597178795437164 0.2658829201148969 -1.135023003631355
Ni 1.3707815885886667 5.996835452578248 7.780764729887575 -0.8380855282034986 -1.7583694815836235 2.594241547075571
Ni 0.40135373668126695 6.4698224587428586 2.123121773876432 0.11099169525923466 -1.5165101780768333 -0.17907913495577546
Ni 5.901240015618596 6.8285939584192485 8.262000426853339 0.11968150972374873 -0.4137349787355906 -0.4301206191824657
Ni 7.554124967599787 8.230433822981563 8.78855737305163 -1.715406604868852 2.694088024351263 -2.3323728903263894
Ni 1.095865572034168 4.312091561633682 12.13894748062879 0.5920630944579545 0.8646321683437754 1.3880938595832482
Ni 4.117269774156306 4.17871600360057 7.333390560362982 0.4564330318247494 -0.37946397336786264 -1.29867783361226
Ni 1.7015485036940965 4.527795757087344 3.8538777186330355 -0.5193744085439764 0.8456111471565825 0.8811381364185986
Ni 2.3968498299950087 0.8500648271980099 6.004974284969184 0.7510418591194292 -0.4018850213755401 0.054458021838564276
Ni 7.236010389739017 6.490928307553486 0.6378062756106089 1.2402867952678769 -0.23393773466686807 0.3065464592725301
Ni 1.1597789606909674 2.076463603651754 4.5154013078056545 -0.6023179394167434 0.9401562668240196 -0.21797015559401814
Ni 2.108015311467907 7.986874003513168 9.439315769026308 -0.8203963384538516 0.5489827183287126 -0.7023515930025774
Ni 6.080169573753341 2.5051907045469646 0.8544088894190242 0.8229635849603956 -1.7690483014537082 1.5053855289185816
Ni 2.3872604941877973 6.832122461594912 3.482605635278642 0.7489505238080392 0.9843823265219306 -0.015344857887186475
Ni 2.052350613612262 0.7280782346920451 10.792177402700684 -0.17987077761913536 -0.04828017516262653 -0.008583113683320702
Ni 7.428886379950658 1.5130482298216679 7.746113711498391 -1.663994054724831 0.5822497079119585 0.05181981288476882
Ni 6.458780757512419 0.40668559359077155 3.4394107979862767 1.5212993719353607 0.9863096254516305 -1.2925601507502966
Ni 7.866262503141887 7.36801737266178 12.20669753461195 1.5795181463679377 0.49867908497815405 1.758609108398255
Ni 5.070682504262186 7.977675689166056 3.4037375377799752 -1.6852969299676652 -0.7089091916154373 0.0815844457417111
Ni 8.944951061035955 7.529546475822081 10.086695553385029 1.8307529775523566 -1.1340300435904662 1.3533996506351724
Ni 0.20741174748911548 4.287932021420368 9.90079371021531 0.561356152292401 0.025217894026524315 -1.0323262013910608
Ni 7.904042624215346 3.8734306536449816 12.203250028738736 0.9656742085894658 1.0143716737951691 0.1035889750372603
Ni 8.827542212623587 -0.01199504879030161 6.623725712427735 -1.1990645553932964 -1.2862501493718685 -0.06338386357328439
P 3.25656637023315 8.002328661221876 5.307382690116258 -0.13936407575434062 0.5385314410884016 -0.5138146550680118
P 2.809936072486224 5.84077133982458 1.4584234628491932 0.8781127193287135 3.77939514881473 0.19196524688982422
P 4.584577659114703 2.781819767498091 12.984425253698438 -0.08527886387416281 1.5996665962913548 -0.9686021808695383
P 6.3820753810894955 9.25307597159465 6.474887117654628 0.13118436815702567 0.29343691847376563 -0.03151581122009411
P 8.98387631638542 5.348531181767434 13.392855547804036 -0.42803802562182414 0.7191910331574195 0.8925574339991339
P 5.777854124887559 5.960368046406554 3.1154616213387314 1.0165421990839267 0.10461664497082628 0.8784999274648031
P 0.6489820413416537 2.5536494354950547 10.989702824273609 1.1973655704243185 -1.058919635608873 0.2654121511260655
P 1.8770333489660576 0.8254779563890162 8.04095692646236 0.13698734799204793 -1.600397303809792 1.589549819572327
