# total energy = -340891.9605354577 ev
CRYSTAL
PRIMVEC
9.06286844268872 0.00000000000000 0.00000000000000

0.00000000000000 9.06286844268872 0.00000000000000

0.00000000000000 0.00000000000000 13.26442405465921

PRIMCOORD
 96 1
Ni 6.342430843857994 2.316251618759307 11.494896209560608 0.48597243604476303 -0.40833849031036773 0.35796235185066094
Ni 4.266463051311499 0.20046430193297785 5.8115950863340435 2.1452348896218796 -0.1991774483675473 0.5255787375824754
Ni 2.642523939035678 1.412792407523206 4.773733538782324 0.032307196773137904 0.6985247630573196 1.0018804833066939
Ni 3.462178807459202 4.369743498017688 4.811430539315352 -0.3442550295668974 -0.3687183048155844 0.4005984413536327
Ni 5.132510742364804 4.331788205739212 2.833771303946877 -0.1262596771618987 0.0045349117558760605 -0.04183493375791505
Ni 7.11089863234149 6.185643222936875 2.759782953748153 -0.24074087363163055 -0.22674327380095788 -1.3355428249594095
Ni 4.934804271243751 4.7125374271344755 11.255580297678108 0.4925570312408163 0.004224322493992725 0.12658929258717555
Ni 5.5855182124077025 7.913016850679329 12.488946039363377 -0.5703205605745404 0.14203262372543926 0.22050886285547183
Ni 1.7992240473183279 6.62187532382804 0.46137249744811254 0.6123835511828615 -1.0808336620731451 -0.35417357423219004
Ni 2.7867141730735403 1.6965598756539093 0.4698988439083778 0.40158703051914707 -0.6506929882860213 -0.023396524547069385
Ni 0.4084226896312547 0.05502067321457317 5.029816663235122 0.32936679960115534 -0.30964438147156353 -0.1986953665248062
Ni 8.57261240273939 2.263088833538308 1.4193466738498044 0.9469396082944402 1.5476670632956118 0.6780281857658647
Ni 6.984408180018018 0.4914639389362277 4.8660143822797295 -1.049964483298114 0.09798499858692157 -0.5218498666676625
Ni 0.7419634302532175 7.590677815228378 2.578179386953842 1.4996751087973657 -0.27988977591695025 -0.05718313407921119
Ni 7.727998395124146 4.267097452089793 3.91881504995394 -0.04667914922409381 -1.1566362110257564 -0.5903049741162673
Ni 7.7040814857824795 4.004781793133672 12.766517224463804 0.4869934211101097 -0.5112628351804357 -0.224718015840813
Ni 7.872687086916382 -0.35069221880654194 7.039469636139768 0.4824009166434208 -0.7704626868482021 -0.37229136687882336
Ni 7.138486003328999 0.7492454449012013 0.4325099808962346 -2.338953371757385 0.16854815351746455 -0.26580141614468417
Ni 1.760507474105899 6.716174468087246 9.41279285520119 0.6692846352452796 -1.074223870066111 -1.732348374929513
Ni -0.043300571979012964 5.002087005215912 1.377656573560831 0.15416617376417965 -0.205763072004865 0.16957325234786924
Ni 6.312124612392086 1.735584586387224 6.950478613821227 0.5110064961952554 1.2870024541568608 -0.8347533785064721
Ni 3.2416520340561035 4.253765972877367 0.4612864001996298 0.6091359907798413 0.5055225902625488 -0.11292825016031519
Ni 5.712933077293831 5.485110694940357 4.993286053847328 1.2878403766771238 0.15337735931429713 -0.29554239485254263
Ni 5.34976582032556 2.7953510865265936 9.265810351452009 0.5047286336063436 -0.49119460367565076 -0.2802124493636916
P 0.10112257777316522 5.976907241141776 12.542825697463847 -0.8126298071345552 -1.4064556499198875 -0.3900941993881991
P 4.022717209422857 6.1430568049768555 12.63821057334076 -1.1732861608776115 0.3521303185499161 -0.5188427044102225
P 2.319604880016002 8.518443639141383 1.2057176494804094 1.1520498772066545 0.9620777494874593 1.3991251776967455
P 6.30346957320251 7.646749781161265 5.776364998541751 -0.16600893203537861 -0.5385388972875692 1.204504238351629
P 4.969397239397271 1.1549447426199244 12.655838758395886 -0.8715738897689312 -0.16301282552153215 0.4706820855445958
P 4.167324335400741 5.924705119956479 8.174399940491357 -0.5684359419573178 1.3466479337336357 0.24630422665202098
P 4.7244822875029175 1.0545281622843174 3.646920845532413 0.8057639332526575 -0.23093108663006034 1.282074163617308
P 0.2785952892139588 5.757585829217436 3.5177514093508906 0.24862207615192022 -1.1679133266014727 -0.01906601549251555
Ni 1.657834239573219 0.9267960970090424 2.826555448237201 -2.1074479006810933 -0.05001695534807515 -2.2702236704911547
Ni 1.9735936326664398 6.353813806394233 4.847403782305075 0.5786038836292551 -0.690713751653333 -1.6975847461960827
Ni 6.0623429002413936 5.8092532411753135 9.334294821755623 -0.03283478714183377 -0.21315447937292967 -0.6567258247436626
Ni 8.315217881249175 2.343322406255919 10.063307413263392 0.7101242949694608 0.2380432721948094 0.24029298746093458
Ni 2.2509264643315947 5.087876116177721 7.117358644838172 0.743955384586293 0.012591206401449284 0.3377593945402248
Ni 0.767614066293278 -0.18478372726721362 8.949373962099667 0.04976935811364332 1.253229471471474 -0.49874104856434104
Ni 1.324501944921267 1.2185117006049377 11.042553047761267 0.26895975926800775 0.16574282285818553 1.4174273184400428
Ni 4.111080174970887 6.768720978266475 1.5423606099082274 0.1021265315591209 0.8950362345569296 -0.36478477408913307
Ni 5.6301981529360905 7.766642465390484 8.00389929360401 -0.2903981316474418 0.17667772460313444 -0.2930448252416695
Ni 5.153364402234139 2.7568157706793914 5.0797702868047825 0.7354049239131206 -0.3128469475692612 -0.9744157022275217
Ni 0.9322700694388896 7.201237303170492 6.757839192345087 -1.0605546001091348 0.7232752305291221 0.794298098704903
Ni 5.296847732547616 4.358242718194052 7.149033369411542 0.46543986330905 0.1798797764801999 0.38998544172447674
Ni 8.183335022310208 7.292871964160864 9.174908876503977 -0.11048287394361618 -0.4786949285467433 -0.13753190764160828
Ni 4.693287894947397 0.5330144710539766 10.4892413769492 -0.08020556311631347 -0.5851491409469406 -0.3642551268379081
Ni 8.147817641594031 7.109856402491436 4.69713145737703 0.08255272319225136 0.40044700337743294 0.9774763434307167
Ni 7.4172960825207515 6.010856745648742 7.1408097227512055 -0.027833477272500455 0.2962157667704834 -0.9172377103546332
Ni 2.2420086019624392 5.074390568204854 2.548254702241736 0.13174692552871506 0.6290658969345488 0.4023768734102941
Ni 2.4488957586322266 5.342642405872149 11.282361073390359 -0.13061204059332343 -0.8648980204106523 1.2916525513343626
Ni 1.088441415318238 3.138661599134277 3.770757690028966 -0.6445511370543415 0.7252470095435122 0.4822800747948404
Ni 3.4449865463674465 2.5441918184001784 2.817947535962584 1.0990589268319202 1.4183945674493184 -0.5827433597189254
Ni 1.026043567338937 3.1953045257676296 8.305412764077236 0.04674985456102916 0.8302362073624089 0.033956045230470557
Ni 3.7176791894827974 2.733796085295597 7.052057053867938 -0.8744201009684748 -1.0313823494205527 0.09443199112834058
Ni 4.109367292869495 6.763219817231843 6.1386558761491505 -0.1305009689367559 0.0627570286225629 -0.2407311034396177
Ni 1.2735504995560338 7.509365761187667 11.471511290585882 -1.4481903106545124 0.6456739378048751 1.1031374677766679
P 9.368740065156484 5.687819869341668 8.212867284826599 -0.36833880998897855 -1.4864226146628334 -0.5156748482052022
P 8.524089806068195 1.4947479252104707 7.943002256608787 0.6054490288465574 0.7479704192829569 -0.003742497761567748
P 1.827491133425436 3.3066509252264082 10.556239536857957 -0.3636743146337737 0.6981059303523461 -0.29858118167886644
P 4.084054701815582 6.078801069003981 3.5896716130123774 -1.1533156312929558 0.08040842315573894 0.8759427082605883
P 6.926242691516762 4.1337735970972735 10.403698776004099 0.4838111667273861 -0.3450674981658638 0.03738975350236786
P 6.516193217032598 7.895516452066688 10.370179757739546 -1.6522525979181866 -0.14258181136068993 0.21640435376879508
P 2.366514286136679 8.283479716597975 5.5042188463825585 0.06415930828672822 1.4725080614642705 0.9642711575943521
P 6.940308263058356 4.106539677971957 1.6744473833830749 1.0205891154597906 -0.850719157807109 0.1262481071976729
Ni 5.301832310091352 2.9045223976026517 0.8010904890770023 -0.44012863823777104 -0.6416352489591273 -0.9234811201611837
Ni 1.615293135954506 1.189392704881264 7.028844329390177 -0.48212555149484715 -0.16333112809289937 -0.4844696262469915
Ni 6.731545092658473 0.684335369839858 8.946495595139867 0.3609923969262363 -0.7677920819945745 2.3151500986901996
Ni 2.754948819817556 1.8928434764579325 9.220060992468783 1.4594337447788155 -2.175985283430859 -0.2449230300337782
Ni 6.489883710469937 2.047610077756774 2.7946813405620805 0.6183395116559803 0.07351555269064758 0.24908281783842265
Ni 4.021167458950169 7.045210963183325 10.453824594070722 1.0432968414699517 -0.037310820635316384 -0.19546040452727628
Ni 7.896966510988501 7.651290278160196 -0.05466722135238106 0.5176707955893085 -0.9692860943104403 0.35525780843530425
Ni 7.822279413646829 3.8271495752114797 8.207826517499644 -0.895843046728941 0.20472666032055065 -0.254034248306427
Ni 3.1113098627215643 8.768905066411675 12.421880814229487 0.8312481935666909 -0.324055414690571 -0.18320781241216835
Ni 0.2099504061421186 4.915219412931003 10.38573888997061 -0.8002594584946605 -0.2973244264536299 0.19674467055633857
Ni 8.504423381941095 2.304207066839991 5.538705778977422 0.25759805439828537 0.7380441613081806 1.6148062801462706
Ni 3.727294892708075 2.8116461236604766 11.578953406397677 -0.5052122581109816 -0.9324920654105425 0.20104046971821504
Ni 1.1322513204935383 3.333395449465612 12.821007719885088 -0.6608709572602877 -0.03600932821507347 -0.8903133751599634
Ni 3.118560157330633 8.23583621814813 7.887477687918883 -0.03985878386815071 0.24197448892841553 0.44230096329874147
Ni 5.494354820566921 7.794157333431902 3.755290999054169 0.7638351542293554 0.26258110943517354 -0.3313560621170422
Ni 3.32632641222177 8.435047125400565 3.3399025888772518 -1.1928429999636165 -0.9718991064532552 0.21956809620875734
Ni 3.53073034298795 4.184226584708133 9.239387559036084 -0.7429130593647075 0.8342540702725503 -0.0029706525925497222
Ni 7.06891942655498 6.0489661066876605 11.573686973651014 0.7772007769029841 0.17053021694449985 -0.44622163850938634
Ni 0.4542354886923101 9.276480066256081 0.42509292951115685 1.11246697270771 -0.6331860897505095 0.35469062307792465
Ni 4.863497623763556 0.40110804865753014 1.5056976826438173 -0.732026751469507 -0.3736213985441566 -0.1696475572292304
Ni 5.770654485250282 5.358556802539056 0.34471706976184285 0.3938102147872056 0.8399832594468437 0.28596246447359136
Ni 8.283153453340567 9.026997428758012 10.975753364667435 -0.4095440805826946 -0.47526327715737504 0.07647386398802314
Ni 0.30954317175277024 4.794819208079149 5.6476604875020335 -0.6615558991424542 -0.10454311142041349 0.5776988553164826
Ni 7.880299896255904 8.658791217036438 2.609536911138066 -0.6619135395921891 1.183838225361845 0.29294712332154066
P 8.628802185959676 1.4834465284885843 3.563686557133474 -0.8436529949889471 -0.26326656553797245 -0.5208751614592191
P 1.658967098105886 3.0742608572692207 1.7187639028941837 -0.04442711996512349 0.5597468988237521 -1.4313686111114832
P 4.695997692557537 0.7932864532171655 8.049887006022509 -0.5698970998838766 1.1159662441102198 0.21315447937292967
P 8.597354033092838 1.5776641069334374 12.356964395160361 -0.4028507277229191 2.054608388282558 -0.5097384281161091
P 6.282534347518823 7.7668055970191885 1.51996988758177 -0.17513377715478226 -0.32866000334211787 -1.2045132372126932
P 1.853782514251573 3.1845650268779457 5.887083341230019 -0.09286490375153685 -0.22749763546847918 0.8041863043528924
P 7.139365101550348 4.028390564954454 6.017313132998118 -0.4448671813640209 -0.2615611528110915 0.0383091799928437
P 2.5791926156254594 8.673028983074998 10.152046487844265 0.4011000635803995 1.0752505115584126 -0.3279357235815836
