# total energy = -340890.9535296255 ev
CRYSTAL
PRIMVEC
9.07405296724411 0.00000000000000 0.00000000000000

0.00000000000000 9.07405296724411 0.00000000000000

0.00000000000000 0.00000000000000 13.28079373689220

PRIMCOORD
 96 1
Ni 6.389521607473221 2.013387164938001 11.391268445512774 -0.8102448518421466 0.038607685069868995 1.4785226430894667
Ni 4.620235540965018 0.08896836696682779 6.134225849918006 0.33265652609602064 0.8282016934308832 -1.0802641627229201
Ni 2.7055831461848037 1.529830883189222 5.099280203586653 1.374455442864207 -0.3633256730451033 -1.2486539362856497
Ni 3.2924475207785786 4.55936679377097 5.0111357606277585 0.06128430073177833 -0.0287737296985827 -0.7474202032064418
Ni 4.861197017073834 4.764013909970636 2.1983163640755525 0.5344120196033892 -0.39266504543916886 0.880537269609806
Ni 7.465277806950853 6.294343866072152 2.523404292496643 -0.7844859977104877 -1.3019395350826675 0.6383756043712491
Ni 4.912683193516742 4.502717481199049 11.517024837952786 1.072070571168534 0.4269746173543163 -0.12119691792701061
Ni 5.780952098221103 7.84825728579283 12.307271405764883 -0.8184546413464485 -0.4192003727255361 -0.19953303193475314
Ni 2.067532038895497 6.386118837616666 0.33288163250054337 -1.0968889157637949 0.5025763631500312 -0.04086871318990381
Ni 2.6934602114425186 1.6995791917400647 0.25791725145270394 0.4632410558855183 -1.2734177734938907 0.37152672079865695
Ni 0.6437360014629903 -0.10766363826138604 4.918834494012097 -0.003185853927149352 1.0088067781128822 0.16703377375546716
Ni 8.682380529243286 2.399660525001123 1.4369552290217744 0.1635681838043699 -0.11069139040999647 0.2628988977859085
Ni 6.751639838581282 1.1098927866785868 4.9806160909329975 -0.37803392578955536 -0.5146546344708041 -0.8405280762067201
Ni 0.8025564280451699 7.258035511607254 2.4532282891909474 1.4703401072786741 -0.9124030079701511 0.23953194092519392
Ni 7.57810458134125 3.7000630533820105 3.693681271941705 0.8122703669126076 -0.06205691723174473 -0.2447913895519204
Ni 7.859082630963149 3.9709689042285072 12.89349878184151 -1.345319187619883 -0.50776459221919 -1.1249447934597465
Ni 7.993342318423365 0.103719147443668 6.7670956729724 0.06472726497505626 0.2954639762061234 1.03840300371276
Ni 7.041619348730384 0.44580005482574475 0.22243316738855307 -0.306598138446072 1.0796524972808503 0.1868376958552718
Ni 1.7526170312375617 6.545059949103091 9.350435900019747 -0.32640128921492817 0.6362068788547043 -1.0052355158218558
Ni 0.30904953983053035 5.0292031074581205 1.2693810635579463 -0.3324842621842145 -0.6086845050647195 0.6400002844588655
Ni 6.141654777068837 2.1127026744846398 7.1442967948953 0.7637050564093945 -0.49462856905786423 -0.5616610851273295
Ni 3.3618458777463895 4.133330933677389 0.20863697728213831 -0.13933373673703744 0.5866370383463768 0.7155050996654
Ni 5.945246900948508 5.303738579484942 4.806704606888322 -0.9538746448513765 2.2819689839525408 -1.8581791920841093
Ni 5.1390263703218 2.893788078437598 9.318096882708346 -0.5820008251259461 -0.23083801269562182 0.2657955026074132
P 0.21578188657560776 5.715473732128043 12.380275791375347 -0.06317483288627185 -0.432028634838456 0.32783956432335154
P 4.007237893872903 6.159821031076362 12.664657518259094 0.7983218751523153 -0.4143471583982929 -0.9609865733058096
P 2.291661146780557 8.604624969507775 1.3774040343161846 0.8752726787767571 -0.6321558487137823 0.5767424049404842
P 6.561393244414554 7.834428429095793 5.7903727799946365 -0.2690566898571883 0.4179886118056221 0.2074342890597008
P 4.883074558738241 1.0084902449532613 12.631881131595467 -0.9165445409423505 -1.3019138240510546 -0.0617661254642033
P 4.203028734392577 6.121283528194263 8.116689549804935 1.268619323663983 0.6193388994547722 0.007428431253587208
P 4.8052373325261755 1.2503228301453555 3.843528367560826 -0.5192612800048799 -0.7577367546411015 0.7216734332596411
P 0.26241888912160183 5.326160564326399 3.549744107009447 0.3279501217592868 0.5228880781241898 0.3517071149695685
Ni 1.639082480717 0.8866338804715099 3.023160480978507 -0.290088570826823 0.39504254453241 -2.064454684949019
Ni 1.5324442104390559 6.681343150371339 5.027935462260892 2.190965558889775 -0.542505338134485 -1.6522484841531286
Ni 6.148351428146536 5.347049034219168 9.095325253144729 -0.7531576199108513 2.494920089065413 0.45060871183348844
Ni 8.458233273252324 2.2953361382256356 10.564937998736475 1.9921483220751235 1.7500864156392246 -1.8380464258899765
Ni 2.4757283108877814 5.3165420681985385 7.161641847110777 -1.324994617129918 -0.01676822059727435 -0.3355670148745963
Ni 0.5479502985142173 9.064670380061001 9.323688314136637 1.1684224050274072 0.7475492725851384 -0.9354303221032598
Ni 1.5415545596016713 1.1567330480106792 11.437844651903998 -0.7769359532773716 0.20899186335480782 0.413109686446766
Ni 4.199335594841596 6.979734307605846 1.3030993369178692 0.6974744674159343 1.2799656019147376 1.6508485184818085
Ni 5.783247833617659 7.961265541242244 8.015981173130346 -0.14226942232659368 -0.4248760829540747 -0.28842301019894195
Ni 5.039375120815981 2.9193587596529866 5.217386261983833 -0.8270362123678725 -0.33421615727365667 -1.465218726891709
Ni 0.606538736201726 7.548641131409964 6.9120291689186555 -0.027293545608630416 -0.2512515433549673 1.7144866641577443
Ni 5.295698968570523 4.462192760720722 7.073709736990931 -1.3753206190779796 0.23836723119313138 0.6066304507491682
Ni 8.10131447448508 7.344892346452428 8.921412861694758 0.20302536135872776 -0.46347502627319537 -0.24102909429601072
Ni 4.787143670942256 0.48942447179206916 10.503327901416348 -1.1528690306738403 -1.1567627093012915 -0.8722950842056719
Ni 8.347829270999792 7.169654235866344 4.61345540860017 -1.6145527693745678 -0.6121264408667328 0.25497090118808347
Ni 7.255630887575289 6.015534515105498 6.807256523927399 -0.001620823432874628 0.12885392025163614 0.5727973042498071
Ni 2.509157121958573 5.183171637927502 2.551160913067882 -0.8764484442524132 -0.005076128971326741 0.5443156518703465
Ni 2.3688631892860665 5.359779930509157 11.311769760205413 -1.251376477423135 -0.2753972873632354 1.363922404543367
Ni 1.020821882913415 3.070886369878598 3.7189806389738638 -0.37768914085562694 1.3335684748418581 0.748910157488407
Ni 3.5294617838537916 2.7664337452729497 2.8362994159677273 0.41899879823769126 0.14150040537105307 0.2724865414743436
Ni 1.0330718543970114 3.548644331791808 8.19719817720572 -0.10454105453788448 -0.13104192904189044 -0.3296779030836709
Ni 3.5701316891793318 2.7540204408362388 7.2534113742235204 0.03778956004394782 0.23824998888897678 0.33940772877692515
Ni 4.121344109729366 6.782736618043715 5.976409920997482 0.19838631992481962 0.256905399206635 -0.4837273487643282
Ni 0.7980057904903376 7.5686584922194555 11.459717656541931 -0.45038836829256623 -0.2609109208216023 0.22536824783030218
P 0.0776312452100831 5.705129311764117 7.963243684785522 0.8083466063781691 -0.6320224084597116 0.3431473983250155
P 8.662962055928547 1.7752023490321331 8.297414740210375 0.9762879795495703 -1.2697405817526197 -1.1466654729662897
P 1.6405161810832285 3.5083827588490553 10.347876670694804 0.6648296847977195 -1.167200616805164 0.19808704351684595
P 4.183401557859971 6.247485456634158 3.7541879644230147 -2.0092705835777074 -1.7177815328589319 -0.6986533182153838
P 6.784487910263221 3.8836674407887437 10.489422822674522 0.5552932339277726 0.8846782883613733 1.3312475400181651
P 6.446542956216124 7.845426181272177 10.102288334986369 -1.5208627986185743 -0.4749074364798531 1.3203463197246292
P 2.4366826610404364 8.525971078530135 6.178703227861708 0.2120728162729767 -0.6461269661818937 -2.1128017087938384
P 6.807980633352873 3.8693758073912146 1.576456996871675 0.2679326035550741 0.16586006516234014 0.19296874845367412
Ni 5.251943885241706 2.6628715789453308 0.49637519635239125 -0.030891033151901635 1.1173968059091595 0.39126585109879713
Ni 1.6160706824337405 1.1598545222257586 7.109633912623196 -1.2887590318366515 0.15081011280775317 1.6608645079569138
Ni 6.85788792458234 0.9236024795984137 9.082124320911888 -0.6789247294382049 -0.5246780801450771 -0.04995833419599783
Ni 2.60063264975571 1.6538096686561683 9.346145687784603 0.7241560904721787 -0.3981831470439207 -0.4264873933052526
Ni 6.435717611045805 1.7819262222686847 2.413067438235948 0.7311525763946698 -0.183818963633606 0.7684682821259926
Ni 4.159700131552449 6.737702093248833 10.44514507389574 0.7092478059017785 1.60673918686742 -0.17448894448193175
Ni 8.01584596974138 7.209226180784835 0.4651640838227778 0.9362569317696133 -0.24657059293953018 -1.6609167013510877
Ni 7.447891921497097 3.5503321056406594 8.491447029268182 1.1845730466453404 -0.021121098249331366 -1.3078664420900639
Ni 3.1893844273632546 8.389016397343529 12.590949893544943 0.448530489148221 0.3987739865503842 -0.33098016683486225
Ni -0.1314639717460712 4.873084026439398 10.002748696331844 0.44469517456253094 -0.11549703932875591 0.5964805067993598
Ni 8.911618328939653 2.347294165421986 5.929448974761144 -1.284285055225698 0.1255107148110161 -0.26612306115016104
Ni 3.4658073024038445 2.742496393588707 11.447074778565563 -0.09550259848470004 -0.5484060198896362 -0.3828670855121406
Ni 1.076845085831729 3.532955294239854 12.613207638027989 0.47204374177881286 -0.5211623536823348 -0.30561983369320267
Ni 3.284498650393667 8.088828577624762 8.08696748936455 -0.43209342663812034 0.9038741445635338 1.2538449935682858
Ni 5.672616980041357 7.677737682741168 3.773910418511605 1.1048035426251812 1.4864670947475238 -0.12170882456642267
Ni 3.2281578556220745 8.301088824250158 3.611247130504757 -0.030302250527967173 -0.5477555307898309 0.7942438484281998
Ni 3.4557169555225413 4.665215621442194 9.356930199716643 -0.029141140340330458 -2.0935981392821943 0.1927437769270616
Ni 7.308142432001639 6.0214780197882805 11.31279240597297 -0.41274638957007626 0.4085701467051996 0.49827799288499347
Ni 0.5723295565771642 8.980953167536807 0.17267922765395502 -0.01565236182527627 0.5007511370158344 -0.008221359468527777
Ni 4.377713327748661 0.49675176954984995 1.8564423451007541 0.22761384933136927 -0.5646255670722922 -1.1074119267823057
Ni 6.136518863098677 5.566187412981281 0.3274834784001052 -0.4584441487175072 0.6930863656505677 -0.3433271184359894
Ni 7.98480363459665 -0.017021108525133413 10.935737376302578 -0.031906361790293436 -0.5543943762625871 2.260600288468778
Ni 0.17256670939736496 4.876749943831526 5.931547803208667 -0.10316268613311912 -0.8731278645196124 -0.6236490967943518
Ni 8.417880959780062 8.887363385402132 2.361351688253384 -1.6677200974261666 0.7250788593967642 0.011174785669896882
P 8.527940148020463 1.4187191048065273 3.7282379877942824 0.1140713626258229 0.8980356835048856 0.03954742327531899
P 1.762117564677062 2.9988202413432488 1.6504577134961382 -0.03914067475520355 1.3533585129845918 -0.6160939101549131
P 4.600817067650279 0.9887632538381956 8.184926427995043 -0.0630313653298721 0.04938060731565689 0.8233546497512272
P 8.608953292765314 1.6952236463236747 12.540203252417525 0.3107157601588713 -0.41077409633505385 1.1182046465224353
P 6.246532681074323 7.945966687967175 1.5134131991853177 0.035172948356707166 -0.4711546543056402 0.13284684346111317
P 1.8430853391571587 3.2637099950833566 6.054833331030172 -0.2977355458491195 0.634468813117675 -0.16201446616400483
P 6.903494114713122 3.8625248974133513 5.822419612801019 2.5552911339543023 -1.583455533749131 1.3551554569840145
P 2.448488003929443 8.491344492469837 10.425064194715592 0.7083060108137995 0.2375830447289392 -1.0705235383963885
