# total energy = -340860.10288072366 ev
CRYSTAL
PRIMVEC
9.30879580168869 0.00000000000000 0.00000000000000

0.00000000000000 9.30879580168869 0.00000000000000

0.00000000000000 0.00000000000000 13.62436360327483

PRIMCOORD
 96 1
Ni 7.858857901639984 7.856400379506429 8.39347974036025 1.3421950401686045 -2.327925396077997 -0.5317766388630712
Ni 3.1915579302199317 5.486045811324396 9.856464076696591 0.10274102521466821 -0.37618093174121664 0.8838807321607423
Ni 0.6594956130111547 4.140710692734048 11.147849137418627 1.2263992386525073 0.7653765305745464 -1.284823187117355
Ni 4.445285187763612 8.107002475557374 13.13199293175725 2.5687619147472276 -0.9802395079981505 -1.6062599332381562
Ni 6.788634938864415 0.01915377856819676 1.908214738328119 -0.2628562174734312 0.5237018322747368 0.07434730456332357
Ni 3.905440183629944 1.9065717358411018 10.345347146465247 -0.29800782567389966 -0.975847292467726 -0.7425315076555729
Ni 8.496072911519832 8.956988634704947 11.09772592556965 0.8091498190057548 -0.26903689236284634 -2.654935779631834
Ni 8.26446075922818 6.955057593045121 12.411877508572125 1.1762377873067678 -0.6769357240326341 0.03069177265690198
Ni 1.3436781529093902 6.453927871310914 11.566022593071795 0.0810537700492217 0.5892011995291273 0.1593878271744352
Ni 0.5265278406326654 1.2119586900691957 12.418811630683058 2.1830941265614983 -2.6946004452113077 1.6804712264442476
Ni 3.6821128597430817 9.358132579028092 2.9207771571655456 1.411355658324666 -0.27490517821816524 0.36842417061393323
Ni 7.39499129013541 4.584609936903484 11.47370354001375 2.2860467535663402 -1.07758841566297 -1.4098189099651655
Ni 6.150842783635021 4.79250327708794 2.421594835546262 0.12827773603319198 0.2962237371902834 0.6224453062942377
Ni 7.817042790185699 0.14264054226098008 4.425207045756544 -1.4107609621634607 -1.6291620346473106 -1.052856974354561
Ni 5.08827165113893 3.7006652900922337 10.74617645348493 0.6557459773288965 4.5882960850344725 -2.10944847605089
Ni 2.7075470842569698 1.1734109659970229 4.423081847638776 -1.146804055426683 1.8268495287328925 2.3612679760941853
Ni 7.348391457557458 2.077108877836322 0.13094776365507418 0.5281025324455937 1.012155639980457 1.5997781821685546
Ni 2.8690733117624863 7.5130175141178 4.746128717372232 1.0779108319993953 0.13891490403206397 1.4694062826104952
Ni 5.996996312796866 6.335706162613354 12.04449656719749 -2.7308383444974194 0.006104056015208842 1.6781387216563293
Ni 8.907800956849993 4.4186899577046415 5.027076557374608 -1.1169851722930375 -0.3062314991352726 -1.5668513495335468
Ni 7.383550779900032 7.523508527165214 5.76489079431931 0.17983606772645802 -0.6188529609572889 0.8813931898521981
Ni 1.722322737396157 4.842603216947016 7.950879073227297 -1.6419920965324428 0.8384832778625494 0.2234471195481894
Ni 4.354282398454372 7.47686215060746 10.679007905352794 -0.05695122057406321 0.6615551278115058 -0.0352919904330747
Ni 1.3591028278158355 1.8407399308088859 10.368876990014444 -0.04657270555321657 -0.4246891637542492 -0.8922203623746892
P 8.166997665522395 1.179582697718793 9.105925646553567 1.6864235873729407 -1.6564067292958762 -0.3318021485155253
P 5.109905292950987 2.2515743317268466 2.7696423385906663 -1.2785638364712044 -0.09071828972217924 -1.6032887664249742
P 2.5056486086710352 2.0624102890147906 13.620058689240576 -0.7415454895932196 1.4095414879340629 1.0917040291287456
P 7.127326171088982 6.5487007229841305 10.423524276700196 1.9674765303600568 1.3936083616435742 -2.5393438665964263
P 3.359460682958348 5.65284081734352 12.258004042225688 0.12215542518553801 1.0164221285662949 -0.7814562097452283
P 5.175839494738768 8.203292660972142 5.380983016596511 -1.6880107293544024 -2.041924622167303 2.6482953914971814
P 6.489012723285804 4.076014560809006 8.592041943473964 -0.20534603907210439 1.6310749353993073 -1.0132892393642676
P 3.61722124310287 7.238082225426271 8.56619607148981 -0.6321327087853307 -0.9576760208753377 -0.2255708507594115
Ni 5.3167653567838355 1.080192683249199 0.3297371013902228 -1.650557983824583 -0.8934241528748033 1.0516310723672597
Ni 0.040957771346330156 9.297746419632732 6.394922206356487 1.068676972105953 -0.8763407150299553 -1.2817175516088377
Ni 0.016734422498078983 1.668266559253895 4.648197391229639 2.879333436018751 3.265774097814763 -0.6534065305624425
Ni 1.5648923801132335 3.543542123076005 5.97489630030719 0.8173236130657987 -0.8257090089160166 0.5675435120500355
Ni 4.234431650463736 3.810900051855738 7.769143449691669 1.1679542071417368 1.682024944084613 0.22538855954527634
Ni 8.594569281577224 3.24637742963095 9.398072898975945 -0.714559447922679 0.03787646333079928 0.5902954610345705
Ni 5.134024383284482 1.7323948546253505 6.64051523930112 -0.5262037727609841 -0.15075920496515974 0.41759446169099695
Ni 6.2720898510197225 7.923228225706412 3.6903092545862473 -0.48612207424874987 -2.2903304685433583 -1.9858388349173282
Ni 1.2676439075045345 0.7293655737310084 2.4331479822127613 0.6265634422276692 1.694966077626313 -0.048529572169271264
Ni 7.64719449909155 9.115340562787955 13.149840686252196 -0.30375269857747683 0.10998613681285574 1.2535678286474992
Ni 2.9199831168701205 2.2526727696501783 2.241466841073003 1.4505881214627276 1.1550390417419654 -1.1947569291568778
Ni 6.075264669232227 3.752003299814048 5.953383672842619 0.4673388801039758 -2.282641070318901 -1.7024047932925455
Ni 0.9085831679593367 5.429429714293015 1.9303408154464836 -2.33441306068487 -1.6013496404207324 1.9729049004644794
Ni 2.8680586530027985 -0.08924342687271691 9.39502054478052 0.46351179304840173 -0.5866925741746605 0.07374335243073751
Ni 5.55713708607426 7.753035509161728 7.666334314465806 0.352723986269857 0.19568923270863073 -0.2042448355881257
Ni 8.240937431836153 4.293896239059012 1.5896770493578989 -0.09314463977548475 -0.041711263695857204 -1.0272493010887855
Ni 5.3862369010365825 0.6744920833034198 4.472251838781404 0.5620706618609222 2.8383821904173696 -0.4694289298637851
Ni 3.342388351166905 0.6801136651839282 12.375037017679098 -0.3305003989849663 -0.16827253125857472 -1.3087557866735524
Ni 0.5641390998312182 2.3620790485732033 7.634957155921959 0.500480656963267 -1.509578998174639 0.44058680882111223
Ni 3.618943370355551 8.915890300539614 6.890221829180671 0.3947052157976493 0.2402726757459604 -0.9409612792238183
Ni 6.13125707693426 5.712091303631707 6.752752323075715 -0.1158780768172585 1.0300564315202776 1.1853292080850746
Ni 4.55751203186265 5.93543724511049 0.3980096727232655 0.4827816970216073 -0.09622610691428589 0.06628818170427295
Ni 3.0095151164176106 8.586312379560315 1.0148244562558129 -3.0502115232209728 2.015197233474787 -1.4988364149461542
Ni 8.025429496556058 2.012487216278963 11.441059454339687 -0.8080308749099633 0.2326257007236639 -2.2241443596345887
P 0.6237703158741865 8.929490451437815 4.076886794990498 -0.293993562308184 -1.3265467921083864 1.0760624659367468
P 3.5958854827615463 3.558436196612705 5.101465938533255 1.002452810870396 0.12433572066630844 0.549797243810208
P 6.1779406886758546 4.239663193793501 13.064306814569713 -0.7412145886163622 -0.5188761287513193 1.558187760321278
P -0.08168654631203354 6.0362794317499135 7.026370417138843 0.5202442127434396 2.0194732351423217 0.6157825495620814
P -0.07208266151964988 2.507044928065101 2.107375497022089 -0.15480252179659792 -0.41116156158145967 0.5909770604826274
P 2.0737018585148017 5.7588866209248275 3.6258244323295066 1.2206659357131557 -0.18971167496895716 1.5515733403285537
P 6.986186206736824 5.516048060704887 4.586233390918984 -0.11899425384873699 0.42572634676951193 -0.8501545435528907
P 0.2947453373749372 5.44634379655313 13.335881627919525 -0.606810170860142 -1.225968578872992 0.1017264679072248
Ni 8.157465458458908 6.719265791367232 2.7311402276186993 0.05831699057333827 -0.48271561967036225 0.37318353967578954
Ni 8.334518757626434 4.169195608372989 7.139098074460552 -1.0892519680438273 -0.7325378867779707 1.2232025860920805
Ni 6.7517441804731995 7.028224729294162 0.6756147240962487 -0.1635617560464667 0.45093575615560405 1.0694758138581646
Ni 2.386309844458223 4.354570971129146 0.46901623742988874 -0.502062142517774 -1.7883290040601911 -0.7190447373875424
Ni 6.310777207031302 2.1781279315989925 9.36189984875328 -1.323051377360618 -0.48274981534240735 -0.2054835930912332
Ni 5.7857797324545315 2.1275160079620923 11.90815714892213 -0.10873272402172887 -1.3922809010814023 1.525984693226172
Ni 3.167131649619743 3.5329300956811056 11.967055762723012 -1.0529726739968188 -0.7582743723121264 -0.13812840357502662
Ni 4.715668475230487 5.567758422265119 4.369687524889301 0.3530731420791597 0.11133133798684053 0.9267021982016428
Ni 3.1282674264849155 1.926622882339885 8.13246482514796 -1.0063506032629055 -0.5155650621002154 0.0940776931127154
Ni 9.065045138213708 8.90152682837266 1.4433651179701221 -1.2404104653299346 -1.6894996551951034 -0.6293895988225547
Ni -0.13675272881600317 3.2221280161540093 12.942995516492886 0.5986695440308786 2.0873842971619987 2.974536500985161
Ni 1.543873118834565 3.673343973948349 3.742980283889596 0.1923480841505397 -0.42624622382872396 -1.808887802048149
Ni 0.6296450970048189 9.144868063574462 8.561904716552048 -0.5596970194224232 1.0553702276947179 2.1711022443069448
Ni 4.5602767442629 3.532399494311361 0.7651132119782816 1.3464718131670876 -1.7855779236776153 -0.8033913192554228
Ni 2.036010543670989 6.583645943019615 0.6266337015116171 1.606817091293207 1.8975008725018676 -3.1274279218019756
Ni 1.8115847818607949 7.6772991452276065 2.739804854898675 -1.7936167348216916 0.184760758721585 -0.27478845013464287
Ni 7.133758549097644 2.3481158546325465 3.1431680161787883 1.569314980582691 -0.03111086247219158 0.5162119516555949
Ni 8.824328983472748 5.520618679521462 9.457924733483177 0.012687622769997504 1.415704422211665 -0.580193082493246
Ni 6.456273687892945 9.129098963217482 9.594495009898356 0.5681646905738021 -0.8437522395709727 2.8239009660820593
Ni 7.198491916206529 0.4739573463256892 7.077870399910368 -0.5862662852705193 -0.060558735419663445 1.0157317873674894
Ni 3.1299709361456753 5.389020231028754 6.283188728443353 0.6533044577669395 0.7923761990918418 -0.9976245362438174
Ni 3.813385500377175 4.978046198171387 2.302230937584357 -2.3689332059489265 0.41995010640736713 2.183694736259975
Ni 1.765105963630329 7.500925388165191 7.318517669561222 -0.500546477204196 -1.3851599737659048 -0.38047853067530607
Ni 0.23976945019178383 6.63416477869691 4.87776719368757 1.0480778077983626 1.25546118901547 -0.2102697016259669
P 7.482745309654457 1.9792082707203977 5.592869830247996 -1.513330237686955 1.268671259947841 0.2143140468986696
P 0.9132980731132984 8.272252221447065 13.322080407028581 -0.38849548744251156 0.254120123152014 -0.32478175133363424
P 4.804325447957696 7.979890866717596 1.8339212377678653 3.090395551639026 -1.4657781989396046 -1.138799954175284
P 2.1071669799925754 1.0270394583150995 6.510947039207384 -2.4297572792148348 0.4032798448405377 -0.2953148522227688
P 2.2571409917111884 3.560344499784595 9.470771802788178 0.44768922419384827 -1.1346777044767942 1.1412311893245959
P 1.51123648019727 8.650459292523692 10.87716052144425 -0.914861753923289 0.4476930808485903 0.6012434754056419
P 4.843329303031931 0.43022183026476435 8.549615244125077 -0.7369925801152146 2.0553282971677183 -0.5621783910833802
P 5.928250854629032 9.27580558755398 11.947095842424641 -1.1902628979412662 -0.5157661223674278 -0.5484754396749908
