# total energy = -340891.68323825864 ev
CRYSTAL
PRIMVEC
9.07092803274483 0.00000000000000 0.00000000000000
0.00000000000000 9.07092803274483 0.00000000000000
0.00000000000000 0.00000000000000 13.27622007937987
PRIMCOORD
 96 1
Ni 6.18708960803322 2.1633528695190245 11.455041114623894 1.025962206846246 -1.1838071150135934 1.0741778473195243
Ni 4.348847874675136 0.20433898446110016 5.9231328553372995 1.5451103583120294 -0.34697140005679594 0.680704189936131
Ni 2.709078049444656 1.4376695458391198 4.542046852263682 -0.6020585151077695 0.5728554111812522 0.9791041088421266
Ni 3.4894409280694045 4.720529156006421 4.812258009925506 -0.9205870864428403 -3.3129132173944105 0.9949860701797059
Ni 4.784787611087588 4.64821571671971 2.5316688365031723 1.1250666637495914 0.03495209059515271 0.47965137892274173
Ni 7.030450082724979 6.054273077923331 2.8649156881302766 -0.0044786045966439 -0.6598574283941088 -1.8375064942261066
Ni 5.134526317201292 4.71062370245636 11.659017261958619 0.32252380853739293 -0.550805116249432 -0.40331815427764084
Ni 5.743557504751354 7.9606828363992825 12.670094662853545 -1.6766425967267768 0.6914717128652801 -1.617292279792918
Ni 1.6433256290689644 6.556992987445263 0.4259780431078019 1.2081300080296742 -0.2881293902179231 -0.8599507037077061
Ni 2.6187678886897006 1.4004515276011147 0.4048727145593334 0.4584240941128492 0.6670398050751609 0.14871620639320193
Ni 0.6003893142926042 8.913692690681831 4.530961270960082 0.5135336334924833 0.8623184326089343 1.051814906243292
Ni 8.606850403833914 2.405737140866267 1.6106575883957126 0.05409883872693264 0.7219909645000597 -0.9265602733071397
Ni 6.9092987662280745 0.7346707993002349 4.80709393052436 -0.9750564211353142 0.9600560910717401 1.7419684145177807
Ni 0.8520912430451789 7.311657926594441 2.5873362155245747 -1.13412543151775 0.7311006401108118 -0.707181410291053
Ni 7.713400263845965 3.6648001112468633 3.881209779809673 -0.6859507830470508 0.74981184336707 -0.3109093642269162
Ni 7.593818217920637 4.0012861913196875 12.695319099879196 0.44607611407045755 -0.9296329986951924 -0.5530070089967573
Ni 8.074386920877322 9.045946823245835 6.913339864723086 0.5943626891254086 0.7438365996202416 0.6824646242706633
Ni 6.903783641907162 0.5919751213319477 0.41575510707216173 0.9603581956931914 1.484921861747591 0.24053724226125672
Ni 2.207990906991416 6.133380642401431 9.36184643186091 -1.537557485665436 1.2668164661272892 0.309149444113016
Ni 8.981026190409032 4.962586873939925 1.1832445244530942 -0.13381666357355018 -0.004105537527941317 1.5264986567481131
Ni 6.609159895289953 2.1904477319311426 6.940847454366458 -2.027599978014514 -1.4868962118651423 0.5558642759398943
Ni 3.4774945156834787 4.570151308979941 0.47746191006209043 0.5817917944389335 -0.565871009443619 -0.09952354671863504
Ni 5.877780028725947 5.655850700378146 4.924216847825677 0.49706571774444724 0.16946063802940492 0.523634212261595
Ni 5.524131752575544 2.8598096626693525 9.369400700832054 -0.46728360138600816 -0.11067364979818359 -1.3848329294437893
P 0.2148168135780194 5.534218624688793 12.380566963676285 0.020962718294596158 0.13366651114893108 0.47956267586367735
P 4.085228560506747 6.366113446187075 12.597765802988963 -0.12914779734297113 -0.5062525264500378 0.4900273228404271
P 2.4648433087528967 8.415426606886163 1.357453513939942 -0.3205399453381447 0.37037512369271697 0.6569793355153654
P 6.579116981226031 7.906719884779029 5.965908631258567 -1.022791008207116 -0.8752878482854087 0.1950693397364447
P 4.412081314874292 1.0668137189703406 12.578846568126911 1.509894986753161 0.0984259427790821 -0.7881205091392814
P 4.022412383002924 5.953876045055128 8.193539004807894 -0.022361398414335685 1.4019672751312309 0.15163363715031306
P 4.730371113059367 0.8795444071195933 3.8336545318412187 0.3661567147359952 0.5621886754960252 -0.12385081061008993
P 9.057893235631761 5.477997011956852 3.5451228205758616 1.2748002556637141 -0.26704145919937233 -0.155374592249984
Ni 1.3647574252938883 1.017812565053279 2.5008412871534627 -0.06579941499331247 -0.16289661165864203 0.0879561535960098
Ni 1.8787071438771523 6.650096994073312 4.5596381032432 -0.6145401925145481 -0.6917290802917249 1.732833284985732
Ni 5.985306811127438 5.426655558574666 9.142283708669893 0.6593072123175936 1.3274500206489461 1.5679160433526351
Ni 8.628611560488308 2.3350473977200874 10.416907856307935 -0.37037949456809116 0.3988254086136099 -0.4276346195358183
Ni 2.156114268847826 5.159444156855154 7.1198776421700245 0.6932324043101287 0.49593751767727495 -0.4847827866120361
Ni 0.5372121138480372 9.1764230538906 9.26409357455117 0.48794678616231446 0.46150350436912135 0.00799818771412816
Ni 1.5492147494152224 1.0657342785193722 11.323965295627795 0.09851438872783033 0.8856609639896167 -0.07717037583441548
Ni 4.27871145814668 6.932556626028768 1.616247094327533 -0.5154107959105383 0.048628045420348515 -0.24489834744342984
Ni 5.6073484475098505 7.807737916703693 8.017363438096089 -0.6231464461263204 0.0658202409289189 -0.4369031893219379
Ni 5.305975930342051 2.8784232072524345 4.7794257854525695 -0.22825045447410366 0.22881455450768978 -0.26434437198318345
Ni 0.6679749858226379 7.393931245000169 6.877573194990585 0.4090653411740633 -0.341504977625586 -0.14223111288949053
Ni 5.096410277075506 4.373094465645204 7.294805049167096 -0.38829417006498285 -1.131405975704058 -1.432382139977662
Ni 8.22885575650369 7.3973872686289 8.875259168070466 -0.741724181262929 -0.1925324322472039 1.1539555788698
Ni 4.590379478775396 0.4238636097538465 10.391297904835511 -1.1035704415490284 -0.5608897541789437 0.3493010766312371
Ni 8.206214719817835 7.107743461571199 4.647779405075242 -0.31606031230023635 0.28096269726615486 1.2461545669025638
Ni 7.386502154837622 6.073267601489109 7.075587928338954 -1.3507444724005127 0.3686907940117586 -1.0648848520533725
Ni 2.388330029728384 5.368075504521282 2.41669663626845 -0.49599485327777154 -0.45697116371640656 0.9324519562012263
Ni 2.524266959125105 4.848356675628641 11.631721024941363 -0.9233785331450485 1.7185587773445887 -0.7586330412031257
Ni 1.2126107472763255 3.405208289181245 3.6144773230969776 -0.7547121088821648 0.14952713233027154 1.2103043899731738
Ni 3.9028938335747108 2.4311175978562587 2.517344026753853 -0.7800534158604309 0.538138576525357 -0.07652760004409401
Ni 1.0518739002918138 3.39912169638629 8.277431483890075 -0.08732186244612057 0.2786700445772362 0.2146493187509013
Ni 3.703904882542023 2.4169941627120783 6.741744209638961 0.17698085766585003 0.5089845806692201 0.48468174225779753
Ni 3.784518221094582 6.759628451598028 6.1922146824432795 0.5174195988104509 0.8476628874792884 0.04452996409157492
Ni 0.6754603157397722 7.326942440543023 11.311605248917802 0.15557513829656433 0.30302353372093616 -0.8042405546295955
P 0.1266111081560448 5.597615341594818 8.106659469082823 1.4099873172222297 -0.21264642938825956 -0.01982500514572715
P 8.595167048364612 1.8054049734210667 8.051788517553815 -0.5397627423923415 -0.9481475125596123 1.0133056944245
P 1.613391566142955 3.2431833703980995 10.458249518487202 1.2474506600061679 -0.5985299331292208 -0.27825532563732075
P 4.123698366830748 6.387148928588717 3.9571098640906097 -0.7228060042021875 0.7165849629931401 -2.3951468882298173
P 6.986864272919078 4.0098310056458395 10.56197648908272 0.1472974716688044 0.6178049793087489 -0.7280310000465526
P 6.390305611588187 7.670004943531411 10.107292586721691 0.16184760156883737 0.2429160269060784 0.7153947993397809
P 2.329260145554392 8.528985556513652 6.0026966875018175 -0.7922887815843581 0.11792878869870013 -1.2602871496492036
P 6.7937260705492 4.0040346825519855 1.5426573754487944 0.0942062482707797 0.033622058929819516 1.0590517903113632
Ni 5.375894644594681 2.760065736628625 0.37780415783887733 -0.6829739598069141 0.4322818884998426 0.46021692434721384
Ni 1.5240429237728963 1.2131822157503676 7.166251855292125 -0.30204651451964754 -0.2809727245684838 -1.068032910764051
Ni 6.702526958834625 0.5950556085348788 9.376171241610228 1.6248042718992468 0.5776384343921923 -0.9811748753282263
Ni 2.709132475013612 1.757202061182032 9.202558212103455 0.7992808966314751 -0.5853728269219725 -0.30640710548118844
Ni 6.325121921834762 1.827356619566807 2.587535775944082 0.6578571101346283 0.9016663382789375 0.0976651533536576
Ni 4.304046560495876 6.826481192132782 10.375645111203655 0.18368938003427718 0.7385123591938507 0.36220878583184074
Ni 8.16403490387664 7.3599152644024315 0.33832294302510263 0.22785064793252371 0.12030474513004442 0.6539096954511061
Ni 7.6467289418743984 3.875789900234433 8.204346108616999 0.5727147718383298 0.32588141215571614 1.0389915292263785
Ni 2.987419480015747 8.349127192969132 12.381151131449752 1.8129894829213484 -0.6317357304572281 -0.0132622643265449
Ni 0.1742253171575346 4.967748232062622 10.217631356852594 -0.7994156224371265 -0.5375659918513387 0.441434244423072
Ni 8.712408794824814 2.6128355016734552 6.021323838477138 1.0537159799207465 -0.2483585380778884 -1.372501918682262
Ni 3.7112976889919316 2.808096301232631 11.277950291260808 -0.1552280393697907 -1.4194703170120007 1.1121880080147104
Ni 1.2388892261540982 3.2291506445355127 12.848035432185169 -1.18056906769227 0.10720600296455729 -0.0735471772595314
Ni 3.0010530850393202 8.305650234301142 8.077598029445747 0.5207278372480774 0.21354168750901936 0.916121337362003
Ni 5.692234193225486 7.887616510075341 3.9480162586108145 -0.7879996672907009 0.47834705828902135 -0.48884950048224196
Ni 3.1141403464025204 8.294801404222504 3.451139841009167 0.6973009179525474 0.7631247584258921 -0.1218353228419579
Ni 3.5986004775395855 4.2162490468410745 9.390669306087393 -0.4499062864498252 -0.42036328268538575 -0.3459951521864557
Ni 7.239834317428335 6.38559779987346 11.610997582468404 0.8329186392905785 -1.0601825614816969 -1.907098800602948
Ni 0.8698312572465111 -0.17946377816958628 -0.06085594992857729 -1.7838966793204505 0.6000448271118504 0.9197049409482032
Ni 4.70416520160687 0.36214138618604685 1.483431471310461 -0.919882604176648 -0.6543485827607377 -0.07001036775086651
Ni 6.218547586890008 5.825676617378373 0.32813084814520443 -0.9826532596459656 -0.6596851644823026 1.9395535786975435
Ni 8.018074598863786 9.117824857980894 11.502530144816784 -0.2455562927424029 -0.9508286589362014 -0.7754997350514773
Ni 9.176332344609005 4.995605052440129 5.844842581486362 0.20251011228520607 -0.41388024606420337 -0.9358368135130594
Ni 7.7168200037620585 -0.2531804900425564 2.9217241899141313 1.2016312876792081 -1.0854313087461565 -2.0618172473261716
P 8.470015452549413 1.651498535340581 3.672999323210142 1.4350098074084965 -0.15788218916318617 0.01709012271306734
P 2.002733944600585 3.199289149034778 1.655213080421854 0.11824426305658992 0.11603954209578726 -0.5360045609014897
P 4.836464688811671 1.072492119998123 8.159591963264168 -0.2722011490234409 -0.27492831814661683 -0.167809218468911
P 8.50677085345129 1.76595550685585 12.610364415109549 0.15634955456874364 -0.0802767826738811 0.8638598089541251
P 6.2857903773356165 7.8510697405211305 1.546759249162474 1.0009482013004116 -0.6625779126490654 0.24091982241165602
P 1.9373779072121309 3.392790188531031 5.8843528232702464 -0.7909584928087088 -1.0753322726389416 -0.27703636562855516
P 6.821065848021623 4.133159344900999 6.010118520921836 1.3045147520090115 -0.8351339017743424 -0.2999711200478576
P 2.451382051364351 8.31382314057276 10.29748817999666 -0.7386833375540761 0.1862633114090405 -1.380593694551461
