# total energy = -340896.4865834391 ev
CRYSTAL
PRIMVEC
9.03887430144195 0.00000000000000 0.00000000000000

0.00000000000000 9.03887430144195 0.00000000000000

0.00000000000000 0.00000000000000 13.22930620358263

PRIMCOORD
 96 1
Ni 6.386913780655337 1.8705498437425698 11.346603770220279 -0.008279723510288967 1.3222378803203874 0.566914877327101
Ni 4.530383230965025 0.27219666092180894 5.9967914460695715 -0.29416762599220303 0.6611404088715904 0.09703497596882643
Ni 2.6246631272886454 1.6815198653319374 4.832823965322591 0.4468965530892239 -1.0049411245098887 -0.26736876063180404
Ni 3.243744667542203 4.254146193227382 4.886336812890346 1.2520763317036374 -0.5885895340870573 -0.7412716671065427
Ni 4.866828210470624 4.480262672925196 2.350940704383586 0.42202061578315064 -0.16572868179079844 1.4804465995850569
Ni 7.531488356573741 6.0650936997806575 2.475732306972169 -0.4934911130193113 0.6253046301199037 0.22223433018701083
Ni 5.161784756900872 4.338795251125129 11.480511077548837 -0.1577973427588637 0.704523918063548 0.25652564726971305
Ni 5.640899328489548 7.727830784299833 12.526936132902536 0.05926547052953664 -0.15053731876234075 0.12000315472922557
Ni 2.2297818253795314 6.484922294780832 0.2224584472652227 -2.0127256320058433 -0.4098461852041458 0.6840777343940542
Ni 2.681644190928517 1.4765724292642912 0.337075892932321 0.19377144686062756 -0.08650245186861875 0.19669684803753867
Ni 0.3788752632838789 9.02245971261124 4.836713392937477 0.6733778314780468 0.6204691564044734 0.34893160910696036
Ni 8.659792958737107 2.269254589484118 1.4085106096098072 -0.08921727969662054 0.7262350844883945 0.292743749061483
Ni 6.7125030721166 0.812583049784533 4.669666860732194 0.07893158149989633 -0.8562100057183513 1.0558556519715685
Ni 0.9330287616056587 7.368372830805162 2.4187268383716654 -0.30463047319673986 -0.9466151350754858 0.4621231402309912
Ni 7.588125942989895 4.061301809858624 3.789097917837368 1.5955911406704004 -1.545206003349629 -1.454085850203341
Ni 7.675025680590422 3.867282372829779 12.608004892686742 0.2790927339369516 -0.6146708045551413 0.08498267278998267
Ni 7.963085565923395 8.889118238814385 6.9864894301514635 -0.5350722788952075 -0.005308299586790858 -0.17219243513827118
Ni 6.65276515181268 0.7025609678158025 0.35316056976403915 0.061628314334758384 -0.6831516230353589 0.8010999521180848
Ni 1.6966328631755074 6.656588595645115 9.314913394745505 0.745784981595864 0.10623335463864284 -0.37003856628890464
Ni 0.19331802038251633 4.844447957683136 1.3421661760739108 -0.032276086424886344 -0.5207607473685418 -0.17244208925523205
Ni 6.197910918867629 2.1499324097395216 7.0708393013096025 1.1556152259604098 -0.5161479311868788 -0.7213168212511707
Ni 3.31476310298295 4.111431406772762 0.24225900532510564 0.8866338694258471 0.030612582679534376 0.13205905745249516
Ni 6.1103694211912085 5.640094868676104 4.681679524687999 -1.2366965068134572 0.5670213209979783 0.022262153832310047
Ni 5.389772283580514 3.1103851159967295 9.109779757867107 0.029887788698367883 -0.6885625096382851 0.8106629132161716
P 0.41007564962145937 5.484562958452235 12.430679352617998 -0.6656390680728923 0.4808721387037202 0.3073221610962901
P 4.178725825998466 5.962945381221935 12.611828336519178 -0.3436721604802339 0.5349002720937175 -0.7680407076702708
P 2.4988329580420325 8.405782512923707 1.403285236372147 0.23388888370680366 0.25474695810273545 -0.5989428522969233
P 6.243096251535097 7.846194843367744 5.901514479760061 0.8960564482913278 0.422581373382627 -0.009660405907899492
P 4.632332694288964 1.0860388258974958 12.529555598677097 0.741995946867077 -0.29491298879865985 1.1616125811944251
P 3.889933791846517 6.104720124748487 8.188953476577728 0.5723249925990788 0.6459428751955456 0.43376464369295614
P 4.501431716555364 0.9496422125844156 3.8476246289839677 1.31781661132424 0.9677321195597591 -0.11294573366181193
P 0.3846239873439928 5.553430141807594 3.6216681373614117 -0.18078429057234027 0.16009616609536942 -0.13231205400356566
Ni 1.3829116136811144 0.8213498539762066 2.7152624761435824 0.6016299122107832 0.7065386345007316 -0.2041751586924548
Ni 2.026280609201222 6.253274024006305 4.9505254749037 -0.603363092851806 1.8704145578080367 -1.1153332385119112
Ni 5.94528342082341 5.502297229845229 9.040418148087083 -0.16931408514921162 1.1999495291014108 0.9708500963634504
Ni 8.500799159653138 2.4477271627025923 10.076114059636762 0.547056190729961 0.2750838698878746 0.9842740830788403
Ni 2.280869542970355 5.2997360565949885 7.031336708919799 -0.24778183963881198 -0.2608918946582087 0.6283706706397372
Ni 0.5609480201393704 9.152492958411239 9.220508679806752 0.03608568997896366 0.008424476618269363 -0.32072377921417666
Ni 1.249606295381492 1.191522489076001 11.44290032155177 0.15681929511631057 -0.6612949321715837 -0.07478053544600025
Ni 4.131913495955494 6.705778149631184 1.5587168150911928 0.668859374782403 1.1490167468072856 0.9129735357616406
Ni 5.562017072400532 7.9273277791595405 8.148379777582385 -0.0026374376228470706 -0.20427337483321595 0.033685050957271014
Ni 5.392529140244563 3.0217951089005406 4.929543535971715 -0.9168368753717888 -0.5792749415543507 -0.9376692387361077
Ni 0.9067798706141952 7.479523868175007 7.025330376941896 -0.3964214271578076 0.8298924508697451 -0.2629269228103665
Ni 5.163809464745943 4.657406531620342 6.912113956792593 0.19786207199023345 0.031944671227396595 -0.294515496249925
Ni 8.173293626838502 7.267562265644077 9.313458135981861 -0.7084006274101349 -0.3221304297537162 -0.22189982966572755
Ni 4.679877173150913 0.2975922821785637 10.517655838500469 -0.5485926819791455 -0.13259076158624908 -1.1087887525251743
Ni 7.924851127599052 7.3240371523226795 4.644518000744058 0.20684242111197282 -0.7625416322289126 -0.029802170963097063
Ni 7.245426062462915 6.135732502500454 6.995458705127644 -0.4061414826590489 0.5080471564566154 -0.1127780977356961
Ni 2.386877460858745 5.0887958468609025 2.470017026746996 0.21769890421050248 0.6944176828674814 0.8101615480997209
Ni 2.3451720947999943 5.1857016183207785 11.385657130556957 0.49076291545487094 -0.2798190705800149 -0.2914337720008077
Ni 1.0908023126579989 3.2422442144070156 3.588039005497176 -0.900981653507087 0.25795749462023315 0.5882447491531289
Ni 3.427685759717231 2.571948412322318 2.6768445486707804 1.2774580050015354 -0.2335548974061526 0.4438719073302872
Ni 1.3189254224522677 3.3468149512803773 8.172589498529883 -1.4415823184196914 0.07660550446988097 0.43606732368420387
Ni 3.658195132328906 2.9071460271733627 7.042965220717497 -0.258619039463632 -1.0820485083168527 0.36098596916833314
Ni 4.3245680629637775 6.851990980443138 6.025486256448876 -0.7752583084646325 -0.18898662387747453 0.29500657695373067
Ni 0.6945055230321963 7.495305742717395 11.595195410885816 1.459074304556868 -0.26994911976447056 -0.8298137751130095
P 0.1059554924174015 5.788721078928389 7.945732735026214 0.41577540620438713 -1.6588665036902785 1.3522046018858067
P 8.446086853464664 1.684719626837095 8.043894006127521 0.369869387700892 0.03346110787192302 -0.5735786625005219
P 1.683906128149343 3.158842521163822 10.44322793967061 0.44825126734490545 0.12572051682897703 -0.4323248259226361
P 4.031274669406267 6.113270899844191 3.909379122146081 0.16802544824477514 -0.6309523153239842 -1.3041810228186765
P 6.9729130409403135 4.078855303765449 10.416265881496216 0.6401056996884782 -0.4019711533314432 -0.7681906029845738
P 6.260206840600813 7.716089286573279 10.39147405704326 0.3572398718623396 -0.3394488664275057 -0.9959492054239235
P 2.3065037905088506 8.51699682241371 5.790427618397806 0.9841079898146213 -0.16075899649034894 -0.5319802702334451
P 7.0015662724978 3.891280584118462 1.5776216207071176 -0.0007800726991341405 0.20025551192307445 0.6856679616993094
Ni 5.4145026436881745 2.831427377092271 0.5258889383595531 -0.7874329961539536 0.061521099332932754 -0.6825566697638374
Ni 1.6100404473014645 1.140046099889918 6.9875605367570035 -1.1941244377792015 0.3921937622297052 0.2701648353197025
Ni 6.847787903889752 0.7371256231709528 9.300466561938462 -0.5337702722543323 -0.21770121820334762 -1.2440331496841865
Ni 2.6468354859670407 1.4719445256184132 9.201379710107979 0.8881479920775285 0.39471704287219117 0.6706560616715095
Ni 6.190300186699995 1.9588686846095087 2.6825327122730283 0.5563944374117514 0.6496915436047005 -0.5513157373372635
Ni 4.030569637210216 6.9410510090033615 10.338742168215747 0.6436247685853302 -0.7720295171146897 -0.1027713642319714
Ni 8.270235553795612 7.2528017838985335 0.2015894942620922 -0.771258186166304 -0.4675743931535496 0.8659516584861473
Ni 7.7074662004831085 3.86980421876181 8.15672717800615 0.417490589123281 0.2016516209396527 -0.48134856411950644
Ni 3.281590434271286 8.296719455519092 12.380738668176905 -0.3351618090163776 0.6298097170791088 0.33396496049479907
Ni 0.20108241341339345 4.963743020804808 10.193934882358743 -0.740540188257157 -0.7772614549375904 -0.3312719870436682
Ni 8.475408961720968 2.273231694179795 5.781127520621939 0.7514732902298928 0.3899013666511027 0.14518299642896287
Ni 3.649590123987352 2.6046510595699472 11.381357338048474 -0.871485443820183 -0.05442434038715143 -0.5220028473057591
Ni 1.103529047684163 3.2829643431661557 12.68847889454146 -0.709002779770508 0.2660374434148902 -0.5256880094668301
Ni 3.1140097045943804 8.452305598988811 7.988318487442599 0.2887032604435221 -0.7784441623917819 0.16836920473743908
Ni 5.669950270516601 7.802392458469455 3.475140753723527 -0.30287543817884616 0.15524552287128748 0.514864436488765
Ni 3.174362268351268 8.213299684527284 3.6811466419726813 -0.3322081257046924 -0.06297222995716252 0.2585303364045677
Ni 3.3496983521847423 4.252446884857411 9.267604830503005 -0.1511422993361913 0.4226474507338721 0.23780441671112593
Ni 7.306628280404788 6.009757711264907 11.498595153377563 -0.07442109522405248 0.30216272838253766 -0.472650007904244
Ni 0.5301570948079584 9.185484849636735 0.49723118736491284 0.30743940340044473 -0.3382103660347143 -0.5994997532416578
Ni 4.504504933820205 0.3208303241379142 1.6921477737437014 0.2443915830103404 -0.3634002350367806 -0.5067757459433595
Ni 6.006241589158957 5.519507246528336 0.5724400449350132 0.6262258563825924 0.6406751990387032 -1.4429138927469214
Ni 7.960373903630887 8.899286972411286 11.261420514850908 -0.330121932599625 0.10706947738669302 0.5802637878301813
Ni 0.04399852847078068 4.953637559328067 5.834070919108268 0.45170554444209304 -0.7176128900370222 -0.41581602963433545
Ni 8.104806076204095 8.796957876366395 2.5049956625454692 -1.165571308731857 -0.035297646860029536 -0.06518235023460388
P 8.501251103368556 1.617334818868307 3.5521745600164842 -0.6694198752715632 0.09192233733260943 0.8293160095409847
P 1.832586571647478 3.180933529973442 1.5087761306500993 -1.0713216088176518 -0.21481155536037844 -0.22805119397910403
P 4.715770543029391 1.158340781490029 8.240177681170609 -0.5978329070621962 -0.6755681542611461 0.30666987222427183
P 8.30200719698948 1.6091636764935537 12.531724928511103 0.8798063049810526 0.5290191307225921 -0.7310240212366055
P 6.421939418600213 7.722190526731419 1.4595233045438716 -0.1829627862808978 -0.028207315672151418 -0.6948259740494936
P 1.7111131398174924 3.26200319364508 5.993061102642513 -0.7107097351592856 -0.04931195886125056 0.2843789220365554
P 7.064838392656286 4.020446097984858 5.809133568778947 -0.8729900533901674 0.14432373375246113 2.3894256694753238
P 2.435506604637696 8.506945594182818 10.34665389489785 -0.806070922970115 0.6229034768775787 -0.36607006855945984
