# total energy = -381165.91733276355 ev
CRYSTAL
PRIMVEC
9.30852137898898 0.00000000000000 0.00000000000000

0.00000000000000 9.30852137898898 0.00000000000000

0.00000000000000 0.00000000000000 13.62396195790744

PRIMCOORD
 96 1
Ni 0.2470872515550979 0.6708884026531141 11.780380536277267 -0.14337936756132083 0.42356327767992213 0.45882698597822263
Ni 8.291099937467534 5.469547498323634 11.930149059162515 0.8058541789736187 -0.4897982375487565 -1.0970148998186977
Ni 5.45526822662264 3.3836102648138526 6.624229541113705 -0.4900712887044851 2.401631467512896 0.9198185837079321
Ni 4.061754659833932 2.9235645242620167 1.5497394109118823 -1.7087353634962636 -1.427701189562225 -0.6118996695679074
Ni 7.442851623892069 6.835861565822704 7.618533208420881 -0.6613566386474546 0.7534910919908702 -1.5146304445556174
Ni 4.23949156586964 8.328985619229622 5.522282133291346 -0.8823239291965836 -0.4433890541565977 -0.228445086983413
Ni 5.531812197416168 9.026110089216017 11.419727462944813 -0.23993586123183194 -1.323882615012662 -0.28629876476708754
Ni 3.5829708658700357 8.784349173558773 8.069431465074041 -0.278951580373397 0.6773905521818656 0.05682369385726343
Ni 3.4390238922167318 4.869157181868354 12.158990678083246 0.30880594473066814 1.6813744549848078 -0.7047735721805087
Ni 6.371682841805913 8.38788994212655 9.132482285719234 -0.8952828033500968 0.3917818715032672 -0.166835541701732
Ni 2.4003046154432646 3.322006470734858 13.638811923675373 0.2737594946494963 -0.3160747104779395 -1.0953951048270878
Ni 2.6229644453570664 0.9219289832117402 5.5546934736666325 -0.2590854375770893 0.9132895243401626 -0.4419870316027485
Ni 2.916415579890202 2.944918272164285 11.087016708903128 -1.2020174673740331 -0.7413434008847426 1.2677261224257521
Ni 8.93589190060713 8.214407030332927 9.23719570372368 -0.45721001920008997 0.3312809859047327 -0.08375702791299769
Ni 0.20903401640929428 0.5306155023638142 5.431982960546998 0.23491681075068574 -0.12930257775328052 0.39611032367529203
Ni 1.433949783391783 5.241833141334448 3.8824883637457646 -0.8387918102419039 -0.8470077703937928 -0.49520681015883744
Ni 7.7346830757159655 0.8143457480851195 10.004347248729244 0.285889702254127 1.4908276857090648 -0.42898213470264834
Ni 7.712742890970696 5.909710237341361 4.916424922266317 0.71107406047724 -0.13704031271717046 -1.3345385520646111
Ni 0.8519633444332657 6.730014369921792 1.684439299488415 0.0003730670687025833 -0.8914647151555873 -0.6937080583949665
Ni 2.1727205777525227 8.581953994553096 12.321102300235454 -0.7006569789089739 0.394254758523792 0.34277330281504836
Ni 1.4634484874468348 6.802751155496476 8.04443156937172 0.7910104290925668 -0.4702593961848804 -0.23657362962781836
Ni 5.838565208911964 7.580273324101828 0.8584746550948337 0.31745359310333715 0.31883504683189606 0.7175591539809514
Ni 9.162759182156426 0.23074241897375822 3.0325170428744364 -1.4748966163011052 0.8464588398688583 0.689070045402323
Ni 0.10456913592402495 7.476855652264774 12.936796756588782 -1.138517904158491 1.7685556780880056 1.1326552747301266
P 5.662838943480828 2.1010449636080293 2.9084028047401267 0.15218051079271855 -1.695629422241925 0.7356980296735072
Ni 4.126486117075594 6.8600544127268 10.60566841731627 0.5722702281017434 0.8315502981881421 -0.38467457103452457
P 5.980845957249441 1.6372385804439367 11.764795279035432 0.6815218007414199 2.6113247278101026 0.5666335986412564
Ni 6.647121987589751 -0.008071418834375321 2.7228988685171247 -0.4367921176653703 0.36847276446368155 0.22684148994171902
P 0.11160265463150275 2.0699265768437387 8.447251313420168 -2.1412044283062475 0.12544052369471298 -0.6810394617883625
P 0.5464167173002138 6.716200524286671 10.298257293363331 0.28287919756257734 -2.254452009479195 1.1490969652259178
P 5.61036680881427 7.635351844737279 4.0307312199870795 0.9504707613761503 0.1615976903415604 -1.733921632953904
Ni 0.010884453976513738 1.827765394769844 0.3612813985213834 1.760769863495 -0.8835158926221558 -2.409003591607251
Ni 7.495398226729168 5.713616927267609 0.46999003387528576 0.2002298008914616 0.18689760255892973 1.306153573164015
Ni 3.4670239243396708 0.33619772612720605 10.485069076831438 2.2231660548817196 2.168205125264808 0.4180932557042864
Ni 8.5216813190225 3.6229323478859197 3.7287832671953596 0.5467471441299745 -0.2300114030292684 0.4542915600017144
Ni 3.4716409509131343 5.020429961798503 7.523138551107349 -0.6766873554672539 -1.0136959878843832 -0.24431290725360505
Ni 4.201689660799408 9.043712503027345 3.0177621057341204 -0.1476476559193715 0.06480054141515292 -0.8936236704801189
Ni 4.9409072641833855 5.043896744039836 9.229280668047439 0.1641047730341303 0.892026244086012 0.254742073006729
Ni 9.390436305060343 7.173974985637044 6.192131704965431 -1.3020516351804996 1.9379587234065978 0.12429072636098593
Ni 2.91352062976047 6.278523160460707 1.0348664798001677 1.2965430466574444 -0.46918441795314675 -1.0954640103918103
Ni 0.5962582638424572 4.1859489512515715 10.322630725580986 -0.16497226324074815 -0.03325361984680724 -0.28600103102101065
Ni 5.949997517603356 3.845852816396611 1.6542350095174994 2.3342284554778896 0.6415964253013918 -0.054036875140745656
Ni 8.611964667280608 3.0366072071413313 6.150510513598642 -0.8324075039821148 -1.0905537175743865 0.7512580888952932
Ni 5.400841302479413 5.898772724793338 5.216642420945119 -0.8758092680065175 -0.3267653574225663 0.9377386585214625
Ni 8.638950070579945 5.19916287961518 8.813245616284584 1.2109859894212307 -0.12523792076560367 -1.4618564952876953
Ni 1.6393795403469542 3.643923063456807 8.177006322531478 -1.302876702184956 0.4322638907777136 0.05427238819031944
Ni 4.16493961863805 7.6043730857927505 12.841306221505683 0.6582592306690535 -1.2601413680999587 -0.6728633537354735
Ni 7.354243809471103 1.596430022988163 4.598128413484731 -0.2716766439785385 -0.18976001170838933 -0.5740190924720502
Ni 0.3353971932939039 7.394316993742797 3.9549542713501102 -0.8386046339317621 -1.063676176457252 0.45570463829915714
Ni 7.013235439527031 6.257402125591375 9.814566046960866 -1.107030375073171 -0.3086845886614555 0.6489585220934179
Ni 7.774225674272564 8.372623967165906 11.590312632052312 0.32835635605877 -0.16993989165866863 -0.5937985890918225
Ni 1.3716013076073916 1.1503191388485747 9.825137734621112 -0.40756304559692386 0.023761106975339723 2.1657216967213215
Ni 7.076449607793947 3.4168882285237956 13.3613602755827 1.7381130453274323 -0.2857169241216886 -0.3545906071649506
Ni 6.719644677174133 1.6170390891850344 6.926586137991261 -0.27283132640827207 0.3402194260449431 -0.08497135993607302
Ni 1.3856199407114962 8.999040909224822 1.5714831858573526 1.6243139625263896 -0.03529584708781663 -1.6249302559541496
Ni 2.0106033704875235 1.293912388691815 7.735780550379295 0.5780549531043206 -0.4178029781573772 -1.1438796826910365
P 7.388368848620937 4.826021494083213 6.718289356470311 -0.4631875769397636 -0.8665191009538431 0.7818986965992857
Ni 4.676982759269254 6.916156870707171 7.434977545709624 1.1934729202381318 -0.9348150571167643 0.6977498325645081
P 0.8081918846421423 3.1512788812512027 12.019917646191768 0.013568225602737922 -2.2417466460973845 1.7211476211176875
Ni 0.35746769733761724 5.0633422450720245 6.505400681383453 0.16012470534045972 -0.3664883870438011 0.4235362810967286
P 8.12888964498936 0.11908949832714116 0.9213807113061414 -0.2250062365051931 -1.1548132988844046 0.13224006311504966
P 3.4651529115548603 8.764857129919998 0.7629115135454576 -0.16203374943771448 0.8140487989692691 1.005457916245307
P 8.74688237525597 5.418909142356616 2.6820400450462363 -0.22877007442299954 -0.2252944571695733 -0.4594232248013249
Ni 2.127937281694191 8.54500847344407 4.040853306067692 0.8834909529214915 0.5102616476094309 -0.4092021238622437
Ni 3.798556219582563 2.9324820876841495 9.128435871502532 0.12089352775397891 0.3397414579672601 -1.5929588452538759
Ni 3.443827089216544 6.481272063276448 3.3395604802353374 0.9863322511594498 0.6559025575114188 0.46648938761948694
Ni 3.7092037234562008 1.251744787123691 12.909303108025512 -0.2751095809194875 -1.269285496493072 -0.09284304937466592
Ni 2.7546800219992194 6.040839377140514 5.632404733033372 -0.4595080712056473 1.8471219058286832 0.7565465909877422
Ni 3.32938812813961 2.1375250586511814 3.481440031304032 -1.0454059173931542 -0.9259498934166505 1.2991318904305431
Ni 2.12253833933006 8.15526999440306 9.92579170647901 -1.5778646699249148 -1.7942088598797359 -0.37472723001382563
Ni 6.111025627874213 3.721937780618495 4.274055036373525 0.4880280330222112 0.08872825587534397 -0.01739299866546682
Ni 4.848417796373038 1.3467661727323905 5.586873031861115 0.5457600976263569 0.415794946588413 -0.815436166235099
Ni 8.049357638852925 7.393805025070337 2.360228638615175 -1.983996125281635 1.0244393424438163 -1.106504584476688
Ni 6.775170006832822 3.685513536703248 9.089048725251935 0.47659793680839857 -0.4969980977313054 -1.1636627788552345
Ni 2.467316660407707 5.382680377389035 9.828652632270588 0.5166338696843619 0.4671838425833502 -0.08304791766111504
Ni 7.797776233205754 2.130199252374335 1.8539763290955666 -1.6571307519460943 0.5602413219616674 1.4851555750249519
Ni 5.980110584065361 0.7004578514701787 0.30034130201232456 0.35148625720801396 0.5418743894187055 -0.10929373873152144
Ni 5.127766521110211 5.461411850692167 -0.06154515039469416 0.4828981679948135 0.335418405111874 0.7190329103130003
Ni 0.2482582635368352 4.157902376522045 0.18869768988702493 -2.1933291740259455 0.9731648605395563 0.4405454140602154
Ni 1.3392448875078775 5.769049171713123 12.676646857068883 1.548114949466308 -0.43490338528308975 -0.868044279349118
Ni 5.67992008009838 3.9670218383860743 11.179196202953607 -0.12846696922586262 0.4090296028401214 -0.8252019873726111
Ni 7.527773263871317 8.475334191382833 5.010429817347149 -0.6918887457980407 -0.44673534492101125 0.09960479357853169
Ni 7.809262948511508 3.0366909838331884 11.141171824223887 1.0472943926651188 -0.7082445614482448 0.1593636588047191
Ni 5.530192514706928 1.558125457766788 8.885085060404265 0.2636121218028492 -1.2169838588758783 0.8201088891204198
Ni 1.5495057670268138 3.347232563505193 5.49582452315071 0.6640750660198821 -0.3884193827889375 -0.312868544835816
Ni 8.141530616938478 9.459226277596422 7.32030494074762 1.5270319035437638 -1.6048931347976167 0.7538235356296243
Ni 6.025322072104296 5.8029042637447485 2.7030214520958067 0.11314885081155351 1.5858785413683267 0.7173920322754677
Ni 4.884506933520855 3.231620728742257 13.100461040096743 -1.1388506049075613 -1.2837163272064214 -0.05709905900583715
P 5.761583737616514 8.7951284412444 7.052334952468918 0.6172311090831498 1.0513464512473056 0.2392612037623105
Ni 3.843618771280419 4.092389003489715 4.739626315179409 -0.2862049195017006 0.13717246741966055 0.17856799964731185
P 3.125931777703741 4.481112853707121 2.582163334718347 -0.894087497490415 0.384827294562305 -0.12707214576086504
Ni 6.296311744698385 6.642290865025985 11.876170805746789 -1.2546777738822263 0.11882327548851147 1.3356304995772095
P 0.9099898737699575 1.9632043799389836 3.9074203072424667 0.40111497597873497 -0.025151559564963136 -0.06603724203573143
P 3.266769705237011 2.9171602615955994 6.827675652176124 0.8502309053167809 -0.7691879339008365 -0.5917054540082197
P 1.8111403756968485 8.271840606861694 6.2862045522518795 1.7244383760538173 0.6366089993891295 0.4443524465111315
Ni 1.1204387854195066 3.075675071110739 2.01659154225105 0.8069733801797264 0.1484791506817314 1.8776583838546437
