# total energy = -340889.03333954717 ev
CRYSTAL
PRIMVEC
9.06677543025249 0.00000000000000 0.00000000000000

0.00000000000000 9.06677543025249 0.00000000000000

0.00000000000000 0.00000000000000 13.27014232587666

PRIMCOORD
 96 1
Ni 6.132095788133575 1.8010242210928658 11.360104436268559 1.0413836836076389 1.300013264594232 -0.9164540381110733
Ni 4.7754704855498 0.4104139251143945 6.147167488509747 -0.07373641045220204 -0.9390203534473633 -0.07276633322944887
Ni 2.7936003667831613 1.2027893281612891 4.743783919662389 -0.34776021450667854 0.6269732760715783 1.2018436608003302
Ni 3.4748959871081717 4.33411800350007 4.894294200950074 0.7155354386827032 0.5496069821762728 0.17280461480097337
Ni 5.118747660513538 4.56663545290566 2.6151870848892873 0.003020531993878669 0.07727579106402821 -0.5295544344007718
Ni 7.624387247685799 6.599442714614807 2.720113247298769 -0.6166364129219445 -1.4081073265906976 0.26335424015577225
Ni 4.6010891985769895 4.335079081668796 11.343105139489827 1.036383659289886 -0.2536670947749954 -0.19143405697670257
Ni 5.67332603096947 7.857403369726106 12.167632233990696 -1.7338689253390975 0.46614023181018427 1.0939987387001933
Ni 1.94113309789788 6.058464506923874 0.4101165348885999 -0.6350115729950225 2.352433665632007 -0.1514893982629649
Ni 2.5885008455118075 1.3287903027914116 0.3197878805135506 0.34134659767085085 -0.26631152301188327 0.8240971843442065
Ni 0.4283761134168868 9.211299572981705 5.047364939547649 -0.8322750921693085 0.8334205186276615 -1.626895864320953
Ni 8.854322500726024 2.3412408196689585 1.456159453795693 -0.32397725315446785 -0.3052899611576097 -0.09008759811671582
Ni 6.889715521895757 0.9776159666487976 5.051810379416769 0.7163070267414051 -0.5378410998895963 -0.3945085264058109
Ni 0.7862925035808696 7.264980279682772 2.4102027116626776 1.160184076278015 1.1441365358968487 -0.7877207025977014
Ni 7.799185606316736 4.028195942264193 3.427638141532355 0.5414738115461771 0.33022374828481194 0.7511770991457128
Ni 7.576106669870055 3.5297681104773524 12.461406629844877 0.1513518442438361 0.21548081351326118 1.3273842004080172
Ni 7.722662023825678 8.91293920224317 7.150655498125159 -0.8780996067025909 -0.007767045539928559 -0.47709184572568164
Ni 6.799546442763817 1.0611209660258882 0.37052736775720696 0.19178321278600519 -1.2252090749991482 -0.0786022231849356
Ni 1.7089057852979426 6.29958632597212 9.257636234199571 0.48605496845624035 1.2769525261200267 0.13457308212360047
Ni 0.2422769262057536 4.772496583291853 1.5355544839852011 -0.7903362858436775 0.3282910500384733 -0.025695604993891227
Ni 6.26891342554946 2.2047314526090807 7.304721768637133 0.5805761768642775 -0.5216359508846435 -1.1686270648390453
Ni 3.4541874726046675 4.402590289634248 0.5232789558685639 -0.00461153063008238 0.33498543133951336 -0.07560997332583108
Ni 6.075292441651765 5.70201330762844 4.533651431490468 0.052789632997205856 0.8801701160783745 0.8930868241400425
Ni 5.1354939942648405 3.171331287418229 9.192492361232746 0.35323589290926904 -0.35739413805201675 0.30860205624997816
P 0.13216819510529057 5.5077576494683775 12.431920570292842 1.1625307221333205 -1.6271306060395783 1.7928348623503447
P 4.0683073556457625 6.127299464065119 12.318009233683284 -0.6518106468302323 1.0757295080773603 0.9568874635357715
P 2.50642839661263 8.314432306056291 1.174482856059739 0.3891819719865749 -0.13081747173591018 2.0509095992747324
P 6.3858929588788005 7.679431639783336 5.7709987732376185 -1.5896866022605072 0.9083046695310615 -0.22639051844722946
P 4.732176634081221 1.0227775738037692 12.629525495203165 -1.4134616489240754 -1.8421378223505307 0.3253787614876848
P 4.254611451975888 5.951558160815809 8.158390385233323 -0.5298123160478488 -0.6982080031478493 0.10884559545050931
P 4.969653609508448 1.213723859024348 4.018730228979755 -0.13216807222653365 -1.2193171349947454 -0.24930881780629965
P 0.25985377656323766 5.728243488214534 3.802307212190263 -0.41524498762221385 -0.812477083606775 -1.3519186952142717
Ni 1.49314373641883 0.901566576499479 2.5121576918467654 0.1918246075469019 -0.4601115091176011 0.4350597083552959
Ni 1.8653257906457783 6.707010935310768 4.803631889248524 0.5330940721229142 -0.4766624714977468 -0.9405208492522898
Ni 6.407381216047498 5.6755292573374 9.09113578821032 -1.6767192156009831 -0.5153622020607899 0.6124830528752032
Ni 8.550404196804193 2.216808397144399 10.433980499203079 -0.8593817185781134 1.0435927754438157 -0.6322900602988014
Ni 2.423830074753206 5.326821084042838 7.13025978736525 -0.09784384502336699 -0.26217976023169687 -0.9513451935613034
Ni 0.3995546484853021 0.2570838767467663 9.237399192005254 -1.3769327007601062 0.38672991090165654 -0.19095377490617435
Ni 1.4248709193385374 1.1094287441671629 11.284026032438675 -0.5611514924807626 -0.7795481940892381 1.695683929628944
Ni 4.138012723203968 6.766797250825701 1.8344380076514317 0.10094870920093582 1.0001521877616775 -1.9391617425757637
Ni 5.455886628682674 7.67052806655985 7.883459468228807 0.570601839260385 1.2571318918496734 0.61768336612922
Ni 5.73184299795967 3.161085831468597 4.78040915798853 -0.6937044588505408 -0.14191718119349753 -0.45261751473340117
Ni 0.6530390154869321 7.848980335586983 7.442293761747717 0.3164074112270099 -1.6910569723798943 -0.88336419753564
Ni 5.437997881259113 4.653522359423647 6.739745620408602 -0.6940137625608435 0.46321225953011186 0.9802132827459054
Ni 8.275735309602283 7.148807689344155 9.108824159902476 -0.31196711606746913 0.6873484347255259 1.417809898590442
Ni 4.465250772880185 0.3222540433616037 10.390866169883 -0.40086017965545157 -0.572263286123208 -0.06239913106251189
Ni 8.360346455550927 7.272868374086471 5.177412415939118 0.7344312471459417 -0.5431414290565871 -1.5855157587122692
Ni 7.412351643404295 6.166866870936088 6.935055744521709 0.16838874512146484 -1.465586908864405 0.5724170380922529
Ni 2.3722945246490386 5.200629707134006 2.7694655179403953 -0.29185131915420065 -0.14826009269238982 -0.5018186590484003
Ni 2.307476148911056 5.188235425467504 11.450075859701647 -0.5649109595231949 -0.4346059086473289 -0.41313873991248845
Ni 1.4029655905117135 3.215432081877531 3.766438142913856 -1.0340632386868256 -0.3790718801357665 -0.07015589218979532
Ni 3.804953803864332 2.621957245913704 2.9885550733093442 -0.6986718301581452 0.38860373088560174 -0.9782016516325153
Ni 1.0204292790330127 3.4655572086762065 8.198850869459193 -0.41954412921820006 -0.5797781064430144 -1.2443244556723603
Ni 3.9705403189157766 2.8464777996134756 7.001884224316359 -1.491522140672928 -0.2139003564000187 0.020601221190119357
Ni 3.858973650366906 6.932157096497729 6.078017007592353 1.3614801136504617 0.33939333059922194 -0.4831452510086131
Ni 0.6656490864026388 7.198810954443466 11.297801183964582 -0.05752611924092673 0.1253541346284938 0.14828708927558332
P 0.23805090229590975 5.649897483912966 7.934032126809214 -0.17782880748844213 -1.456420926094421 -0.7809651290414227
P 8.280368431717559 1.7027766452785165 8.079950993147435 0.9064915275817228 0.7286151546847968 -0.08544341447648511
P 1.5808647862530703 3.2191222593744335 10.370204802610413 0.2776367182167154 -0.6187737709799215 0.9528893981199718
P 4.00457699292898 6.167565012624691 3.7966803715156248 0.2741130213341731 0.5846526609264963 1.85528490125545
P 6.62795772254542 3.996561963672807 10.606983636349039 0.6709800206698315 -0.2607805658913251 -1.0984246356820309
P 6.379636884006901 7.6521406465015716 10.167397362103722 -0.24547581721345468 0.5664659627151405 -0.8856686772991004
P 2.0859294974692304 8.348586848146791 6.000758109634467 2.3333861620822525 1.7083281007555162 -0.30796159445250193
P 6.833492449025254 4.190164814020148 1.361914859221842 0.8733620920176055 -0.6301640150947341 -0.14771013372619077
Ni 4.910846505712595 2.787253624159496 0.4699980515428882 1.5418455715178285 -0.16924877912891498 0.5030587021030885
Ni 1.3273668190886752 1.1719441590102726 6.96551104234013 0.5250663167224311 0.8730653867127932 1.1402479994757202
Ni 6.704916510244958 0.6509935510070763 9.290333745519183 -0.33585574975960863 -0.6527488423737855 -0.039886037561660335
Ni 2.5978396239437735 1.5835666852557166 9.309919793255814 0.6397483163490595 0.5778847460750435 -1.1195490763654719
Ni 6.482118643828753 2.240617748758323 2.4006744376295197 -0.0876753891307974 -0.08250464356313533 1.143672708886553
Ni 3.873154086743211 6.92617302488113 10.165764435894404 0.7919653368066684 -0.08751160985942348 0.05690751182032135
Ni 8.061378610875554 7.13003039795328 0.4103377642029105 0.7569893349521157 -1.0413428030673744 -0.5878763100701165
Ni 7.733442419510733 3.7979814537534757 8.383704281761052 -0.4798565529550124 0.4266192908974265 -0.23627023945478665
Ni 2.8983034865232966 8.150813281218182 12.284780409338323 0.9177110504466259 -0.08522512781809194 -0.4628574472938545
Ni 0.10379644222246841 4.782143632079826 10.249260368496317 -0.7701472124903124 -0.18191454752204156 -0.07453062421872325
Ni 8.850215251570996 2.530963090240687 5.718183901156023 -0.19761293209390482 0.11403279607840362 1.7687271706688634
Ni 3.2725436987153476 2.4715122454072906 11.732344517856637 0.5016312256279425 0.9816142768584901 -0.9506625656719822
Ni 0.9797285252649606 3.3903755089112946 12.801918438379731 0.699703356746453 -0.1873604011279612 -0.6387309308281386
Ni 2.9189394668253876 8.572363926282076 8.022941830869113 1.0711745417168261 -0.8194609711237757 0.5400015978760248
Ni 5.988505269660721 8.173298883656315 3.4838630277578946 -0.8083987997723432 0.08385910070850074 1.2383512688080607
Ni 3.456834970956254 8.406759277680278 3.5988224835778735 -0.22279663044838405 -0.9283523322105559 -0.4674520086430724
Ni 2.9983190834970954 4.26662492908497 9.113296800097126 1.8299757330667001 0.044496282640162074 0.9474900814812715
Ni 7.442816007997892 6.0282086781593405 11.442020936634696 -1.6842661747103056 -0.15703372511996183 -0.22178747245757935
Ni 0.6566575654599394 -0.39349078924714803 0.1316114951094433 0.19450601103380694 0.9731067536081112 0.27395207027627655
Ni 4.820496091077121 0.47036525593754314 1.7819014855677602 -0.5994791844163676 -0.4606563258774776 -0.6661658871106398
Ni 5.866965148417518 5.8308793832143895 0.2532205238439891 0.135565785054173 -0.4951497316686569 0.20113302943202133
Ni 7.864901592797209 8.504598848611678 11.714774920919295 -0.033625401363929185 1.346212388858114 -1.0811157120899382
Ni 0.6365492714731302 4.8030697491875705 5.677815898036954 -1.1410974919602088 -0.2879524983204267 0.8925515204618628
Ni 8.105016999800846 -0.01688233537895145 2.622100500961495 0.2815334821679603 0.47104512531096937 -0.2778506339997344
P 8.555590392205245 1.8447895448706308 3.8004893237673416 -0.1668892777578029 -1.0837554637056304 -2.7431086772243405
P 2.045935952164958 3.109414279736779 1.6510978401265577 -0.6980609360470236 -0.25585356090335293 -0.6263785799103728
P 4.496857551146041 1.0784294398381429 8.228894535684592 1.0806868520826356 0.3364054516154916 0.6117582588940368
P 8.581874973442398 1.3223438256408024 12.435144715545663 0.2922801791615031 1.3243137890128096 0.8728584129083096
P 6.403691038550596 7.903616722801571 1.3206827924284372 -1.5400553123866252 0.7506129991121266 0.471990005722742
P 2.0982421781591425 3.0415948014153202 5.8895541120926636 -1.014970997942065 -0.3262619354235865 0.958607788660988
P 7.3252108671813625 4.059131779166977 5.880464669978056 0.08656698655796705 1.0797031480131276 0.2505138938579944
P 1.9818610519914621 8.377119989627758 10.137499670958666 2.8200196287497823 -0.2784389024030366 -0.14250956336185777
