# total energy = -340888.6101708268 ev
CRYSTAL
PRIMVEC
9.11166469311894 0.00000000000000 0.00000000000000
0.00000000000000 9.11166469311894 0.00000000000000
0.00000000000000 0.00000000000000 13.33584229956506
PRIMCOORD
 96 1
Ni 6.196050481691445 2.3145268564840635 11.449874645575532 1.5249554806307093 -0.23677751810850833 -0.5256224463362174
Ni 4.753336820159124 0.35610390409530607 5.921393926464092 0.46639040014777744 0.262087971848839 -0.3619683876862605
Ni 3.0139109077054225 1.904401714418524 4.84132452198468 -1.0269723932783152 -1.2034323454436888 -0.02723955244224341
Ni 3.6032716070696496 4.687732833958598 4.86015468835718 0.44987003389525104 -0.7120659920768639 -0.010472103175917447
Ni 3.7378600070929786 2.845490896465072 2.8025139073384024 -0.37414590358905886 0.2763740494542079 -1.1463631112345225
Ni 5.443308521693657 4.478410559655169 2.574070804556945 -0.42749346597226373 0.8150307032665641 0.7962631928510738
Ni 5.288802022526668 4.609053608841716 11.174929250575602 0.282620544584552 0.721387526588106 0.5506318238963614
Ni 5.911894104795666 7.961380857029603 12.343349001137621 -1.0275341793190562 0.15408004180827659 0.8102811043967207
Ni 1.883599783794107 6.559050093669606 0.33123817099235664 0.38140798446811086 0.7657341710242812 -1.0456373166776702
Ni 2.782675079678068 1.470139772430041 0.3786762311806621 0.7948534569877408 -1.2247061672208006 -1.5179078297553084
Ni 7.992415187168352 8.94093948765096 7.304601127846635 -0.8332117450509651 0.24403651366376677 -0.8404936234243588
Ni -0.2714583609000772 2.5710566658576206 1.0388737458113821 -0.9911870081485897 -0.802855758466927 1.2098158803725294
Ni 7.15808738099841 1.0707572831048378 4.900174942272451 -0.6652503172749059 -1.25251779011643 0.037749450834631756
Ni 0.9049268069864579 7.513852331165013 2.3827285783048353 -0.37029747637724614 0.7339751334451294 0.7022960571742938
Ni 8.10064354106972 4.120832388203301 3.276562844624554 -0.7509248739255906 -0.9753086463554365 0.1910640752317935
Ni 7.961699765295855 3.9276013138485006 12.419589944767385 -0.7338797455178457 -0.512453255944111 -0.08073109660248032
Ni 8.267131879383056 7.144766127133804 9.233737367395706 -0.2205857388399943 0.19441885063663938 0.26274463159623135
Ni 6.90995852652442 0.9963605404204912 0.36874360543660745 0.6159033914106619 0.2665323807734377 -0.9786839905855726
Ni 1.9061876007095382 6.5630592261596385 9.128383743722987 -0.8682805637296401 -0.04869695098507097 -0.1928023980791389
Ni 0.6416999240215966 4.711313822331786 1.1336760617035175 -1.2900571818227848 1.2242575097191561 1.4189998051334851
Ni 6.446657708977454 2.1857881452302808 6.913407291632323 -0.11625962852639334 0.06620230685868599 0.23575164794715528
Ni 3.339397795907533 4.443048188760135 0.21969317112196202 0.9217304560186641 -0.8084062559715108 0.7548046685959711
Ni 6.261071321347966 5.992386551197812 4.612228112840642 0.25342232575404094 -1.8832345923908407 1.002612219266396
Ni 5.041447659556434 3.2342218496974393 9.015376321660206 2.2711767784330434 -1.1148557846548606 -0.03650195158077585
P 0.3698971421939667 5.495135670792072 12.471199325078272 -0.402138789257559 -0.0008741750748372042 -1.4040812361504398
P 4.137579628013935 5.980796513635718 12.480761106067 2.6053281439070357 3.536525658875871 0.20855863247213113
P 2.3070644030537535 8.582933067955839 1.1875998048609249 0.8243838623466899 0.11696796744732758 -0.662989032044555
P 6.660371805690418 8.086347339076855 5.646675411916439 -0.24750724582118663 0.20125258572902113 1.0667861828411433
P 4.7284801987209235 1.1393498953433878 12.618907611175233 0.06881017679517827 -0.7773905243162871 -0.5349987453447946
P 3.763782693306937 6.552498806714303 8.05588886615031 2.328256039944539 -0.7627385787310671 1.4345557505902133
P 4.823177730468433 0.9810529436403684 3.3859174002890313 0.09146493808021666 0.2151828226568681 0.7025526532697901
P 0.5389649927980477 5.70305474872399 3.433766396557565 0.8067838898767397 -0.7043984482292772 0.045783119772385666
Ni 0.6935188726217372 0.15573019574292402 4.558844691402913 0.5840103993568071 -0.343268497283912 0.9408378662720763
Ni 2.2632737422649023 6.739388162403052 4.6340314154210915 -1.1045459180884203 0.44077887022726026 -0.0942080480429926
Ni 5.914090016000433 5.866618242652552 9.053597021787338 0.09813437968059227 -0.13237736002386236 -0.08125457320611812
Ni 8.717266341366166 2.1114825191934345 10.02088497348977 0.4511134193840488 1.068273308909631 0.36331693129435494
Ni 2.3223719998338765 5.757715625559679 6.7879706476839665 -1.1259431528172739 -1.2295763508289081 -0.1712249290186793
Ni 0.8372553840541401 -0.17679636464509296 8.92471890206288 -0.9218494980950318 1.4073092561694345 1.0590929279619437
Ni 1.718259515239281 1.226247842064835 11.25387726980261 -0.290120709616339 -0.4199717036739219 -0.05131176290009873
Ni 4.216322634784066 7.021949997967568 1.1794512430749347 0.08441882986671267 -0.7685901524158376 -0.6262397403396635
Ni 5.649459936664061 8.33019371111831 8.034818141415768 -0.5155280382146927 -0.9472198585390201 -0.03076710597952766
Ni 5.200838011029463 2.7613720074923975 4.671812022140795 1.6363099585460013 0.5428758341000264 0.7932259486866468
Ni 0.9170252754416048 7.9675767890596525 6.836553132964881 0.7363346348162415 -0.8933853292170678 -1.2817201227119992
Ni 5.357048391504716 4.7206532787006115 6.75459097503855 0.027219240727269247 -0.6089405869395835 -0.039528654222241597
Ni 0.8919691085453788 7.249504713435893 11.174915583078477 -1.0208451973346548 0.0731694822051385 0.8726167292111487
Ni 4.653919446071076 0.540875708896138 10.295310092432471 -0.68853628438604 -1.0334096642632267 0.6709687078159218
Ni 8.477766233410494 7.086296574432584 4.618002174792762 0.4085038122436384 1.889332220648146 1.6280451474340476
Ni 7.121567828680117 6.509063500850704 7.10939099990812 0.9115663710014688 0.14344853023635942 -1.2226330867418556
Ni 2.6201320922015143 5.439627409134627 2.3423602587961114 0.3943694297247853 -0.19431909183398147 1.349765910537327
Ni 2.497926444573534 5.1642637887226694 11.550906606657293 -2.2313066817109832 0.2836651837989824 -1.9018537501539245
Ni 1.3699479068382376 3.6571762157310816 3.641231713584929 0.14865809946175687 -0.832915811077101 0.15646653976258215
Ni 1.8821419174340954 1.1502474463844752 2.6262806435748636 -0.7134595299902808 0.2590504705740958 -0.1783196310819316
Ni 1.193464072294072 3.7740788744745193 8.00974739585594 -0.3831581343899982 -0.3217653331048136 6.376335839989018e-05
Ni 3.5679730178278666 2.9137737121021194 7.05900804967259 2.1575712997000456 0.8263638688911962 -0.23430694508082875
Ni 4.393016037617484 6.894031336541292 6.111149811883214 0.6178165492729747 1.0563811854577356 -1.2602966627309002
Ni 0.16294207839260685 0.18491941376978313 0.6463158933839837 0.9738870834175614 0.7406921404539889 0.09244170017118918
P 0.25472296625361796 5.990646223230547 7.76218073109703 -0.5382326789010602 -0.49741590199501434 -0.07352866531677014
P 8.850378651699982 1.7494031853550307 7.802081622204075 -1.0573623184240821 0.3475257298983692 0.7403296149082476
P 1.9107160980903246 3.3611837863249576 10.32816948902066 -0.13612165755764297 -1.2894668565369534 -0.3629047834576008
P 4.387804165380442 6.234228356994251 3.5129139612426 -0.4033220109323828 0.05064430451942891 -0.3832429807943206
P 7.015371376018015 4.051410614472493 9.83866443481896 0.3267571298924502 -0.023035027442592587 1.4540033177918636
P 6.36018801049926 8.038902900723224 10.217549323122398 -1.1869839700796783 -1.5116459080059967 -1.6048810506127587
P 2.682209864143762 8.812027654766926 5.605668364708734 -0.8123729539287429 -0.3205211762850673 -0.10340616960249288
P 6.912792254261693 3.9604762002667644 1.1979296991880828 1.6617978184044606 -0.9061066334384782 -0.5207527769487418
Ni 5.054413558495788 2.916479876532891 0.5133174788595419 0.9066838460981869 -0.5004955693616026 0.322118088458542
Ni 1.6787877835419645 1.4430325697985737 6.964644004854934 -0.9133715425310076 -0.9791714717449523 -1.94076251140398
Ni 6.848791921057179 0.9423192567878077 9.201677974972574 -0.15870931305017183 0.4281529539331336 -0.133122465720003
Ni 2.724260196965349 1.8009023145224436 8.901581651763019 0.22421870760689128 0.19292966768562256 2.5927353948436895
Ni 6.736909789591032 2.0048487066233296 2.6334952597239716 -0.41754226829682284 0.9337596192690564 -0.5868391270548539
Ni 4.143520433430982 6.856445719447241 10.316087421562063 0.1213658394047071 1.0913507595543848 0.7235763067093087
Ni 8.55716528004263 7.2565844769467 0.03271907695103742 -0.8440034363498304 -0.5820460765415847 -0.15113227203386229
Ni 7.67810831161458 4.143292641812231 7.747284070397136 0.8864541493148733 -0.044926171088729074 0.1129786437822764
Ni 3.103624358834642 8.277947425441392 12.32682590827984 0.8806059180642124 0.21230241578527953 0.3899810708491026
Ni 0.2218827041614046 4.673728205237735 10.08372356943865 -1.0635139398477749 0.8900812045444993 0.605506364447054
Ni 8.7839272806777 2.56594502193283 5.6128164657051665 0.8461292244435814 0.8059742494912506 0.38959591959554196
Ni 3.849596351923125 2.768342431026203 11.243421634501901 -1.3618002159940417 -0.15507454451106195 0.6603603361724563
Ni 1.3052641987774685 3.239379051945981 12.660022176026988 -0.37170284136520504 -0.1614007438394059 -1.847381073027341
Ni 3.12458118775981 8.662778586160728 7.96975265460197 0.5315179858850458 -0.11171186125471082 -0.25438134723320066
Ni 5.894007906891272 7.997581501081643 3.6434458481191965 -0.9047874004064224 1.761369958972844 -1.2669918153628887
Ni 3.446942774952646 8.156607385964668 3.1659025874013915 -0.32019798861769366 1.7444420728692538 0.06288301267746589
Ni 3.41631846972765 4.65945933823912 9.304363703206475 -0.690127797242876 0.592793801976392 -0.5044851501369699
Ni 7.3701704897211116 6.127867894366648 11.332838956526743 0.210553808525289 -0.1281599795084051 -0.2351214705623241
Ni 7.9501917327165135 9.027545861100403 2.8942109678837125 1.1988570673681807 -0.3340004417184248 -0.3548430894953889
Ni 5.095242928240866 0.1316298424789807 1.3377317937814042 -2.0203677219321334 0.2382836703403896 0.7775851568255963
Ni 6.31893950417568 5.9375343294023715 0.4962877774416554 0.02281596945325103 -0.35111498991152434 -0.7097823382490099
Ni 7.941034509642689 8.911973505410476 11.181103314610251 1.8640125109364347 -0.5470032260048385 0.18667185970136885
Ni 9.150662675203392 5.11075098164549 5.730184730517332 0.4352792805652697 -0.7246872803853003 -0.10625109525045572
Ni 7.714937660534376 6.4398421837444 2.604116519070311 -0.66622630803493 -0.3157152702559917 -1.5965774158430697
P 8.971746026170957 1.8157998863888132 3.4522229846753127 -0.666092353560227 0.5686853389639625 -0.4647569783094125
P 2.1165668281239753 3.1921806285406022 1.3193225863203564 -0.7607719419229994 -0.7151299757141684 2.837245248599449
P 4.750712660711102 1.245701246306241 8.184966531332796 0.4594265672354345 -0.06833657959286941 -1.1045122366370075
P 8.417064322845508 1.4896387349951974 12.259586378256676 1.446414192590696 2.2072360139150247 0.7673542231262075
P 6.867953752026583 8.026128346743622 1.3346648074265293 -0.11257240948279323 -0.6319275347530601 -1.1403109915031717
P 1.9551354637469307 3.5597907428823006 5.92742220386274 -1.2146402983443663 0.55907892622245 -1.1260490822675189
P 7.089923017003113 4.090062296342303 5.420579473974599 -0.8276062259387295 -0.609909378610756 0.7164332679066242
P 2.435447759382283 8.429510856894108 10.223283293749619 0.8492867962359566 1.105457374159096 0.4147227965701567
