# total energy = -381172.63635297347 ev
CRYSTAL
PRIMVEC
9.19952239813931 0.00000000000000 0.00000000000000

0.00000000000000 9.19952239813931 0.00000000000000

0.00000000000000 0.00000000000000 13.46443093165149

PRIMCOORD
 96 1
Ni 1.889480717395879 7.62963314711591 0.4325164681479485 -0.29734293839639114 -0.30504390658507463 -0.005740502028203017
Ni 2.7443555409975784 0.7305055595878204 1.2021218380716483 -0.1424224029646902 -0.8165083162533551 -0.6508372271733694
Ni 3.3764731278873614 2.956257341213251 0.23040571968054155 0.4658707801988815 -0.1520028475642737 -0.07815022324918154
Ni 8.66225194405993 8.275412024850544 4.093429630804276 0.4464247556591279 -1.4065433245376873 0.28943705328575314
Ni 3.465616500470928 2.6907315246106225 7.028998165969727 0.3656476363100606 -1.2516029916116445 -0.19850896154561298
Ni 3.044719949135188 6.983063110450195 11.825782805742023 -0.08859378718000871 -0.4765164328381858 0.3436485063311501
Ni 4.807808427529456 6.653389023772726 3.852874077999746 1.0303510799425608 1.4446768981846152 0.4881154505296948
Ni 0.08457672963717995 5.850611095830545 4.436354709625127 -0.27105855077856544 -0.42380264738423784 0.9004764317358943
Ni 3.5925515112973514 5.013077372055473 2.759911933468044 -0.12136095430870067 -1.2688147275042405 -0.3031641730638585
Ni 7.6840759210013125 6.46408125070517 11.662418605948243 -0.36642488079571733 -0.11494245237686657 -3.8402549604145797
Ni 6.172723175050461 2.5991686776215372 10.379339130372992 0.39975151997230507 0.25151533853931524 -1.5440330660874506
Ni 2.3527042715445177 1.6841841743024981 5.029435962883967 0.8812301819117725 1.227622826646963 1.074789512761594
Ni 2.535986357404413 6.485037762856393 4.315269675127484 -0.2393411650706265 -0.05852370726750566 0.7430927794756815
Ni 7.271127757066212 2.2664219504442835 0.5206184547896716 0.44233695874299955 0.3394861474233443 -0.6204223623269379
Ni 4.162553922574726 8.457479773746453 10.44530154627585 1.272800451624866 0.8742298393345396 1.136214967056927
Ni 4.477122393381998 8.908596756345043 5.677843144183835 -0.6651670135324802 -1.7550288472461646 0.16923900893690208
Ni 1.2039783017029553 3.625752587835441 3.781000968919909 0.15100217421390125 0.4206548457838755 -0.23989163825745782
Ni 7.828554421148362 4.008443522417874 11.340094017759629 0.5067040121651596 0.276410302008782 -1.7912209808960053
Ni 6.40041135579796 9.025872268594298 0.40915152101815067 1.479633359655142 -2.58769731819915 0.48123055048440344
Ni 1.9301610056894323 4.5025866715359 5.9094714803985715 0.018310625383729757 -0.38339853253557843 0.46537301462685654
Ni 8.589170937681823 8.516513109336623 12.751327440886518 0.9176300606970454 0.6184960918385026 -0.8947747533654267
Ni 8.909590304770122 5.451011438976844 13.297499409197899 2.774200256422822 0.3068192533179426 1.2113852817421782
Ni 5.4897322289876005 3.28824970754924 8.064911311904684 2.622950742084805 -1.174713123132125 -0.36967912606695685
Ni 0.1595307587870111 1.0647619283998482 5.1892592664850286 -2.253960671665073 1.1034105189323964 0.2868937180386092
P 5.687751949819516 8.992625194443937 2.6834206641160754 -0.36355990054309645 -0.48323703939147106 -1.157730729641516
Ni 0.7632098619133703 6.629139082582811 11.39395170201693 0.36610195023865977 0.04866969729156134 -0.04130760049953531
P 0.5997453873248387 4.835259802533518 10.053985139440133 -1.007761367567503 1.2186584183648237 -0.65704875530072
Ni 8.247022298556129 6.315683753992527 8.862342477396341 1.0084524800972565 -1.0532781210523796 0.027929379420416414
P 1.8426367490578484 5.13964440198372 0.4081929307783975 0.3328285328975107 -0.38401534018397093 0.2488287928460876
P 7.947623840276235 8.81068623886239 6.120809349887786 2.037510295149691 0.3742014394173427 -0.42194219713673137
P 2.7666551834271518 7.025675298459182 6.935380145664319 0.2963813458140702 1.002316285292532 -0.10699028740932541
Ni 8.65693462008126 4.047789879955532 6.212528588758596 2.483499763043613 0.1021085338369919 -0.05499024019295046
Ni 4.023457143063527 0.043102522555808306 12.741391036683472 -1.0552779250912279 -0.7600425199561426 0.6854522461440775
Ni 2.326485632549351 4.461244017625627 11.847002424235445 0.6581648711830342 1.2011785164125055 1.0073546190473877
Ni 6.770894524083345 4.8741277849035445 13.16947885472185 -2.274397599363186 -0.9130342137962469 1.3806062929569514
Ni 2.3009937558280855 8.687992207887465 9.260027713627272 -1.8533264919774985 -0.7888972394043059 1.0797304017066371
Ni 2.186643691719342 6.352711831871666 9.359516869163107 -0.059930357807045184 -0.7026344143503189 -0.24674182841007183
Ni 3.9224371869912726 5.350000682427044 7.982509349375734 0.5381059235152087 0.7726923475096692 0.9391242260150795
Ni 6.08522651698624 4.513414509464781 3.9494405452518038 -0.2921896763302258 1.0566889465061415 -0.44449231452310545
Ni 4.251550102799021 7.720671621325092 1.2801365483420732 0.19459240010002615 0.3700758472847433 0.6355623032921699
Ni 3.928177689002846 1.9530494175560897 11.328151197709271 -0.49273855112400305 0.26671904286294706 -0.9675572845447916
Ni 1.8568500112499648 1.6994277830095126 12.299528773674055 -0.7326278753886156 -1.6200916969149262 1.3178934873087627
Ni 4.70409301137805 1.0363998006727961 8.929947008057317 -2.3028375998714337 0.9471144433094075 1.1885526001183788
Ni 4.875112133806171 6.662303361031083 6.375744676240858 0.7216595493025701 -0.2942589001544287 -2.2625476420031356
Ni 1.4482716204807262 3.0038280718251826 10.499670723981618 -0.5026254712204118 -2.043434631053926 -2.003259858607253
Ni 4.6366145141747 7.925701378267295 8.20830794821109 -1.044249692301524 0.3514564324113431 0.37038515099504604
Ni 1.1241632448881957 2.209900084484177 6.9802977340003896 0.832680040917211 0.6051266125101321 0.7636556912286977
Ni 6.9285191418177945 0.8523927924434904 8.908484522171097 1.2280560575296398 -0.4119945990057162 2.6349449383322043
Ni 8.210417398709893 4.366792520585846 2.029063231692673 0.009997220422027943 -1.4437415308545392 -0.445998980975619
Ni 0.28243821868287905 1.3239216754640013 9.09251636911103 0.27459664583881094 -0.6981892340947717 1.0806182036282292
Ni 0.42707863042512645 0.7679632551655816 0.8026077367767738 -0.4525810050685109 -0.031018045648069162 -0.5689175095794267
Ni 6.445608609616645 2.350477987110542 2.978520185553006 -0.4844495716423334 -0.4316717657196694 0.9109405644920118
Ni 8.108100309971563 3.5137024043403087 8.73218211399739 0.6429732510442604 0.3224327914854834 0.43122362243865736
Ni 8.223977494807745 1.3925777115415199 11.163628778038479 0.5939513126196029 0.7606845244155157 0.5612769623150333
Ni 5.811752312982972 5.929736188461221 1.7924524341166088 0.5194183744080345 0.8690765772683741 -0.7866518950135549
Ni 7.097505169783483 2.773168445324899 5.186512289080131 -0.4687619857037475 -1.2517670279933344 0.9425394223442155
P 7.373941620017082 7.0042496106627805 0.1077733255060615 -1.45131317255421 0.353357763199114 2.3124013323004693
Ni 4.055296690278359 5.232743569222697 0.1760448215449842 -0.3591610001444524 1.1921346610426824 0.2757312736638864
P 1.6266043632601306 8.880161032438354 11.379706241496223 -0.18292936193980108 -0.6493673274960623 0.6903239724140822
Ni 3.236327602816356 2.371784081115035 2.6588616189716907 0.9582912858618337 2.198665498637194 0.7629049291056021
P 1.854678923950716 7.824571027925587 2.6824915123481765 0.37429297068988443 1.5061925982009092 0.11503321231845995
P 3.3235482752069427 3.6314470922347426 4.702156511901389 1.6529344544765598 -0.25088104738942596 -1.8593732123922107
P 4.797422166678388 6.449812791378326 9.942863187760654 -0.9072908835545664 -1.2793241116759968 0.19131552912096728
Ni 2.0715668653366968 4.086841852774649 8.2205331936008 -2.8156963187840796 0.2597117583071785 1.3578913678579387
Ni 8.876370829187124 7.790459198664506 1.793529698196024 -0.4401096120743775 -0.67498811338796 -0.6864868580561789
Ni 6.8593019348705555 8.054945469229784 7.600967435147862 -0.588848701285715 -1.1123926678263487 0.5230158619513057
Ni 8.613043698451108 8.412586104168764 10.25618052351412 1.3611029328167012 0.5139185276357279 -0.007075933010174911
Ni 0.015589510751301466 3.1520415780887365 12.846938997707804 0.8633641002646293 -0.689743931540896 0.46136775012220543
Ni 5.787631165107419 1.064863123146847 6.983798152294305 0.29940239202858115 0.39200452903703453 -2.0457835909020767
Ni 7.925756575402021 0.7218773274777969 2.4666569162832293 0.37691832412787346 -0.6372342916779541 -0.413279636365727
Ni 3.968250808814406 3.6184665660515214 9.535617807795063 -1.533226976610882 -0.6181955298789482 1.5656215908915037
Ni 1.8157925425357795 8.674294118952798 5.044933478410723 0.14523981780882728 -1.9870729644347451 0.12151547760869395
Ni 0.1719353948645839 8.121485615142781 7.878240121972571 -0.010458476329162632 1.5130193913147554 -0.23373410329649422
Ni 1.1187079280727104 5.811163543545888 2.442084071855163 0.35635541237485724 -0.9386051202868158 -2.0351004001566175
Ni 1.2852560825879715 0.9564283519763112 3.178413849108892 -1.1034858522550222 -0.8630684234010813 -1.970804566292025
Ni 6.555184121571532 0.09850388668096333 4.589351047612746 -0.5001276444992225 0.8479002003010752 0.17030344564567446
Ni 5.212302230328921 1.3941232313138665 1.2307673110902972 -2.9483328460065996 0.7388363181921727 0.37719934570340197
Ni 6.381414341929531 4.9259578944118845 9.538754844952027 -0.785656363869505 1.0988239280029786 0.28822400681425847
Ni 6.051915046178697 0.6076275381638065 11.756441405241649 1.1054357768925416 -3.333060124655931 -2.3163477185427266
Ni 1.1266011183386235 2.856543717329528 1.4710155998448489 0.22170416871515364 1.0652409498412105 -0.002832841463104799
Ni 2.7925978367486852 0.15943232389674852 7.174373619556085 -0.1715314045155046 0.1321413327536563 -1.261617181314537
Ni 4.937816078855663 4.456340672157408 11.527869150386277 0.07952782032299852 0.03900980560429411 0.2121404362861185
Ni 8.232229466449382 1.6225473738577207 7.306675631782431 -1.6391412573472093 -0.22730120318695696 -2.687028803511637
Ni 4.654158003495325 1.7705768896721854 4.757872499694486 2.131477687936787 3.178586189843345 0.8652538610881743
Ni 6.545957000549724 7.677397067699386 9.85327087848131 -1.008877483449817 0.21367127110834816 0.5398488743482445
Ni 5.411812273798456 6.936633120622615 12.074322624084763 -0.1344949205874974 0.2184406674725335 0.9195329341467131
Ni 3.6991003803647264 0.2901170600756037 3.5396505773753146 -0.5366830750257532 -3.1156736094795243 -1.931546392122351
Ni 0.8362503903926768 6.228113499748671 6.761917630072298 -1.0056471494379777 0.43540706439238563 0.32761150747294543
P 8.546153970684841 2.6287083442227583 3.4868968358125483 0.03360200432516149 -0.5152117925258546 -0.023805329949713842
Ni 4.950088241809893 4.288476985931161 6.146809040248536 -0.7364657610774672 -0.06626092801076329 -2.60816767023836
P 2.392253018576174 1.504701491216288 8.837972022462273 0.742469801179702 3.057350705368915 -0.14657062080510885
Ni 7.355974952663553 6.4964267716549955 5.724092823371309 -0.282430797171249 -0.1164915420315413 -0.10089934402023913
P 5.68363976328238 2.3987386819065573 12.402666459815322 -0.202236032688213 3.485527313451133 3.057620928311166
P 7.535052856761768 6.043166300324521 3.0567759233117373 0.5835116053435176 1.4673956799383696 1.7452612263364393
P 6.846266211552607 4.627552984557073 6.896952820419859 0.4044244999679423 0.8148137021597515 1.278728644183843
Ni 5.48138826212142 3.68298281702454 1.5469558178017966 -1.0267368802287413 0.7066458495025572 -0.9220536436860378
