# total energy = -381172.13174221385 ev
CRYSTAL
PRIMVEC
9.16174729693083 0.00000000000000 0.00000000000000

0.00000000000000 9.16174729693083 0.00000000000000

0.00000000000000 0.00000000000000 13.40914325266314

PRIMCOORD
 96 1
Ni 5.402544861912464 8.127908106971816 5.76394738514669 -0.41508815032937546 -0.1918374630627083 0.48759300236732156
Ni 7.228719272225705 4.050646615765892 5.926224831353774 3.2114775412547276 0.020586565902100028 -0.6364053680187556
Ni 6.986052075743727 8.034540741873926 2.0943066829692545 0.9723148538344353 0.262377992285432 2.1387369406023615
Ni 5.694392317038881 7.951975076653417 8.184176809378028 -1.0296252575201301 0.3447918759069739 -0.5410470084214036
Ni 4.68809349648574 2.396942095352346 0.4958539110294458 -0.5220851226069201 1.2669630190074825 -1.0801590046036236
Ni 0.45834296971649363 3.5074191426279016 5.332976967358659 0.5556490746052947 -0.7016933905932883 -1.1349286441453357
Ni 7.032181472590737 6.367982290223765 7.08116750219582 0.336656134173717 -0.06378906943150306 0.8703233051912819
Ni 7.330771973611772 -0.1287692722193474 6.691336993762668 -0.34340168042766667 1.521735688141831 0.0809432126132864
Ni 5.837269763678231 7.307702694314697 0.29732892843993614 -0.2709675337266559 -0.18221973746728617 -1.2398954733667291
Ni 2.300047457605776 3.4687474079523843 9.981752825995553 0.981134251898278 0.6574377632090226 1.4080186235316332
Ni 1.6363613330786118 2.961837100475079 1.3109919613437484 -0.12490856245064295 -0.5875940029430073 -0.1530724264793686
Ni 1.950215304833931 6.986427707376444 2.459424294668518 0.20662516289484417 -0.2297059559737076 0.11540216562210448
Ni 1.5448721261443032 8.040633303721643 11.901834228313197 -0.2588357834601284 0.22888243163114774 -0.9771243594079364
Ni 0.32764148502544127 0.48466100454920896 8.887204392296603 0.3812879139504788 -0.44640881481952793 0.4232097509952454
Ni 7.417716953964925 3.853559111302558 8.194058669842615 -0.22225207079882364 0.5302887414636351 1.1359833106620953
Ni 3.199162998374772 0.1278943253675322 5.804040106803532 0.3550096969802402 -1.0266895719305738 0.46451349484003873
Ni 0.7517634968267507 4.7857668827391615 13.385328145671629 -0.12734776801975486 -0.3460540304488492 -1.4215912200097454
Ni 0.182459858980526 0.7971746126980298 -0.05880559018912019 0.24590956231676356 -1.554157556115962 1.814080144882366
Ni 8.33074002689157 2.673929196618615 12.59122546678945 -0.5438423117783536 1.328485661002312 0.43389191329943977
Ni 4.19163674249452 6.812995834027108 1.8338345470965156 -1.152724534676176 -0.6635258783846315 -1.137614418507615
Ni 6.407121274003393 8.9716683715244 11.822371646848813 -1.1037450194536795 -0.23238813079156107 1.688006101368712
Ni 1.7701869735442086 7.066162392730868 6.63076776724921 2.454815507735043 -0.31220905687494616 0.7850536972884996
Ni 5.172172730091595 7.575949488809953 3.599349029599617 1.735642472299753 0.403888167848498 0.37892558436588936
Ni 4.91844730481233 5.14910345079452 0.28098437154320005 0.5263004462398485 -0.6738971943166265 -1.6749639234727736
P 5.51673687825827 7.38300309405364 10.367788538763554 -0.10390470650546621 -0.7186793836283236 -0.9807300744813238
Ni 2.8683048239286784 3.7904346735119123 12.433855968524954 -0.5412971767589968 0.6950149501318482 0.5860269155662036
P 6.31155508959204 3.541830664883586 12.848171246188222 -0.9520288498918895 0.5732557319434644 0.21426391038702455
Ni 3.6547400366298732 7.2435887878329925 9.365830554005072 -1.1931726153888935 0.21155756719945498 -0.4639069716042914
P 1.7651022038818271 0.9724370031258227 1.8388625139266326 -0.40697400586267324 -1.5714363978010677 0.9433241230290399
P 4.1810366010542035 0.5925085110009629 12.78996208573788 2.0599534546445555 -2.342128941271889 -0.45446125281035926
P 7.3755729171235656 8.176144705660896 4.555354439230879 0.009352130638861313 -0.6670791429535285 -0.40075913530121304
Ni 6.157692708132518 5.908548156422966 11.652424902111315 1.2398260535813743 -1.0342252181859863 0.4041388504067233
Ni 8.829065777299233 6.377941109364321 2.5633185072296096 -1.4367201052313838 0.21630202386297587 0.8267803876033245
Ni 7.176653063232346 8.414047793630372 9.815787776564848 2.876702683264123 0.46982590819188763 -2.163864074687293
Ni 2.3780047640151527 1.5455042866969237 13.192719819384761 0.17587168376207132 -0.5890590175243081 -1.8192172089986152
Ni 6.519847410806891 0.8833280180983368 3.5595238309592454 -1.5805895250552455 0.11920791252143986 -0.1729280277527151
Ni 4.55719961510476 4.417693691412718 10.83339402543747 -1.9110647272292312 -0.5333383269232363 0.6420360839419718
Ni 2.6847675434845555 3.101196436212889 3.7892088317446575 0.0871961355015337 -0.07877243021421272 -0.2508314250984132
Ni 1.155067270603142 0.5162864394997938 6.681762968001969 -0.6827232772486888 1.0630938215912207 0.22813295505963288
Ni 0.5854136540161914 8.185562981720224 5.055099344270439 -1.2912589154403697 -2.3508035862277517 -1.112313477848981
Ni 8.495092608825734 1.8363989201208408 2.840418297985693 1.2922886422564648 1.3393542282856998 -2.7406830985019828
Ni 4.811896185580804 0.32841840118286464 10.180355683435746 -0.4244909317005141 -2.338308281974218 -2.1291516109067716
Ni 5.181270345001044 3.829711083498632 6.607717727621127 -1.866921971273746 -1.1062186778051528 1.341785977655644
Ni 8.284317454136097 7.085209665033735 11.714803573684812 -0.39357547306858026 0.5286013264588831 1.0259570646399236
Ni 3.393602757914812 9.018869692786723 2.8997268680927677 -0.6766477604785701 0.8657505982189349 0.33666873257920726
Ni 2.488394655298097 2.448174585356017 6.0332294570687015 0.09037273345730241 -1.1565305386858278 -0.10860005509860653
Ni 3.141187462476484 1.8699217529040009 8.533082709514078 0.0814476630535307 -0.7613049316083339 -0.4495936403054128
Ni 8.39107013180469 6.000532097702803 9.141133208362364 0.23142139600291756 -0.015139426744599735 -0.06066466486990843
Ni 8.508761935557757 4.83398515793396 11.246851763568488 0.9197638192105965 1.1281568726391409 1.4335738462929182
Ni 6.762954371151562 1.1541052871535022 0.2774589312439489 1.6942708513315015 0.4574995254160508 -0.3693608234955897
Ni 6.799775432904915 3.492888611664772 10.750351033190997 -0.09213188224025422 -0.601273300202313 -0.15693705164109747
Ni 9.013684143905808 7.84801673186235 7.471990227844172 -0.3417417762267405 -1.7495585681602126 0.9974635851859209
Ni 5.441601389967837 2.3488062758818016 9.290136199139134 0.6687213065426418 0.826661345526957 -1.1915667043543545
Ni 6.193313581010607 5.673695930250918 2.4720427690036497 0.3004866262316954 -0.3611415209095909 0.45202127591029895
Ni 8.753719568824593 2.347697704477931 7.2417152105429805 -0.4689784725899278 -1.8477898784299853 -0.8779455976232299
Ni 4.950650846007412 1.1197029266449574 7.285187700719558 1.1398821314958694 -0.9598444892815663 -0.0812237199681827
P 4.679838762313117 2.2267718039846462 2.7766846040102755 -1.3621591419953574 -1.832319807818844 -0.3219285981555553
Ni 5.856885064303741 5.596352460899883 5.294533360186914 -2.0760025376876183 2.4264207586424344 -1.9787713865475856
P 6.83929004831726 2.0705365300160135 5.776510888998986 -1.3962686820845567 -1.9465809178579703 0.21759606008405105
Ni 6.572499971617174 3.04738949526304 1.7528025583471476 -0.18037060007368935 0.6828425764353724 -0.01771721477410497
P 0.3951040100866052 7.612514021643403 10.114570674275813 0.3740278899539558 0.2308182152012799 -1.2924436797770904
P 4.007439816256358 4.244893978616004 8.479593681189966 -1.7084579414651608 -0.41970328050388356 -0.02817774798579663
P 7.772056686329368 8.304601562302787 0.1676682182239226 0.9118810740284102 0.4023437061795136 -0.8473006190438633
Ni 3.818442134517138 5.274078843523432 3.863362180741744 -0.24394832482533468 0.6533900755022102 0.39160138006134493
Ni 5.778121524146096 5.1276924477296815 9.114395565510662 0.8579421579181095 2.348949306627832 -0.8128470653516839
Ni 4.106194288672232 7.257991054336171 11.895157146997983 -1.1405169368663906 0.12414134526731524 0.7922450728306162
Ni 2.873737739982358 4.625701998466249 6.469535676390733 -0.570583841538256 0.9307007778380746 -0.6058370083135953
Ni 1.8197703490627826 5.687805020845634 8.788325320119633 -0.1479255921711065 -0.34320550525646054 -1.9662130902666006
Ni 1.5454309927198082 5.597314444349523 4.580791113988782 -0.8726187860936778 -0.1342745770465752 0.21575155067614457
Ni 8.023500836570916 4.081201042475878 3.540577337874913 -0.034163790365902454 0.28565830296961126 -0.5069174137275464
Ni -0.036022157402795435 3.177248099217265 9.878622703145888 0.19299625925749989 -0.3703000474804074 -0.9894754247741216
Ni 4.300056858142488 6.3483944748396715 7.079544956777428 0.22219422097769476 0.031914846430725674 0.1737304690493524
Ni 0.23770152953240944 8.754159332687285 2.6299088339631003 -0.46793126227233606 -0.2937670481196747 -0.7121222992360962
Ni 1.1326759605943848 4.67467153692648 2.3912389077580536 0.29318777857743705 1.4111065184283376 2.2159533391833643
Ni 3.7836183336401796 4.108475563709949 1.8549267213609022 -0.906990064484696 0.0463544188948234 0.7104917056112086
Ni 0.5508830290476945 7.1121452016236475 0.4582879992336571 -1.2889593207729158 1.245599979950674 0.4328156495161256
Ni 2.034567510746627 5.838955525151885 10.937904823581047 0.14371643918576538 -0.15811795932307607 2.0449055591724976
Ni 5.024311293008398 9.414153273117261 1.342027379778554 -0.3849231967102209 -1.2823078768946692 1.479595307328355
Ni 2.1290800942369463 0.8073304094020837 10.460539318278961 0.1967068753398677 -0.3237759357769392 0.32115443899369206
Ni 8.157775402646346 5.999680055218837 4.938373188665867 0.31183007626897263 1.6148877841164835 -0.9383865765181064
Ni 7.677003559757823 5.475105899256719 0.5424441437575692 -1.0307493438222441 0.4639164846859881 -0.9308825548315774
Ni 1.4828929067460859 3.4124851187691685 7.841237955153888 -0.7742378376199182 0.5500106453725947 0.19560258653209536
Ni 9.34424914244344 5.246859292772196 6.751611212018238 0.06948200605122228 0.5151760541919127 1.7222961328998339
Ni 2.8947547879202014 8.334377240505923 0.3317596903646133 -0.022898244754412177 0.2514914272799153 1.8220454224760296
Ni 8.501514993570472 1.0196932948709825 4.814029956489576 -0.5934396630905069 -0.20138396910056286 2.5369681672753983
Ni 4.187174971637619 1.9758407115829055 11.315184654607897 -0.8546529456438765 3.206488058459936 0.696300244602175
Ni 1.4974417612034945 0.8304738988509879 4.172442882237422 1.967129174322967 1.9814196228037102 -0.6222067079208704
Ni -0.5582802236880672 0.499841103384524 11.150560884958406 0.9078225876883205 0.9936658087063854 -0.015192134359406095
P 0.99403124113345 2.319314611839989 11.575925229671821 1.361938541344119 0.11862170100066668 0.21858079259482358
Ni 4.525573263979461 1.8556843978493327 5.174574940191553 1.5579314213360973 0.33261564555575623 -1.9048791672438095
P 2.6086883952387616 8.865218031511409 8.107744017692653 0.459603459132931 0.021101300754989463 0.0337477858744064
Ni 3.132245597268404 7.339869588521222 4.540939346281706 -0.7081633145883481 0.05504217647680843 1.0234021594285536
P 2.3892462277552284 6.213762600625805 -0.05317661274665681 2.0126919505544305 -0.738371205630296 -0.6797081445714487
P 8.55916070657174 3.681776352438319 1.3298596634026822 1.3468813899006804 -0.4290412700753578 0.8967493605932944
P 7.7513236525528475 1.6737046144189127 9.183989112956457 -2.0910031248615084 0.31462923628066464 0.1692662626304117
Ni 5.533035626419309 3.7288036005049934 3.8698248771738952 1.3176672302305694 0.16892404879964454 1.18489186343734
