# total energy = -340868.8951444338 ev
CRYSTAL
PRIMVEC
9.19631077354981 0.00000000000000 0.00000000000000
0.00000000000000 9.19631077354981 0.00000000000000
0.00000000000000 0.00000000000000 13.45973039443020
PRIMCOORD
 96 1
Ni 2.6273492325916297 7.781715946096271 10.714322004184607 -0.1809750664269077 0.7952825741053593 0.1656034690668438
Ni 2.1812821734558456 4.081709012698583 1.1643577950946178 -1.2763341758097373 -0.5380110498085573 -1.2469559797579364
Ni 7.017364567474052 5.647233798698398 -0.02779217110430375 -0.8426266106069616 -0.1713074614301566 0.9937745663701077
Ni 5.206381047830422 6.636554530328321 5.176720186355715 0.7143529883388278 -0.001337744974817051 0.43495840689074117
Ni 4.568543317956394 9.027218309853717 9.641164943697875 -0.9101178114804003 -1.477139903809327 -0.18414832194856673
Ni 9.011400655143614 5.372613563260551 5.083551441219944 1.3531703082331858 0.7951545331679274 -0.8013999998570069
Ni 7.414424485941152 4.262867140683652 9.154662625262757 -1.0687759595776625 -1.0459579332418825 1.3765030694218552
Ni 5.1335738546095575 7.510296026843955 0.2506077481043881 1.9726472759277187 -0.1580092016593537 0.13076862077584575
Ni 0.6940428230668981 9.122161023357847 5.932335989274953 -0.11408730346542287 -2.8401529091645474 0.03533569918681656
Ni 1.7146245742642936 1.565920227367569 4.779079061041129 -0.33715904195206453 1.9106718626661867 -0.4103359803563707
Ni 0.08855403633720661 3.1810407179322606 5.327563595162655 2.6790987500312826 0.19055911057091698 0.8552293869726368
Ni 7.431226145915196 2.068471027915826 2.5154623162948453 -0.33406060553239886 2.9405658004666715 -2.0700314077058484
Ni 7.207498294876018 5.742829450274864 3.0514692958171463 -0.9403457571270064 1.46234629043992 0.27129792048288115
Ni 4.725312829493095 6.216577405153329 9.355414413204423 1.1523481251733638 0.2358303237038906 0.8809645869552118
Ni 3.448837290698657 4.8761599168243865 7.554502693234342 1.5017006238678265 0.765213779744437 -0.8080115916362536
Ni 9.028082763076245 7.24019118004719 0.7600714155396127 0.9574770174906542 -3.8745110533839724 2.6327237623111692
Ni 1.4013522442063513 0.7055400509265323 11.760116361285036 0.9551879643461614 1.5765379806936912 -1.3386952545454625
Ni 1.4727156166193744 3.420126408137644 12.03855766389268 0.8777622779678302 -2.678922629464735 1.7706634684596279
Ni 8.626902897335817 5.161595013854723 7.4890617450267305 0.09870516458239774 -0.6810080943297949 -0.4195533851895807
Ni 8.346433808179583 -0.09326714566216464 7.831988499141764 -0.72896559604568 -1.0171178690817386 0.1119463458630201
Ni 1.3992003074609072 4.061844981202174 8.145721564374693 -0.9294769327333025 -1.1423087386594908 0.049163863319160485
Ni 7.244835317040564 6.609407020616563 9.122830514789763 0.9568635522763714 1.1365116723617394 0.45618697725221435
Ni 4.03553433578031 1.6602743769755093 5.604699021625626 0.7515028579162477 0.4206263065387853 -0.2814005561345218
Ni 7.250307122012954 2.640040141603224 5.092408408226515 -3.1735249732703537 0.7907353210543092 -0.9583974724223946
P 8.73563088084602 1.3516002023565503 3.978440878956629 1.42970253626297 -0.3107540695959745 0.5977755714616995
P 3.7173327830917784 6.706841934368621 1.52341303922743 -1.8013184743413237 0.5263485258689644 1.2651498770581437
P 2.116117114574572 4.394834201782477 4.352661759358297 -1.9864067916056565 -0.7037459022469428 -1.123972145133832
P 8.022567327990224 4.403828193821129 1.7271389141070308 1.7641986866708907 -0.8833986503180011 -2.269997927633594
P 5.213728900221917 3.139261877613657 3.3709353412513994 0.24089025472530123 -0.5772795083908767 1.5989137772857303
P 2.5285532648296316 0.9536942232886788 9.532921605770941 2.196946201953242 -0.6297582950158831 1.0442720608990272
P 5.304873537333448 8.817321710375001 5.7384078640047385 -0.28512479906364446 0.6799562560265128 -0.9185065497647279
P 8.669334675726757 7.077959059848976 6.724010527146699 0.1578186829151024 1.6903625174160306 1.261365470315047
Ni 6.158705020798283 2.89517339429066 12.737521432910379 -0.12229092232213777 -0.1770003980498758 -0.194672104298026
Ni 9.226106925211505 5.141151614773003 13.040944514018017 -0.03654643166546609 -1.8379312404683508 0.8816646983460299
Ni 1.4999366968181564 6.204925679270945 7.160993470397227 0.40683439496101553 1.3885630859101827 -1.003004826719124
Ni 5.109359968067871 1.980416351259293 9.981493739989883 -0.7056390055045977 2.707948070162807 0.355347282825317
Ni 4.948645239164522 7.921886116498242 3.2407394896276704 0.46089620980242557 0.24012406598323807 -0.9664249707125615
Ni 0.44989364409210625 0.017149280525232666 0.3773531438867034 0.6235310831592487 3.30420720497998 0.614082021931207
Ni 1.3602355382709612 8.545938576366197 8.738636235240941 -0.298808210088008 0.10000357167884712 -1.0735088462769575
Ni 3.555597263680974 2.475922777675027 8.220220878797102 -0.3326650107364529 0.6810929407341173 0.196865512404919
Ni 6.841172447363085 0.3210928728285653 3.599899571704492 -2.089886751868878 -2.560425369857074 -1.056561934009974
Ni 3.108389861996322 3.0467102049377983 2.959391233151502 -0.03347987692500041 -1.4044476183509231 1.618742381975883
Ni 5.65007545875969 0.9409573327226946 7.715453767327256 0.3542429940175447 0.5189884859594674 -0.5659771960041801
Ni 3.2861637475783003 8.9280544896566 0.6398370078588979 -0.9745190605746056 1.3135012717783376 -1.046287291556843
Ni 6.339504492659112 5.511165182948001 7.158220782667519 -1.6349989530440614 -0.8018946801052383 0.5450005937525131
Ni 2.9602464900631533 8.950787770146935 4.777329003081052 1.0851299754556538 -2.633126911286859 0.14097332922298947
Ni 4.504812883572083 5.450405156977273 3.1892962462074115 -0.2892527051890889 -0.07776378644404028 -1.2725459124118987
Ni 6.017164600075495 6.943536583745734 11.520991126942876 0.34050121895142005 -0.3531916699348949 -1.5733202450873418
Ni 7.290283485399476 1.846987076730871 9.568428562070771 1.7589700912820996 -0.2592643863571148 -0.8221025225116809
Ni 7.594341111957695 7.9831151543237455 12.889024217207266 -1.4720223800771037 2.1871682966308716 -1.2093682513121493
Ni 2.758571392509339 6.193430290673486 5.080954403028007 -0.3756191457004757 1.981551520395884 -0.019208968828283046
Ni 6.021293743659702 7.834042954991902 7.564301362474817 1.1802227400964447 -0.3244359379584412 -0.22869525532100612
Ni 2.950857056656749 4.145126772513042 10.05091944970092 0.6185403148128767 -0.11956452452991022 -0.02828419165667387
Ni 1.9099174320687986 8.027882795677689 2.311250876200888 0.6188043671075407 -0.8265944968447636 0.3772289133897568
Ni 3.8559119917118614 7.539797792140474 7.033503173433797 -0.4467551424153532 -1.171681021174021 -1.659577413714374
Ni 5.955512531949605 3.9742317274677834 1.6783745560455237 2.0710981584074655 0.1450449281892018 -0.22430638222469113
P 0.7322479769783238 7.963628171573334 12.106192851875775 -0.8023659633147021 -2.24805613325518 -0.3945316663342625
P 7.0150746860654385 7.986186722156987 1.7080528905108983 -1.1939439463372792 -0.32010388624199065 -0.06322805472171046
P 4.38287899764112 8.427471699636229 11.847375557050624 -0.17179185726574284 0.14259980908281894 0.6420723364965459
P 6.411327680616034 4.7735014984936415 11.55380540341764 0.33079633295883026 0.3038982230164057 -0.3710544091479287
P 1.1616963827265339 7.624707330476742 4.419865640361215 0.27824632677625627 -0.8041760199402473 -0.8305051447530793
P 2.906236556276854 6.958489785233309 8.723978235332549 -2.3118107499043217 -0.6752686207428563 0.5263066168874355
P 7.449434841453571 0.9957121676901095 13.258372892105788 0.34293913896895134 0.8945076157469691 0.6323458532374012
P 6.75145323843764 8.926684239335783 9.369385448690231 -0.37086054796956774 -0.903288961484025 0.2514646878070379
Ni -0.2272564755230545 2.527422118591642 0.6137167260722085 0.3385343250330364 0.35365909648961674 0.027106626408804933
Ni 8.551336810851565 2.1170275493514907 11.592152180516585 -0.5945357243681632 -0.046749340340396905 0.10211470448457897
Ni 1.9150489735387042 6.258255086052275 0.12994387270567223 1.3451006438511737 1.3186200810621418 1.7675177237417947
Ni 5.526486236870693 3.1001775563822975 6.7831795913355375 0.5767033241724325 1.5529234265985448 1.049821787072663
Ni 4.164788485170135 4.330625559232512 5.1866669162013235 0.33069066061890146 -1.7927078498541769 0.408892820151941
Ni 5.458976118715539 0.6385053820437682 1.0107196274118637 2.5693152161475363 -1.3425243984835653 0.6482440125248965
Ni 0.8249762188230396 1.9819429388650354 9.427249556365487 -1.685724247313071 1.1589442903336427 1.6185251237587546
Ni 7.4379302565452345 0.40253356270166457 5.69174302371667 0.11608119396700008 -0.2896702523424818 1.9306115390129077
Ni 3.8194026375263324 1.3967908740108796 11.914836015127038 -0.20840308073087332 0.27047953834664384 0.964144916429133
Ni 0.7081260535454167 6.26402117297276 9.37915744862916 -0.20824932876182844 -0.5409158821601782 -0.3066948119249363
Ni 1.7682298703719626 5.70915255983975 11.373256990843778 -1.4116369370105106 0.01525718326938663 -0.2677886217780421
Ni 0.4853987611297608 1.7169144556729072 7.199879151313622 0.521960681213914 1.6216801244479686 0.11708958062685641
Ni 0.4599350959397583 3.6825431390404293 2.881298000437983 0.2968613707742823 -1.8892116359098818 0.6364177093139298
Ni 3.0658109426313356 0.40921100403015626 7.399904430695929 -0.7942757301073997 -0.0007700453968051255 -0.5272820934268273
Ni 3.8694489613242284 6.099085337376423 12.084146535808024 0.7841656382565914 0.04842312849839402 -0.2855300049218631
Ni 4.347132937258463 2.48775842977497 1.0023693771346698 -2.067632311346052 0.3679595722726889 -0.6426189530286353
Ni 6.2531603298258815 0.4218853596821703 11.514597851620515 0.1525507496479437 0.23424780970811918 -0.30397972698661846
Ni 1.2276247354106786 1.0773110341103098 2.5566084504250455 0.09441785006095353 0.7997285256918549 -1.2083863470148544
Ni 7.734428515561765 7.236457477830736 4.845206973671325 -1.5910361743098664 1.3843565040280028 0.6178003513230585
Ni 0.8613172805195014 5.907001992068329 2.6200979414643526 -0.08719896371501111 0.5227669791652932 0.4419127267213873
Ni 8.757692830642263 8.916494726882997 10.18715819720256 -0.11533557405022717 -0.47224454493570933 1.6419147063272883
Ni 8.413382951371183 6.40003461085789 11.181805432093 -0.014846835204845399 -0.3043311967887662 0.7828152948762841
Ni 4.322882265473265 4.895637703263921 0.6336966310856794 -0.7230597720842062 0.3890145931707752 -1.7477505684171963
Ni 8.744698443371696 8.136022215291701 2.9919231828823105 1.0036972248004585 0.6865359661265595 -0.35897639493747213
P 7.565804959303364 2.268941408744626 7.284271856978549 -0.13434708215572347 0.06027205741718007 0.4729989066032305
P 3.622914259307692 0.4814921682688004 2.8638268490320216 -0.5844377167022128 0.8964904505049528 -1.0664082306764344
P 4.958761181130285 4.1183930967907925 8.96255169102203 0.8949488170494458 -1.2126402371952019 -0.3707602749462776
P 6.837181248442047 5.010223736803387 5.146596750443846 -0.28656564527522904 -0.5476069210271085 -0.13055341944124613
P 3.492768067762704 3.8978563656262684 12.173195333670467 1.6847659971648599 0.3408172075299421 0.5071295297383525
P 0.09140673197155195 4.216913175226452 10.839093871652512 -2.2302887819694295 1.3595466440731747 -2.4341068144327824
P 2.3194291554646647 2.9637962660620487 6.425917627823929 0.2782003040296693 0.03673335086529157 0.3768489043425187
P 1.969757826951729 1.8692145601229169 0.27884502065518535 0.09101062415161745 -0.5760500068591499 0.25881007242851556
