# total energy = -340859.2362453593 ev
CRYSTAL
PRIMVEC
9.34055629876973 0.00000000000000 0.00000000000000

0.00000000000000 9.34055629876973 0.00000000000000

0.00000000000000 0.00000000000000 13.67084830115019

PRIMCOORD
 96 1
Ni 1.4587893734171096 5.744563439878708 5.299845552260421 0.43428503497280047 0.5480123839956433 0.37318791055116374
Ni 2.929273123094116 1.6068932312261586 0.48008496930396893 -0.30839071157012055 0.8756855979444597 -0.6505868017254602
Ni 7.122809197889193 4.472706616053708 5.983620962888035 0.062205269884150934 0.48406004951339854 -0.38049087197048015
Ni 1.5138986545140691 4.456566135081582 7.53564496530947 1.094166117515993 0.5302002955148869 0.20512286731770482
Ni 1.3809918815092153 7.716457582532983 2.805790971212454 0.3519223163041681 -0.6126643156480739 0.9240128242949376
Ni 7.084914561717945 7.882588713650021 9.700040497113484 0.33835229092921726 -0.16344914172800237 0.5897269901256101
Ni 6.911105493471805 1.6793385844783653 12.494211816514987 -0.9919408555954788 -0.31990539707793936 -0.009662977011060779
Ni 8.872939857186855 5.647823300163248 6.725442325456148 1.9574628548777968 2.025861655167169 -0.8158192606061305
Ni 6.789407387808706 6.312581338534352 7.8424327288425735 1.612631898202771 1.7086520597538382 -3.3522649797191555
Ni 0.9267989337646992 4.329385122977142 9.967661440732051 1.4190738529045304 0.7695170351054811 -0.844076712789927
Ni 8.05175552550545 0.8544367114619441 6.034408368669136 -0.8130090448508449 0.8538458763615489 0.30505110567392624
Ni 1.1417708987678203 3.825097838715489 12.955165458777804 0.21115313267218475 0.10548130696396672 -0.5542311112118455
Ni 7.498682516638811 2.528974250095591 7.581045672377247 -3.013071166725249 1.0389123392490107 1.5528424368489644
Ni 5.244675557548693 1.704137760971997 7.471036338640374 -2.026438096495929 0.167709202555937 1.604783862913262
Ni 4.275574179180602 8.685661707018374 3.633520230565833 0.6256465868403547 -0.394166826795676 -0.2300844223590489
Ni 6.181766850099959 1.1162618400092108 10.230606501957881 0.8095609384012445 -0.3334222006174516 -0.18707115202231653
Ni 7.782103010931191 3.974593439386139 12.280167368734395 0.835714971088793 -0.7821396089654982 -3.587204159067345
Ni 5.195049182893076 8.005697243286958 11.238475858494267 0.38383562007299704 1.3668678603249362 -0.1286474606677849
Ni 4.957294667462227 4.671595077477023 2.1882513121297147 0.7135752296325387 -0.22574028645774027 -1.0088180909667916
Ni 8.569390464459909 6.394983724608484 3.28651296644368 0.20866918990806643 0.5268547760814217 1.286020806969882
Ni 2.1241078451553013 7.391135353494676 7.771494007292221 -1.8183378917174555 -1.5373034606731009 -3.077733897010958
Ni 4.363039146670759 5.8874552673738405 11.095642876502676 -1.1053424458477865 0.758361532709294 -0.6103256402125682
Ni 1.5463010436878577 0.5135652586537895 6.231199875243932 -1.1449572320259314 -1.8179321716386045 0.09506216851317176
Ni 4.549037640651057 7.47463058463463 5.718502354253516 0.3342500958353856 -0.11797635410718392 0.5046219328251502
P 7.175714107742274 6.927787726698783 5.604117904030912 0.6982501692396942 -0.48725798762540606 1.1487588651602088
P 1.5145057906617476 2.6226506874043043 10.9884086219885 -0.13392387857537583 -0.777030826984023 1.239747377824639
P 7.510853261260734 3.723668739828729 0.5441135474381296 -0.2966194299668053 -1.1765470910170706 2.935601000262228
P 8.215953161506036 4.605519983497381 8.377455113010928 0.4862051208808594 -1.3323988800137891 1.562361432082993
P 8.641546260472452 3.1616287970886865 4.859111411826516 -1.5622025379076259 -0.2917574738888136 -0.272021428912467
P 0.7085418951748323 5.577302101471377 0.9574060680525835 0.3477059642299754 -1.2807096791696135 0.8784677886752872
P 3.3006909965753874 5.36239458630547 8.50782032069604 -0.2581007050663168 0.08999221018943211 -0.3469068653674477
P 6.296384814225517 5.87158566252914 0.7766849882790288 0.7063144343050675 2.98510013543362 3.1290813982449985
Ni 8.686904000982086 2.4990938110736973 9.91576717905095 -0.363714938063722 -0.7490906489303293 0.4585999575690812
Ni 8.318036099321064 1.8113580046519968 3.0086529052084217 -1.1497399981265553 1.2608821029207253 -1.0650887405340626
Ni 0.21814682002767297 2.4912103817099966 7.633199601518431 1.6623853154768147 -0.10377126625139547 0.6159049340725586
Ni 1.3148887658612183 2.7803939991272624 5.533029733582669 -0.3328141347198075 1.2938346465873458 0.06524868469616504
Ni 7.582887630043742 7.340481517666065 12.340455988198858 -1.7587798296481645 1.0960427657134155 -0.13566168720208893
Ni 1.4621893358441083 5.064075905004675 3.047710440616377 -1.5520263687055722 2.6664018712899047 1.0878018658608621
Ni 3.4964597122552474 -0.0012021295724031682 7.32333692691124 1.4108470941193638 -0.2444512326036822 0.8613421847385939
Ni 8.612637239286844 5.61955877734979 10.480400060169385 -2.5076755889588687 0.6432797265410857 -1.668950370288842
Ni 2.8167287624267834 8.5596482644287 1.145421188098785 0.9648311438628802 -0.7842121752238107 -2.70343912654886
Ni 1.1907434344951693 0.4875798315331554 8.652375701235812 -0.5301108211248741 -0.6379811971463076 0.3529726119455534
Ni 6.2944886813335374 2.4166634033312113 5.604596140504159 -0.39434706112728213 0.34865084464174795 -0.17873100758773736
Ni 2.9369697413354543 8.035306806181426 9.603757110592202 -1.320003848783546 1.4400481411633521 3.4937646137592604
Ni 3.7410515147645667 6.525751510262286 1.8425844178105129 -1.1517135769131583 0.2810776255774643 1.9412214533182697
Ni 4.754044166331745 7.407621435043175 0.06525592720808278 -0.11540987893158833 -1.2144297249954568 -2.098616418432392
Ni 3.890070747073192 1.663356892960247 11.559111930528106 -0.6572503297885649 -0.3350702777438358 -0.6933275351270963
Ni 5.390369551879266 2.2503267799795745 0.6869222439838115 2.333943577247619 1.2957267214037362 0.5842592821428196
Ni 9.04178909013427 8.322622312375065 5.50112145982753 0.8045840540119434 -2.8190567506158803 -2.2156754029316295
Ni 6.187212394316828 8.947561560014586 7.643138887283731 -0.07550584364779898 -0.44148386671408485 -0.24523207663376473
Ni 6.807976413371546 8.483999100427976 4.00196313692348 0.9875725513244541 -0.4218342108039574 0.2900888279371391
Ni 1.3206612295422218 0.4866887424794859 11.067959336279767 0.581143105111341 0.3113371957929541 0.887577207175723
Ni 2.882318147488283 8.072267386740862 12.08557649718103 -0.3989125690107775 -0.06011367746244486 0.6560581092526766
Ni 3.2722396626395676 3.985363100590342 11.522091570409515 -1.169037670013903 -0.991989449445227 -0.2549289922065545
Ni 2.561890369855877 0.5884391564967094 2.764094728701128 -1.2447954817715077 2.508014974576158 2.7076112556486787
Ni 6.067279653760055 1.4541284359141633 3.6263971224701477 -1.675580988231482 -1.284333134854814 -2.4168968783123987
P 4.58805314355648 0.04762282536827935 9.385269360266218 0.03050948144276681 -0.3722867388931331 -0.4712384722686981
P 1.333289661413932 0.2650550928529155 13.350253235518025 0.992637367441871 -0.45351431551605764 -1.8373691973172936
P 1.5363626919781685 2.954109661812221 3.204829803190644 -0.33723540371595473 -2.0333561637720017 0.6137292665774785
P 8.061918050561975 0.49920602173339024 8.92952494615048 0.26213656569858723 0.3479900711292975 0.35954820828054207
P 1.7260974084057175 6.460535747445511 10.999195096193715 1.2896414344416047 -1.4595515013036024 0.9719153044031712
P 7.52998272019066 9.239930307068134 0.07117316950891733 -0.029191533962291658 0.3481507650768778 -0.8117736297818471
P 3.931468091788739 6.059414905508591 4.110973965211325 -1.3028617897866208 -0.024983409418215037 -0.6287820471455429
P 5.567933523684894 0.2784232967691813 5.522298368658551 -0.6577154423504414 -0.06420610236426362 0.4274687833819154
Ni 8.348187414470384 0.02208481088570358 11.513246063765648 -0.3351183573729519 0.9742362392268639 -0.3711803932028317
Ni 2.3429477344469394 3.9694000901844597 1.453730528223531 1.0930813690922465 -0.4570986904332063 -3.65366486179374
Ni 3.0847466796803693 3.8542590549162865 4.691629636294797 0.728757850910248 2.4450784829529373 0.8130440118538385
Ni 6.183055846844262 8.266812489569245 1.5247234249993684 -0.18278512305245295 0.8902190156739441 1.1224734491011183
Ni 3.086792261470239 5.650597445330332 13.24986747674966 -0.6620747477604016 0.27123904222048767 0.36610709244498235
Ni 8.528123887530015 8.12463988489521 7.663262181384628 0.649814699446126 0.07559968891318593 1.2681683521694933
Ni 4.737408635885359 4.9156638088437274 6.17848551273566 -0.889784499239687 0.8617355635222707 -0.822700561106996
Ni 9.012431722254991 5.767139564016225 12.638904503229694 2.226740402496539 -0.5131438542532323 1.3748364803527096
Ni 7.551933027068263 4.362600140533207 2.727580626724139 -0.4853111483116803 -0.9663228979170584 -0.4762369539245541
Ni 3.541649322754754 1.4945356816811883 5.1613736759203865 0.7961441507747062 -0.5040218373473061 0.2372912245201333
Ni 5.687912967022257 4.619521477118456 12.999185631651322 -0.6635852708676572 -0.38571561070452925 -1.22020673668855
Ni 0.269504933787592 7.727059113727059 10.384608920955529 -0.5173198400077929 1.058043917872139 -1.0938102768384712
Ni 8.401951655486332 7.415616951080292 1.1817213913406686 -0.8916894295718838 -0.22473781333515488 -0.42016427930070216
Ni 0.9825237575098436 7.385110694798484 13.648441149033166 1.7985401402652381 1.7469586686435203 -1.0083954016070762
Ni 8.910731747240805 2.2000465663956876 13.534836635246426 0.46943227229789475 -0.9859224173155409 0.11597346474454219
Ni 3.6902575705941825 2.812964518311177 2.859954988030259 1.9528577520056172 -2.631183928627875 -0.7312783033392567
Ni 2.8908740968924893 2.83795984648329 9.320087223451468 0.7994320774973587 0.3757672412425657 -0.5029437737917789
Ni 5.763337957676146 5.179319686390148 9.258130380664307 -1.0617812734273844 -1.3347123586383143 2.4946868900086843
Ni 4.632224633439111 7.088305183588826 8.560289026578403 0.7935743331650011 0.5055223331522325 -1.1010713292762586
Ni 0.4397888761547497 1.005996575034701 4.374794236545424 0.8598411747130353 -1.0116126229927933 -1.593988829180287
Ni 6.066840647622503 5.839463490038895 4.075224854780411 0.5673437373344036 0.18675387789221384 0.2918428345137684
Ni 4.786474577173889 0.26025124484136186 13.090766982222737 0.784356671221475 -0.2904922340231449 0.6077223982617663
Ni 0.5330365819376407 0.7211740632689896 1.5365345582107421 -0.47502236479116255 -0.2768605021723232 0.7256648138072213
Ni 5.568886260408942 3.3017464794167357 10.925892279889865 0.20193649916992318 0.4092694867650693 -0.10872218249876758
P 4.038622951575912 3.491668006966647 13.485129931808192 -3.9902700881248627 0.1847892979666753 0.07278073140715208
P 1.928404513368268 7.899252265764762 5.331125206588811 0.38287171349783095 -0.28987285527159107 0.11523170148251123
P 8.827563435564986 8.71029275350188 2.975705961612946 -0.8623233177049406 0.4155254949771102 0.6715742026104047
P 2.308182184575264 2.0974405574380435 7.381451064911402 1.8674580462828743 0.24978395767050526 0.15163106604715176
P 5.4619742550808414 3.826293429898609 7.74709180443361 0.6402519954583554 -2.049104941965826 -0.24990942750477607
P 6.4322712246320535 5.746767811122586 11.223247015799268 1.6855116170816327 0.2027962760670572 0.29163303249580746
P 4.516803381487394 0.8404856568439071 1.8930710576846106 0.05460226072591242 -2.3503865532949906 0.8682592235734014
P 5.614888499290727 3.5423685455758505 3.8877570913227317 -0.08993924546430962 0.8874363107224846 0.5374466926646551
