# total energy = -340868.65798457 ev
CRYSTAL
PRIMVEC
9.24492367100249 0.00000000000000 0.00000000000000
0.00000000000000 9.24492367100249 0.00000000000000
0.00000000000000 0.00000000000000 13.53088028371761
PRIMCOORD
 96 1
Ni 8.961779462759557 5.865525072560268 6.083036864889917 -1.9303719121982754 0.086402950176277 0.5688676301780977
Ni 3.0405722144999427 1.108817663793458 9.411133603711654 -2.9712940827884635 -0.47382423071800334 -1.555986638904901
Ni 3.2057974916207606 5.973746149886606 4.9120609563156945 1.0189803762117742 -1.185661651723829 0.5307409985097054
Ni 0.9983500699977632 5.662830119512264 4.356320855400087 0.548563628513423 0.11637738505118023 -1.850070446934046
Ni 0.7513562158542001 9.177962759547448 9.76753650788243 0.8671847595623001 -0.25298035312061595 0.7607405744644318
Ni 0.8667162232942734 0.6659867410338632 0.6490722285551116 0.38299898310431457 -0.26723352060552047 0.07161062235845086
Ni 2.388463028495514 3.660009839999393 1.0476301360056257 -2.1276032925830455 -0.16764801030069837 -1.647662664554659
Ni 0.6119252004665284 6.738051730426522 11.255716843960448 0.28708449389317653 -0.6547910696147949 -0.6483298873704834
Ni 9.055504499658104 2.2798166846770354 10.743668252650535 2.5040588181418872 -1.6161717930352295 -1.830173708010119
Ni 1.991504492852403 4.510515089511697 10.801363972740933 -0.5386972772423045 1.0323238873982157 1.9370256700693675
Ni 3.457499785426233 1.7655400667452503 13.125711606099456 -2.106964276176455 0.60410665588605 -1.064451878281012
Ni 6.870836570135918 8.784508050002636 13.501355970054899 -0.342586640725539 -0.4808898793155331 0.7804007718975204
Ni 9.191284694659975 3.350748650974907 4.191407132209381 0.3769689748601508 0.35087921975163444 -0.33769177452708293
Ni 2.3096130738981855 8.6369313323057 7.736443402581125 -0.7000689676159878 0.4088563104870507 0.8872537623980332
Ni 0.9172757867480582 8.037545946403108 5.645096506789953 0.5713374318748289 -0.4644839271536839 -0.5804591916704389
Ni 4.579223362763819 9.112573413918781 13.377873372614916 0.2502480417911174 -0.21173857286200956 0.25833338990241317
Ni 0.11194585710207443 2.745132186470064 1.2679828934012558 0.3131457097566026 2.400951924947368 0.13515440854836724
Ni 3.9335209089127434 3.3603633716668084 10.317079736413632 0.8184808665986937 -1.5211942138160641 -0.7286627200932805
Ni 2.4971925766276732 6.355552255516231 2.061537563676784 -1.9433652391341496 0.3328938389178073 0.8246085767629863
Ni 4.5337568277996185 9.0996120308322 3.735808045269417 0.5448830943380422 0.33046003266533414 -0.0019332124669708642
Ni 6.8387659296741825 1.3853795575417385 6.259019535277172 0.4574853843486637 2.5051926746360147 1.1256443906299325
Ni 8.414831284322792 1.5315233120586305 8.528473584931563 0.5734614201963671 -0.7711093192932655 -0.11707981043484353
Ni 1.1353690847810916 4.139377625880584 6.954967225174798 -0.08521304363323388 -1.9336081597473862 0.41967525547942564
Ni 3.635104015437873 4.460786644702337 2.5643856068784463 1.0998654818936153 2.0036735491059043 4.224173112899055
P 4.221121241609226 1.0834680828923118 10.951353615534586 2.395112692557772 -0.12628821640698895 3.792741231104333
P 0.2942714696688626 6.607125120389312 9.070060632090218 0.37285520980209336 0.5596918772161006 -0.596784925413656
P 1.222955492314811 1.8572774450392227 3.0953104834852074 -0.3587586224997112 0.4374716602308982 0.44592416187362555
P 0.17283200037591037 4.700257904396862 12.68875860585516 0.3735964588434921 1.0977396937998645 -1.0365718640412924
P 6.458596175546929 0.4688831178651488 8.426504849532083 0.6420024024905588 0.3141355844736977 -0.3603437075986439
P 8.724425290601998 8.19058641403169 1.0860575860325055 0.2917363908428911 -0.45177882088218974 0.31858564982525134
P 0.757114878853224 0.5540880330428741 6.917121280851304 0.5007261973151699 1.927509503048816 -0.0005265619274313513
P 4.513297811558103 1.5099179252730803 5.599267570815058 -0.6750649893724826 -1.7625542090889323 0.05950638289574914
Ni 8.069958649043304 6.433376023578174 12.95094649216905 0.9434092265436784 0.9373041420872051 0.47485215776188533
Ni 4.497941993222288 2.410808009180441 3.464392800568426 -1.4316488613560634 -0.5876040302453364 0.6413285163519858
Ni 2.3020045016583452 5.888970199170519 12.841806469422735 -0.4294439048304152 0.030651149226953663 0.09335804133787147
Ni 7.578886789704472 5.375525624375532 4.108462600886627 0.2585102817999096 0.19067660998538774 0.13205005859143065
Ni 3.9360262832468833 4.15168261938147 12.521909920125209 -0.9096881801421495 1.2240587634447886 0.816008236688485
Ni 7.816999045608892 8.308200333880116 9.477136812276806 0.4713801400528849 -1.0315458715816104 0.6753210712473466
Ni 7.571204258074694 6.101501751080237 7.953736090218083 -0.2859123279619463 0.3622311544293439 1.1363715472394493
Ni 2.6653022699560616 7.343621970312654 9.61111979410319 -0.7990548966635981 -0.08826879974042218 -0.7413480288704329
Ni 6.121674174685745 1.146712606212786 2.00568250790346 -0.350020728406081 -0.43850935746679315 -0.7915279921589335
Ni 9.096829308785793 4.596862677263959 9.920084221075552 -0.5289078019557085 0.04889441170785773 -0.7536443297392827
Ni 5.362841589001217 5.544726218705502 6.745671396574854 1.015700934129554 4.129726980703326 -0.9261116158054953
Ni 3.0892929626214016 8.196050163963339 11.606829802765928 -0.21437318227137916 1.5421116806950215 0.926278994621295
Ni 5.97472611180328 5.608442233136829 1.7774567734489617 -1.5498887535372792 0.4945907738413933 0.43238576106755855
Ni 4.467748072280223 7.64883388273805 1.787808314563117 0.1533986994705358 0.18453321609181123 -0.6057629605425503
Ni 5.626580773519049 8.680465678207778 10.263714338604087 -2.941273110946341 0.7500833518609017 -0.7544709394056361
Ni 5.071700450511468 3.496883160568057 5.9357670786612236 0.6585101703375951 -0.806440904715024 -1.1857408417011965
Ni 6.756707986538306 1.5150118782550392 10.547212698636148 0.2066426463963409 -0.36027094537917953 -1.191366158307774
Ni 7.197450481024536 3.5460291751816575 2.276652147280076 0.6496853729571134 0.18314070661965878 -0.8510204910976117
Ni 4.643845379721883 3.149089129386031 1.1910568074346815 2.7833929786656837 -0.9336115237269662 -2.021896499871834
Ni 9.022481632050921 0.9707077480085483 4.949257906992486 0.07877962930306433 0.02026414956567478 0.20377818036435227
Ni 5.393534735825361 6.676628457083264 4.277408959813685 0.4766226193987469 -0.19671818819377734 -0.21303800839972345
Ni 2.1449424922019005 8.01749370680625 0.33065301807159064 0.25060542513053613 0.252626569325623 -0.09835703721435964
Ni 4.970579474619149 6.892922692956062 12.682182691597324 0.47957758826201274 -0.14471171321949916 -0.5270188124631117
Ni 1.2858394636093387 2.855368657172204 12.570093538177247 -0.010372858593891815 -0.13043129204108506 0.1307647641211038
P 3.419540128540709 4.735471818930949 6.764493136821624 -2.0311511857008826 -0.8430590701586899 0.022681243647599648
P 4.045384486193512 5.62951141434533 0.6536928414414694 0.11793135980186142 -0.3784522442738966 0.8452877023788927
P 0.8361599013415134 4.673161032908438 2.394762519533458 -0.3479098527106653 0.13181557398312138 -0.23038858386302902
P 7.014890971887069 2.8364535431956375 0.28349188858544305 -0.993957114694559 -0.0910065103865594 1.7255560345980283
P 2.3321244632104725 7.634513495861364 3.9809335003246793 -0.29496981017852425 0.3357696178037056 -0.038107605504998886
P 6.225772016023054 3.7325177769095643 10.106174366590169 0.6290712962511876 -0.03586817465151887 0.628590242849711
P 3.98005985503104 1.0781892314355086 1.5993098664136536 -0.4541853734411533 -0.9064390770772325 0.6775844133602266
P 1.6684591225282788 2.9594757434332566 9.468950432303076 -0.2500634365841371 -0.854813896701773 -1.2967762457141732
Ni 8.418825091379428 1.1294615785098179 2.581935245618288 0.8152050240608993 -0.9213897848497937 -0.4477249625277902
Ni 4.64634150913228 1.8640447292185223 8.012879565366513 2.0067100219393827 -0.5752912743162544 -0.8531483360738921
Ni 7.168282746617856 5.575419365529647 11.028073539701706 -0.6202459846500737 0.4816758655519382 -2.1094381916382443
Ni 1.730039559575155 6.284440302091134 7.140042278062519 0.5669117920033075 1.490818172627368 0.8972378701939386
Ni 7.5879283251243566 3.3959101034556145 11.836678945829556 1.6346153444523976 1.4865568262478528 -0.6873535769318485
Ni 5.949958961097893 8.672422594552053 6.399984283513677 -2.214965778459114 -1.8454224066390734 -0.419652115550974
Ni 8.299519350486179 1.4613173611602703 12.937835341317843 -0.48224227957836946 0.1334860197070088 0.046328707863210535
Ni 2.1112724799327633 9.200806966114454 2.604518745335764 0.7819341778229114 -0.1450896653842082 -1.0597205342436136
Ni 8.89761044706486 8.610370666394324 12.29298064697393 0.23452034664321547 -0.9350410570846412 -0.6705035952540452
Ni 6.848445364832279 7.813393525349429 2.426749955681512 -0.4834393852102642 0.7621392545841712 -0.1033398351409317
Ni 5.271880784301591 6.369096068798572 9.516579354930581 0.39264884748925283 0.17928019522298802 -0.5712029631794938
Ni 6.38810363201256 4.834484952210043 13.05376760953756 -1.7201168658603279 0.18113241794037838 1.796010688975165
Ni 3.485031168330541 8.319904407337757 5.815640388539665 1.1403086775103264 -0.813782946902392 -0.3404685659412717
Ni 2.457023382967761 0.9576169359895758 4.792245820124249 -0.5355695302466003 0.3546772533414859 0.18261388758191133
Ni 8.206256559774742 5.875833162532834 1.5839928767575564 2.0532549595784575 -0.18131985136083612 1.5062435060435027
Ni 6.655235703543784 2.3983920765946505 4.181041723709613 1.4839692680263348 0.37953647847701083 0.6789558397864565
Ni 5.501949956550286 2.619290284491071 12.198643596123647 -0.5567448787726347 -1.664942020460397 0.11122000921995683
Ni 8.257029680966971 8.787115118497939 7.103820666840532 -1.4537189537822255 -1.6981161932195203 -0.16480719841779357
Ni 7.6074905837628775 3.61737225170031 8.144899849882426 -0.20568208225528448 0.6674267561009344 -0.5840191411075555
Ni 2.7037334179524377 3.377762318149652 4.988470251045079 -0.46375707628998836 0.9235443692989513 -0.04277647173557794
Ni 5.222753259535474 4.128255982618704 8.329109577907877 -0.05666634234379273 -0.9464837517039442 0.9355413937598275
Ni 3.2087466222945267 5.261221387226819 8.897230480699056 -0.2826891930389583 -1.1178202665998231 -0.8886470432011342
Ni 8.982349418085978 7.836357915925085 3.443419766566844 0.6551862481706845 0.14971919373641956 -0.24907253342577754
Ni 2.50662239884473 1.8311790253149574 7.143208664444227 -0.8364983862220368 0.6529308764776045 -0.3658592381002344
P 6.943705059072034 6.825443994561655 5.880953925793646 0.9377394298524108 -0.5206866995974968 0.16325990853533173
P 5.660657562432844 4.392364964086224 3.58843009343294 -1.1258845316651964 0.3021125918708926 0.42277883410541384
P 3.7772632078218717 5.899527902084125 11.076229422982518 -0.6055511016420604 0.13441058840380724 -0.4016741909163147
P 1.2625977253214171 0.6855286608401517 11.986248869085314 1.1273644586448326 0.41614307395645106 -0.9630380565181995
P 7.860967902926854 3.5400014849017354 5.961435609431476 0.31096644271709667 -0.1480700881687708 -0.0360779766694798
P 4.2499469138374435 7.674978527081027 7.8853504648045645 0.4223695144821371 -0.6175429838966139 0.42165526202393183
P 6.883150808560544 7.726343323392759 11.540135998397233 1.2935112018096562 -0.6442449186678324 0.7420723086309671
P 7.115725355143379 0.22348956002136258 3.9475399112754346 -0.9746280753486442 -1.0777833052825954 0.9347278967195967
