# total energy = -340863.1993677691 ev
CRYSTAL
PRIMVEC
9.34318365068462 0.00000000000000 0.00000000000000

0.00000000000000 9.34318365068462 0.00000000000000

0.00000000000000 0.00000000000000 13.67469369625675

PRIMCOORD
 96 1
Ni 0.8366858181731965 7.4795267031709916 5.813740797494419 0.8532655783780466 -0.8508991350283991 -0.4924678139611196
Ni 4.390427320931144 9.25708604717266 3.1215903028018697 0.18987725401254396 1.0099295788634155 1.003836064371168
Ni 0.9706726752290504 3.0471298020343545 9.922562699612204 0.6575416357767385 0.3737926340146982 -0.4185987345857952
Ni 7.357859767855778 7.468258823890531 6.631214227471588 -0.4465517681552955 0.455522604195338 -0.0021640975308543377
Ni 1.10511174236548 3.4885391625037045 12.391870793689176 3.6557536260019683 -3.0191258575597617 0.914805960984689
Ni 8.570436806642359 2.8762242897639 8.259460156231942 -2.380084851690372 2.041933621028367 -0.17223871499517435
Ni 2.0661235658731414 0.044265200387258494 1.8990048458683337 -1.9746393666570832 1.030677352933728 0.4116770677652974
Ni 4.931229467292309 6.738219839265327 6.747572365931778 0.2496178644062862 0.1892339640015902 -0.0839478037675651
Ni 4.546327680527951 8.505884751958531 10.322711627502418 0.373708301831008 0.2912401679327629 -0.2756672531951704
Ni 2.508243008287197 5.768453452834124 4.375286692096993 1.2207574669856975 -1.3927133606331306 -0.48446602670256567
Ni 5.772162696676863 1.8326467538172486 11.010193345681051 2.1975033600082927 1.1926275415187009 -0.20936904418856844
Ni 0.037932390622502636 7.841117247145344 2.014720173304895 -0.014904685025974331 -1.4211243076756557 1.0898302091448004
Ni 8.797214556140963 9.214107403151004 5.138115579155674 -1.0299476738565552 -0.3852895789107042 -0.870603555435862
Ni 9.113546719323818 5.339330378644878 9.645185071324889 -0.1267767260076333 -1.1503138683521545 0.08309728284181171
Ni 5.389260351177859 1.6903407261881598 0.29592197886431065 0.06887368304326204 0.43932131184512724 -0.3500109582140682
Ni 6.073657884488764 1.8057664149367492 8.688052537599356 -0.34857499709849005 2.031403925141637 0.031191338001139834
Ni 8.104081146273485 2.8810453724411116 10.930018553895351 0.41236946584663176 -1.0539790037741459 0.49500060768530235
Ni 7.257878361404536 6.670920888637506 2.503330362411852 0.9787130440512951 -0.3995527736979376 -0.20886433663800805
Ni 8.970474550649126 0.31030207256294706 0.7220458911555249 0.35917642676342015 1.8541510447613228 -1.4325199511071072
Ni 0.9227085085008847 6.562511930684627 8.037479197133493 0.7927806336191121 1.9349754724085575 1.7877942146026435
Ni 5.538209382263339 3.0204456700069975 3.2731610311726693 -0.3053979474903837 -1.367471041126574 -0.6700528808698718
Ni 3.297704639864079 8.824795633782687 5.382864942083768 -1.7961166184254098 -1.1835934563408905 0.07464992340540692
Ni 7.831577856809233 2.8152600175375326 13.375423047349498 0.04532366363746388 -1.0865294269063417 -0.6076403800709212
Ni 9.278136239559785 8.864905920475069 11.923840834840153 0.03391465046957385 0.4723206495892834 1.05050801450641
P 4.047298907519136 1.0905830920494644 11.5821643521414 -3.3510367637390095 -1.0670366082890528 0.6616597717101701
P 1.2181642625093954 8.237548522327685 0.25089904629658344 -0.15511465372037803 -0.47772922219936437 -1.2078644130731133
P 7.300744887224394 0.6657634881724727 12.019207642969159 1.4049541256736964 1.0055355635607781 0.8133903394496638
P 2.868749742977525 6.245338880988305 1.9689367056016542 -2.264885546107693 -1.3477619927334208 -1.8514899529893922
P 6.084187652274069 7.005304082309457 8.861365788253371 1.374521263105136 0.7170541893200747 0.28520578881322495
P 8.912686960806967 6.665240233079863 11.316437673657344 -0.2612348798199243 1.3409305716338842 -0.273247073789452
P 4.286615209251883 7.054972445704916 4.666530538991382 0.0013896812586750259 -0.5787226685953065 0.07794762032007221
P 0.982547861435903 4.2270804440984096 7.955950578061112 0.7314389972868371 0.3363761410394529 -0.6864032972034372
Ni 2.4202489062446024 4.949504734184995 9.689354036922273 -1.0354349222233714 -0.027511060936075197 -1.314112937220408
Ni 7.288150275889353 1.5823054955745985 1.7883488522877997 0.028719736532195703 1.0470254552744485 1.4323314892453847
Ni 7.658467353236798 4.080280345214013 3.156953317966556 -2.0619015795098616 1.4823533296894664 0.7019188763405331
Ni 3.722520506467678 2.7926121407748177 7.7826102321749975 -0.49888965832706333 0.45367758056679935 -0.9481146024391478
Ni 2.960864188936109 7.5640077682239895 12.854129468100771 -0.6816588405399163 1.6319372833996024 0.8792288352110277
Ni 1.9371128883403164 0.943446638559681 13.03738480029901 0.4271237413376709 -0.1730874361487148 -0.000633776929256973
Ni 7.41216235025879 1.9608352312035724 4.294141143547415 0.5425999547308203 -0.10573918861104371 0.6787061856694957
Ni 7.691915950105824 1.3657398456228782 6.547853410118199 0.22688725557798992 -0.19876092965541897 1.491833758376076
Ni 8.135352781390978 4.894445353919863 0.9739988485489871 -0.21782925914077972 -0.06134575009733305 -0.6196960256838747
Ni 5.23385518030565 9.373548829287857 6.243454360879791 1.4578301477371216 0.5696872978659157 0.6094118701490473
Ni 4.090118717421579 5.581785990027902 0.35388428623760054 0.8864621197346733 4.223917288134506 0.22530679846474747
Ni 6.807733124378611 8.787198663447223 1.0435373602576745 -1.1113948226894537 -0.32795217864181586 0.6939559127397145
Ni 0.1874541588554878 3.1020583777307245 2.822374851759813 2.5103526215703993 -0.7779235140016216 0.17237395502145797
Ni 7.282385531680362 8.142360169003204 10.904064124498015 -2.47846657149508 -0.23752930867286834 1.4098083684422043
Ni 4.022090998482087 9.116994354029034 0.7775714962764566 1.144388246896339 -2.1023964543001146 -1.2391999899616013
Ni 9.247602715937447 0.8036249634187135 3.104100797640102 -0.7521299499772853 0.24139907604091976 -1.7217094071584285
Ni 2.0234532469064255 4.124567034923283 1.1319528398753511 -1.3909922641769659 -0.3181125668435747 1.3279639841708872
Ni 0.3794434989736084 5.426847978329841 2.6776283846049727 0.38209035524711615 1.384922660944118 0.7145188244927307
Ni 0.6391157945606989 2.099151719485434 5.264606400103142 -0.9512238374920906 0.1949209870840385 -0.42562915907001536
Ni 1.7297502741193196 8.612509161866164 10.506417301144541 0.8055590163307029 -0.6384861618071842 -0.8850904361981271
Ni 0.8361457821678809 5.942189949699919 0.07587412442848825 0.599242128704897 1.1258891596508869 1.4534456455161806
Ni 9.016228120165222 0.7399698543492511 9.414862518012846 -0.1809688957793206 1.0472838511421576 1.057060213802631
Ni 2.9486246185734206 8.013115911883306 7.879030017082532 0.33999059786358865 0.810897654934797 0.49676181335078323
Ni 5.546459413278799 4.736414748488939 4.879541107627832 0.5013476329492528 0.853648415638762 -0.7358265848315715
P 6.533744268740568 0.14940778139449298 3.3828042236636504 0.8834675558827235 3.181990073318572 -2.062545640851764
P 9.049134812392236 8.810182894815323 7.205305202264222 0.5983550981142534 0.8297800936615967 1.317454342888815
P 1.5656465994244662 0.24148485461914468 4.166063850044537 0.6165109430876737 -0.4572331591285416 0.9077611383227656
P 6.308031642159022 3.5626586370740916 1.2017884648187969 -0.32156170173443976 0.31244996924115864 0.22916165343446337
P 1.142989008205433 1.3125117293204083 11.000141948890073 0.0752811292315026 -0.4632652242552344 0.7262551390930524
P 2.796769857424738 0.9037876276295258 6.985498401962261 1.0371848150349428 -0.6846588037085047 1.6088588043135839
P 8.39176710889756 6.979180541291077 4.539628617970663 0.14064654201119003 -0.2041877570979451 -0.5056138644247743
P 6.0519816988082775 6.837930293395564 0.31907999344519566 -2.4369882497456348 -0.6136292506645045 0.26539903849994295
Ni 8.318301657170979 8.018964744743643 9.059279641018042 1.075355155457077 -2.912478812422468 -2.344069867048344
Ni 1.7080180293379357 6.129558151267363 11.596659366996876 -0.4810552012488038 -0.05062116459097733 -0.8677401178451377
Ni 6.205116476094126 9.066830801908978 8.425320349421593 0.023042483641760318 -1.6326253106055626 -0.7501545714184693
Ni 7.955907599417092 7.111087605703622 13.360120781441093 1.7892551154188863 -0.13513126861991567 -0.588496974373251
Ni 4.758240425105153 6.702687712479599 11.948359216936158 1.6260229747976962 -1.5746405065606623 -1.0609235534127792
Ni 4.5966594099507 5.555905371780081 8.959645800992366 0.03600084357464123 -0.8523083566710999 -0.2621411936842776
Ni 4.810151152536524 7.006808334850215 2.468049567261816 0.7763389431233211 -0.022162395029652154 -0.7911197009769214
Ni 1.1181267969572548 4.520222825876537 5.52163644340125 -1.9679562982099525 -1.6818969031471807 0.6737591260768654
Ni 5.464342173646992 8.981835861764415 12.55417497124521 0.08100774730263469 -0.15525426462203584 0.05983856942418727
Ni 0.9542473586659923 1.6694960838376578 7.7167940447659245 1.4916707504356503 -0.8027557425539529 -0.8124398026109363
Ni 5.671004049106767 2.5077851922965313 6.5094959046472205 -0.29892159573742066 0.3271517942277075 -1.8431850326681223
Ni 3.8331251125390553 3.6182599219812355 13.598743818959404 0.602379131671982 -4.83711562190918 -0.9108636885074894
Ni 4.020549373207397 4.641768299806471 2.610485465141318 0.42401322073314723 -1.2747976845605529 0.861324187016465
Ni 2.5322176171044934 5.933762398198281 6.698521586964544 2.4081065337142786 -0.9244841075044015 0.22738373559843422
Ni 3.333610493989126 0.9954601410093651 9.251080248829807 -0.46034187996085235 -1.375859008079953 -0.2902837175567646
Ni 6.542695038517251 4.583775159927687 7.410015286694405 -0.38033943399428044 0.2885060568310515 0.7753881491742775
Ni 6.304929705242676 7.822085182390537 4.3634171118002305 -0.14665443876816678 -1.8269055787818087 2.0280242100361265
Ni 2.4615924931567363 7.647040639837128 3.3571506447744643 -0.9722400347324417 2.6385894770633267 0.3861059041644125
Ni 6.161493152412149 4.6418150157238856 12.777605992420215 0.014932710050432346 0.05107445007831204 0.7541919747126365
Ni 8.618329965176054 5.547262927058335 7.071717299143091 -0.11833579432913167 -1.1076692942087503 -1.1434536508972115
Ni 3.696630545036373 3.0636392072487593 10.019940160826744 0.8885742809816697 0.4208461358590752 2.2635166907846243
Ni 6.9046499666474395 5.6445254671160345 10.564561800595747 -0.5136966414329088 0.12476020979823675 -0.4252656050830096
Ni 8.90570760274519 4.733593107077082 12.167482096207166 -4.16347759479121 2.5950319041873504 -0.19891828116888965
Ni 2.986286991193266 1.7812592446609237 5.068237909886554 0.6870311605954232 1.1977874884530855 -1.1781447745214937
P 0.4006600000267326 2.5847823673796726 0.7466960121386399 0.1876866741191284 -0.4962990147817518 -0.9283916700889236
P 7.9789011739686755 3.7727588040555977 5.886216806090153 -0.1982816760261553 -1.5090416376139302 -0.7036916519702396
P 3.2302281687500827 4.51657898431818 11.807454666829514 0.07037649284103363 -0.03646749879841461 -0.4008025869446388
P 3.1231552860352667 6.965203138800557 9.999838301563138 -0.3303011384899666 0.501426051595672 -0.4250236642755325
P 3.572543725199072 1.5170059862121337 1.735401031489819 1.0757763021548956 2.206320186968975 -0.11588964678148428
P 4.477076004552191 4.5049934367993 6.6403490579628865 -1.1378689577205823 -0.08807005346605479 1.0763434875122755
P 2.351632566745684 3.5602761252859345 3.7291438892387534 -0.9290125915023743 0.21155602453755823 0.5705378187916691
P 6.909947551682283 3.6632099777177953 9.467072227315672 -1.3898998024437352 0.7983894951654572 -0.05973598240805195
