# total energy = -381167.7735680624 ev
CRYSTAL
PRIMVEC
9.25292847985091 0.00000000000000 0.00000000000000

0.00000000000000 9.25292847985091 0.00000000000000

0.00000000000000 0.00000000000000 13.54259613060282

PRIMCOORD
 96 1
Ni 0.31709231156507794 0.24013107788597837 3.690357544675573 -0.4122383395854061 -0.6735840339515818 -1.6801884050965064
Ni 3.3613761451448476 2.8603485669956576 11.962703340342967 -1.7161216286580054 0.7395978789485457 -2.191658214081426
Ni 6.61601050589269 3.907604279533581 0.9383913063187368 0.6857882893272575 -0.1717923714863751 -0.3174211972035049
Ni 6.592443296733607 1.609630207343852 0.3133420996011298 0.11798920962299034 -1.2325922548370964 0.5415424600005834
Ni 9.115818709761673 2.0207008135870352 7.7698886400486025 -1.9737847319662718 -1.131725820937322 0.6282588276522212
Ni 7.682095928143503 4.41477580227705 4.803504287108565 1.9817055294752453 0.6935075123483863 -0.8551185724263853
Ni 0.730265183187509 8.436709267664428 11.902710127141264 -0.13500297057216748 0.4403536097643836 0.8556875575559778
Ni 4.800400854854165 4.999070484950221 1.4576304985499469 -1.8100589395381148 0.5492804520747896 0.7180944576591312
Ni 6.542690299619989 6.358936390436552 0.3237312878397704 0.44818698976587334 -2.7979793611202908 0.4720843652087612
Ni 8.120370144487865 7.64497317857686 4.559047465099355 2.4406363880211837 0.9461983592530414 -0.7713787709045683
Ni 5.088925674641564 6.267258373809859 11.894990408805409 0.3453096960836569 0.7154179392682324 1.9641574932891526
Ni 1.7104593703617237 6.470572974066048 13.43290116652537 -1.2287985921226192 2.166869951393152 1.6609169584614043
Ni 2.5053044434608536 7.844188731460661 7.383802791626916 0.23272880196043144 0.11542324866802703 -0.05372500032728166
Ni 8.671789171824475 5.9312197656314565 8.566261371660557 -0.5993033209601356 0.40371256150258217 0.004433867401637525
Ni 7.392470009852009 4.752470684675898 11.849243929778119 -0.4116863237366781 1.2849892803815743 0.004422554547727867
Ni 3.1529539282982326 7.351655341771635 9.620538206424593 0.8170454197037478 0.55682355452937 1.0864252972283097
Ni 9.099191197056971 1.0726457486323562 10.374576939079095 -0.901913164182421 -0.2593284068258308 -0.6110517197453154
Ni 4.3062204438733 5.535055627372286 7.85305396235792 0.2576083388109305 1.4592532533368932 1.0761015467047983
Ni 5.278323870274565 2.876254351269102 10.24208980612919 -1.4168637326270888 0.7918524653778879 0.07863898996014199
Ni 3.6260284091291703 4.433707294204605 4.21241147778868 -0.4654203229250242 -0.8804611649562322 -0.2139957443273024
Ni 9.188741040104322 0.3523163601818013 1.0631022780682895 0.4052565089509343 1.1766329658626573 -0.8719698396557691
Ni 2.208081870783963 5.9013050474487665 6.356190121226338 -0.171588225895369 -0.20619681710817392 -1.4098207097373785
Ni 2.7031042982679607 0.3743077955993085 10.58130494469798 1.2715516668194295 -0.8802966143539097 2.5253370107943733
Ni 8.936978105667938 2.159420719245835 4.64102101020424 1.3217951363560139 3.076866921024972 0.7596547975994207
P 7.687582914806767 7.962589205901029 9.26137560436733 0.47452099967471173 -0.2689178502864788 -0.968427602964887
Ni 4.726497714079296 1.8807502684236592 4.844268064081606 -0.5367625221134369 1.060587767339915 -0.25773766529994324
P 3.5820677453228105 0.678377535444523 7.161297617442208 -0.7307386287857027 2.6406669284176454 5.015508015210575
Ni 5.601325102047334 3.9035237380184036 5.625052386871297 -1.3159186229705788 1.0582856015692998 -0.39552719747831233
P 4.151243142654034 8.212510807544849 11.720033258847545 0.28658081478388064 1.0265198791219288 -0.2080575244659965
P 8.076113386966117 1.6543496112958915 2.4438835033752677 0.053291512334288874 0.23477617140776338 0.19568460472294041
P 5.092969204442317 4.197415256397191 12.539740025817716 0.7156066582402708 -0.8578051181196129 0.431250876132167
Ni 5.642445116771701 7.211751061251289 2.2558584423473733 -0.9603731080915267 0.5860112318369197 1.144142706544436
Ni 1.6762883050203452 7.975978193593684 4.915001151516114 -1.4286638105858105 -1.2145870765089275 0.29211614277981307
Ni 9.048947794727244 4.120218073038642 9.960945122197813 0.2872451878407569 -1.2273425764023829 -0.08827856993243506
Ni 3.6769657811043364 9.093260069820627 5.537798195411058 0.29333304590604964 -3.943130711434899 -5.5010425923869715
Ni 7.248078058957828 5.0343333958670895 6.96788272550141 -0.9492124634890168 0.2727264253992916 0.4668791668587379
Ni 5.148625570006463 3.292599126817616 7.779476524669977 1.6523451576319932 -1.085964812652123 0.6785658034368894
Ni 8.565371239928675 0.26687574272830716 6.084254877136355 -0.3060908597923503 0.47278113416546963 -0.6056459753487119
Ni 4.1785670408270885 2.388578749098144 0.47869285908040576 0.4689427342559859 2.3497160095905274 1.4038351815779049
Ni 5.18411055120987 9.288552380975549 3.5749883296464797 -0.12917813636027428 -1.7131949419295138 0.08385961492913298
Ni 4.869066838038126 1.259064501254276 12.156443935370692 0.5785349780645326 -2.045324391877471 -0.6063000639929429
Ni 3.02247838202724 4.743467585142413 13.389429982642259 1.5399622384521865 -0.4698192233236683 -0.08298775384714094
Ni 7.111995237951694 2.5896633935603246 6.460887933694312 1.3976359947457284 -1.6035926708186383 0.6338571476756052
Ni 7.135728999825682 8.957538113030122 2.0814296346129044 -0.009803616353983115 -0.0832911440201727 0.0716101081378186
Ni 5.705050431718835 0.18725891853933058 6.360063397140744 1.8408425005778748 1.320465361800997 -0.17121361616476966
Ni 1.9361012873438126 5.538488463885054 8.819683356195968 -0.42894973880281606 -0.6474518556409042 -0.577931797262895
Ni 6.066553099420517 9.23081410647509 10.420621362407491 0.243664989256961 -0.11417883473796464 0.7223768870845688
Ni 7.639125327697968 7.552952803591752 11.416814788434069 0.5795531349164018 -0.7405031643716343 -0.4680400199360584
Ni 5.968684873556516 3.912425055337225 3.3718088221479356 0.23165665194217525 -0.19823256795577474 -0.7577627227830305
Ni 4.727941170941808 8.167245480805065 8.120113838365482 0.8802148532733809 -0.41170020769374904 -0.6283146205908211
Ni 1.7773302853961515 0.42399879809126745 8.61746522797957 -0.4756597412648454 -0.47895538129698156 -0.03160425716884234
Ni 3.1772613717457823 3.86858467960274 6.640367915154711 1.9115133847308756 0.5009951347058405 -0.34040608813445244
Ni 7.043865924626872 1.0801313678744833 4.348595155716618 -0.6826026925104244 -0.3948476549127845 -0.152355345807686
Ni 7.315522655565818 0.6710085031028296 8.347195511038642 -0.8459721300404269 -1.5883054056422645 -0.5851789657436116
Ni 1.9053908173010192 2.3163133766865096 7.505184559664086 1.9632380667986766 -0.1586895155558299 -0.873297043107625
Ni 0.2938730125215754 4.064876307047095 6.882753931741933 0.11159796138466586 0.9651327342636992 -0.5543218711534389
P 7.452743586790471 2.635123031800832 9.037597227206456 -0.36123048107897143 1.1370711444096353 0.716578792345553
Ni 7.072818338234556 2.4341956871249497 11.32946529180919 1.6050733691292227 -1.3270905804269981 0.4376534372244011
P 4.714977817965021 5.810570829539868 5.887427505125722 -0.47849258272795014 0.8452594202441185 -1.7157830143716644
Ni 6.22474116686601 6.745505241731463 4.546615230224544 -2.278788015121398 -0.9236785808839706 0.5172033690345866
P 1.565937878467061 3.9231769583772143 1.1630514875757456 -0.17882819528723395 -0.10576207142917915 -0.15653236000351103
P 1.6818123033980337 3.4371483774980964 5.317080687032998 -1.3063551476518598 0.06106987072812708 -0.6360161030001369
P 0.05853587694628433 6.18029009784354 12.047154819728497 -0.3261801743430576 -0.14253064640778035 -0.08049044134658395
Ni 4.31610257162434 0.4124058038410067 1.4366393047147312 0.7005204533311098 -1.1769235005198828 0.08222516464950355
Ni 1.9111646447510655 1.7173805609588941 1.1737025336939317 0.21962568891957016 0.6149392277251796 -0.2535645077588601
Ni 3.5059624075397506 6.772607069617977 4.192922959559054 1.636097842535195 1.292232849317865 0.9301708734765335
Ni 9.164285549799079 3.6406202775405845 2.5137495913994066 -0.8135628604717859 -0.7389910986024821 0.7005924442196256
Ni 9.150581962533824 6.385751377536285 6.327873383813876 0.19964616047384973 0.07229427868903679 -1.172268775356691
Ni 2.8035540912129933 0.35398651379515594 3.2732993683315486 -0.07026850650825962 -0.7548836014630225 0.37098858890699976
Ni 4.536858942302543 1.0753383508566565 9.02456910372943 -0.429961210786466 0.5406166057522045 -0.395120706068513
Ni 0.4070150476352425 7.501811867187256 2.1079050392328034 0.4110713158604985 -0.3227842612876312 1.130946776679452
Ni 2.519220848084042 5.886213520892635 2.4339699156669674 -0.24676676811073633 -2.0685314261215537 -2.2399818408874776
Ni 8.32304629267025 3.0956505414422466 13.182079254928201 1.2825032807349268 -1.3623036379930216 0.4465360844260116
Ni 7.150959320310899 7.707402687880483 6.7887543553280345 -0.11042271012964208 -0.7449375459939042 1.2191734103280294
Ni 6.141326015484335 8.296573663928934 13.02180187620351 -1.1494978002087624 3.077320977843255 -0.09830870047492746
Ni 1.7534762354502882 0.9742315999806094 5.451992087277633 -1.129620858779177 1.392856056858582 0.72933352090806
Ni 6.620313117694406 4.6254557337034905 9.335276894556475 0.48484989240454557 0.015392937516302524 -0.22525151974677982
Ni 8.863815199181536 5.127871251143557 0.7343827364171092 -0.006412588394563149 1.2797475723666605 -0.11868212192495689
Ni 2.7386818087574274 9.220089962220918 13.066479641976821 0.0727910158197972 0.01516513777621259 0.41431836204288647
Ni 1.9843090453802548 2.483430520236641 3.4623949931991387 0.39201789877347326 0.9337501061873595 -0.3541131533078998
Ni 3.2455757436427217 3.435732679421402 8.982844872767101 -1.15900291148572 -0.00042603179382507273 1.8480806701975268
Ni 8.420063249102515 7.59749640190028 0.20072007907511105 0.43476248882985125 -0.053874381420952376 -1.004156166714748
Ni 0.797796757324394 5.807554374814364 3.9025022147003186 -0.6549849307931558 -0.4076491775528269 1.264518671232048
Ni 4.141536820546505 7.354412714496177 0.5862803611519853 -1.1016146033742382 -0.5942716720734991 -1.2225009320393656
Ni 5.839227149432165 6.828050617824188 9.733686718588284 1.2117683761132096 1.1678930148864983 -0.7452802740453035
Ni 0.9875835759588408 4.059972254885998 12.12858706850994 -0.023882720154868548 0.21597009444485385 0.21133953765137795
Ni 0.9979931206404143 1.6677478519171522 12.439240267058214 -0.01610770419514 -0.44262569362801185 -0.160637126200504
Ni 0.2514844212853478 8.28451709795552 7.71472915675059 -1.455995408521228 -0.3364350193018464 -0.017608714220698707
P 4.400341233651934 2.6002950085284384 2.754334062787071 -1.2373716785036109 -0.5852666403614114 -0.5458261749776019
Ni 4.368696217819951 5.272235443251921 10.116251827675447 -2.055365321053241 -2.730849400241013 -0.19911934143610224
P 7.891064067777862 0.5248140817162305 12.403880200390983 0.8011295198044396 -0.25269444644908096 -0.010699902916007378
Ni 0.7228045468526179 7.35307103984833 9.816554096596493 -0.12298409173442043 0.6724810306953902 0.806986749916165
P 1.6999572963940919 2.171319985432949 10.156120846452303 -0.046043572522623935 1.8593891532318108 0.17823581311887368
P 7.0815345969812595 5.746170446443201 2.6509899537741317 1.0008217030248763 -1.2145102005244053 -0.13463581704073585
P 2.564615715824308 7.904702884542876 2.0140146473764533 0.13605403754450118 0.9844080375535433 -0.8422211476384268
Ni 2.1553494306592635 5.917756754509955 11.223859767044981 0.3778313228604461 -0.016488484573326443 -0.3607666540686754
