# total energy = -381173.3740708693 ev
CRYSTAL
PRIMVEC
9.19607363561946 0.00000000000000 0.00000000000000

0.00000000000000 9.19607363561946 0.00000000000000

0.00000000000000 0.00000000000000 13.45938331909596

PRIMCOORD
 96 1
Ni 4.218974740981649 7.927880052207667 2.3848408104442727 -2.192964334487359 0.015207818088689937 -0.04628782732294609
Ni 2.6472921588470926 2.308849054543619 5.2832253273283 0.2983641805720539 0.7712430166576524 1.242206380888093
Ni 7.540256345186616 4.873045490474476 0.9803906696970907 1.5455389612090158 -0.571661390873151 -0.19244372918813954
Ni 6.508015452545899 8.676900263753408 5.034038395784087 0.5045090613963699 0.9868999507374617 0.8185726549815514
Ni 0.8312965642858101 1.0751957533912404 5.565024295412779 -1.4447535170588215 -1.3157461019484566 0.58945471030083
Ni 5.9981299442664 1.7998463693495514 3.794267866335574 -0.4293248627540477 -0.8212795123897534 0.49284730878772537
Ni 8.98895983230581 8.077959976731012 5.580219887770768 0.8700998763265659 1.5838347714654208 -0.34418098179585244
Ni 2.076032053982495 8.511996268253858 4.0806428007462054 -0.3441655551768847 1.703475143538589 -0.5646317377198792
Ni 5.998286277521112 5.901111365607007 11.346219778189395 0.24928310677468682 1.0624816419285183 1.4508244058432496
Ni 1.5910679057188213 1.000588006598477 10.130541122899354 -0.4984266026477158 0.28743056437868564 -0.8714666747671056
Ni 7.760539097149374 5.86332469833578 5.852879797706269 -0.22545695088936654 -0.09053188474298603 0.11250581791091592
Ni 1.367824017990345 6.745724764372122 2.7318243084919147 -0.9406730585594381 -0.3430939193792607 -1.1288078759595785
Ni 6.916661384288786 6.977723314364461 9.452968887186435 -1.4800203106809156 -0.8256871545391459 -2.5582795271586654
Ni 6.349677453744247 8.59340910966349 2.5636630636500763 1.3115017248498058 -0.3698516470890792 1.0986406083475788
Ni 3.281664918246231 0.7516171827887189 7.1952113794974 0.9987241970658993 -0.5778945162670563 0.23842071013888616
Ni 8.144999354780962 2.3793461563448424 13.353741082312887 -0.6896138337209349 0.18327414687372953 0.1391380757864636
Ni 1.07799135982844 1.9568601335230567 0.6730744360141208 -0.25517633233067016 -0.2909941133602279 0.8084152548325755
Ni 8.294867769606757 5.025957805730249 3.330133744851179 -0.03066631873560525 2.266434892872684 0.05449196040029325
Ni 3.9070439174625378 6.009606644377009 10.652159901748664 -2.011137461583117 -0.05304571487206994 0.6484119055613284
Ni 3.7710707701584822 4.301252013329098 12.540592050076977 0.08495541909647304 -0.14912809711963995 0.5617343615674262
Ni 7.35102873446867 2.990765515522764 2.4140208722399237 0.980316383982673 -0.956582787811159 -1.5193455906430995
Ni 6.150527279389004 1.5726665620318596 11.709098689811706 1.7963742429621707 0.47658482418227593 0.022744492785367283
Ni 1.4847245082195586 1.9289684416677069 7.645992801814645 -0.4914879665463535 1.0854457069238594 0.05696844696524383
Ni 8.608518258927697 3.754591405897095 6.954059977245374 -0.4639959317736719 -0.08490091170945378 1.6109115730775545
P 4.84471238707641 2.414511942581195 13.363700430245412 -1.0153252959576902 -0.4322482070484297 -0.42775880381850845
Ni 8.209601773272169 0.9694684928370185 3.9060608571726148 0.39082362135505594 -0.33759818637201217 0.11469948312812504
P -0.01838479075410984 8.66950662041292 9.393922736489163 -0.4973757927856982 -0.03873392623508813 0.25767673015502074
Ni 1.8406401527555294 0.6905203076325791 12.381192824358045 0.6896536858199349 -2.195879708361941 1.1153918596639887
P 4.449354781984029 5.315459405235116 2.9731642302569745 -3.0340673093609425 -0.2543569217531684 0.12915165399771306
P 3.8204812747212236 3.3077081992664588 7.208737884459495 0.08883958464222765 -0.7324597252418676 0.22089092878523892
P 7.379545759342867 5.228372586286827 8.107663295126256 -0.6164698054370932 0.5055413593156262 -0.1941576265554527
Ni 2.9315519962822107 3.31243498120304 1.2555546705301235 -0.4555002355978348 -0.5111499637516551 -0.35121603426576287
Ni 5.8168293491697245 8.43828973669414 11.453626241820698 -0.35911034941217507 -1.3071797004356842 -1.454282025374547
Ni 5.689528099465271 6.679862483769414 4.116189304438151 0.28176385301121154 0.5055565288242777 0.6470775030206211
Ni 1.8074883066828173 2.9463484790369945 12.000386166849811 -1.7378669907548974 0.08712131639954028 0.9880824010813369
Ni 8.062722082433513 7.241944906975046 1.7565567715124684 0.731396831194992 -0.29173022019530404 0.6168958372309181
Ni 3.0103623488045805 0.8907179147943917 1.8285114510120342 0.46333284426837623 0.21550395344171275 0.45179630438368645
Ni 2.246849124939673 5.805269884394856 8.866772519245195 -0.47380571877524214 0.017635967914208336 1.3685043674870947
Ni 4.788147337092153 0.07385826677752759 13.327199374092345 -2.4625637842218944 -0.38143626660288504 -0.8043202588275954
Ni 5.005487345436806 3.9179964413661716 10.581484396115593 0.23136817416747893 -1.723093946210781 -0.18499935709495235
Ni 7.296762702936055 1.6925189919529848 6.230092629570893 0.9380243080826814 -0.6420674514005393 0.6556554744976192
Ni 5.90556226532939 7.047723828180128 6.871620853998929 -1.8106924593570557 -1.1039239682337052 -0.08744270429470102
Ni 3.978626155972937 4.339443307847814 5.385247489745852 -0.09542906493428727 0.8629087578947654 -0.5409449356259006
Ni 8.71392365689869 2.0077971863376898 8.878347617345534 -2.945984400379081 -3.4750816926377763 -0.6599440745706441
Ni 7.7109998475533414 3.3427176522481 4.629180326842131 0.37660722064535784 -1.8507193933719548 1.720815434589249
Ni 4.071368560312272 8.386957252705825 5.523435051622532 2.307416477491368 0.20399441014021638 0.5219156869085915
Ni 2.702827248565014 3.9721153357178802 10.290653963945674 0.604100999459095 2.444820858416177 1.1821554383427832
Ni 5.732427783772955 1.2059363346993537 1.4820125860539988 0.6199863032307839 2.423503584995639 0.41593892836544494
Ni 4.018509528072064 6.828719330476485 13.042492607470225 0.4864010389417494 1.1924611911441656 -1.4017556733410568
Ni 3.4081661095295126 6.425581846943738 7.00474781645985 0.25630196129468114 0.18844617799297222 -0.5883095409527932
Ni 7.016825020190029 9.420641928934174 9.58633862599585 0.5977812278886544 0.5032613050321978 0.3980088262495855
Ni 0.6713878760779944 6.527566305458683 7.189639478377995 -0.15240728209154397 0.5174393963047927 1.1810575772929144
Ni 5.598073145458857 6.227682338626189 1.419615386061609 0.3862174900416123 0.9956566138841692 -0.19129367474409634
Ni 5.035512526415282 1.6209459495163918 5.90442930903642 -1.3202581308861971 1.6727270637224545 -1.0205047832761007
Ni 6.147648908287545 3.9916845807782777 12.724999078905515 1.319161812498225 -0.08095503968782831 -0.6681615773844299
Ni 7.112537756368887 -0.40828636525704937 -0.11751662717425451 0.8568280989183242 0.1561487514118472 1.255374542838935
P 4.095351920799827 0.4994314115761815 3.8743776240868133 0.4865969570026394 0.8608068810604143 -1.0532449538215989
Ni 0.7989383393826057 6.015887562786902 4.963443815600515 0.37412790586692984 -0.40399615418127194 -0.34423626051382006
P 0.41621062205617726 3.2227364772936826 5.20026202787488 3.9416842087963597 -0.2985413295798665 -0.5367653503269142
Ni 9.011646546386636 5.828986558742019 9.66885775508441 1.5135526381104063 0.08012071671199104 -0.9939673991072042
P 2.120991658822853 8.086089305976026 6.187440319648605 -1.9328761666773677 -0.277373951473632 1.2133917706492459
P 0.6675338015456578 5.369844985727216 0.6207009564709002 -0.43446012709808396 0.5980059423049506 -0.019661482984669364
P 7.952120902761805 7.071385326084453 4.10357780881981 -0.5486441040423713 0.44753392956290666 -1.8605129824236089
Ni 0.8178859298536781 3.509249352811413 9.345415286374228 0.7888082792349255 3.030489619312013 0.5431008056266389
Ni 0.5491269944269266 3.816876413789045 2.133675803424265 0.042370237436094776 -0.5364318782468955 -1.7952301020553985
Ni 1.753185490854977 5.47698844164765 12.215588088034437 -0.09690102149412343 0.7517147168167376 -0.49673764498106704
Ni 8.606725024535415 4.763124820264455 11.905713506618477 0.45947336131297 -0.28872691459260597 1.4834910428383354
Ni 4.591700808436043 7.374248820830278 9.064774103981996 -0.17782289395117118 0.22304602745502877 -1.3621501431342926
Ni 8.702732035076084 0.5306428860757058 11.761226634184291 -0.00281432952034354 0.09624179064356972 -1.0540196272040943
Ni 1.3906118888830439 7.619738011096866 10.790185612726347 -1.4396737885430688 -0.34798055804760064 -0.0423794934074754
Ni 3.2129150704682576 6.501559808733681 4.498314678930248 0.19042926986127204 -0.8068954757539394 -0.4644613014458646
Ni 7.998625448001667 7.3025746215818135 11.254507334116397 1.4185591180516408 0.9448235903927019 2.0512602977459315
Ni 6.02666536128821 4.413747584204961 4.015580578564669 -1.7420460618332514 -0.28352531578700846 -1.0919405706195837
Ni 7.733226757943839 8.0702536668811 7.475139866169621 1.4693499754512631 1.1700195743111979 1.230545913831029
Ni 1.788820276855465 4.432691496246511 6.949119846396482 0.5519104334984688 -1.0552766395396471 -0.7033077862682597
Ni 1.9831149242408355 8.379370491815399 8.396124818683601 -0.304560796301069 -0.43279585202178367 0.41046453551443507
Ni 4.9792049664976075 4.846119386368818 8.461618336726666 -0.3387862931428423 0.8786526509925835 -0.10117753738229027
Ni 6.383381064245354 2.7992940627960126 8.480125435262403 -0.19538352854275384 -0.6891518064828518 -0.3290215004465947
Ni 7.251122588634011 4.351756850674821 10.165509193548864 -0.1006185795550267 -1.1324413589471078 -1.1513199410191657
Ni 0.7937729047254511 8.878165535084165 1.815711435880659 1.4590272533690163 -0.17138150920120163 0.06506819325424278
Ni 0.19659918348129882 7.6078290955173475 13.204933894404373 1.0401228146173442 -0.4996941565062297 0.038765293693655827
Ni 2.0630012173985746 4.656799814912805 3.612619659649009 1.2282658595476008 -1.8322203061265028 -0.14486083720285375
Ni 3.4409777008713807 8.517780598678197 10.962398647687364 0.47906748139481375 0.07769693776184683 0.5564720847272223
Ni 5.751279735076439 9.569986167552992 7.552208482313024 0.06256676698862773 -1.408398118358239 0.7144149519250148
Ni 6.124658723771101 4.28313574793014 6.4324549925067736 0.020521002771487242 -0.9919603959795046 0.3394164705276735
Ni 2.8580017979772037 5.683421906457704 1.0798333334118975 -0.1437380364523202 -0.34965563175717845 1.6094678986524928
Ni 3.4336300378999254 2.350065857344699 9.18332436985211 1.535712204926581 -1.680836065982834 -2.266019659712136
Ni 1.2506660376945469 1.8114242262720326 3.343580243971157 0.16707414007509938 0.4482409829322603 -0.5947277857743112
P 6.998193774657902 6.559384720829442 13.222228950412404 0.4206574168870368 0.5731716568700903 -1.2237232344822409
Ni 3.8915301409508416 1.77109944263019 11.395750751319001 -0.7823046737884526 -0.29459751444077004 0.4815861340516093
P 8.450014730797527 2.599132320322046 10.95863009664143 0.042969304472674386 0.2602881996359388 0.9961371530650135
Ni 3.8032570284815037 2.6637255427394466 3.3991134944743178 0.4313876588203474 0.4169259748690626 -0.8530431779545955
P 2.729146411799439 8.416476649624938 0.5457741059170483 -0.16417085038537535 -0.8455756659329566 -0.6480102992475356
P 4.720160763440124 0.23509118961349046 9.50478784347912 0.28784862575271075 1.7818238559518218 0.11035071924112608
P 8.236987681068157 0.728154320078617 1.7635825719006935 -1.9553751191108322 1.2686550619979247 -1.1792171816500658
Ni 5.260007080181453 3.850616808585378 1.4794284893143506 0.1571406830114713 -0.38683018392494667 1.0789606134201482
