# total energy = -340862.4143020653 ev
CRYSTAL
PRIMVEC
9.33580995535822 0.00000000000000 0.00000000000000
0.00000000000000 9.33580995535822 0.00000000000000
0.00000000000000 0.00000000000000 13.66390154780130
PRIMCOORD
 96 1
Ni 7.24608223352012 7.823259346493151 1.9168266272030308 -1.4397581207267591 0.4352162885378182 1.6271064376698625
Ni 5.695124130223509 6.311567659752644 8.964435143145206 -2.2117282453584233 0.2453218081340936 -1.6968206143365485
Ni 5.493358606065041 4.213428400780853 13.289442343439513 0.6415884548815919 0.5450401887411969 1.0485886859965101
Ni 0.5695002764694448 7.424480225429438 7.288324906281189 -0.4414699827570139 -0.8506232556591931 -1.1261789229771637
Ni 7.4049310394407355 5.176314500918752 10.534622214149998 0.7719420996072061 0.6203390585845122 0.7525665232940716
Ni 2.7679649496677836 5.954276878007839 5.47114871424693 1.1996767350559985 1.3629770099109624 0.030897975130437107
Ni 2.398705659595606 1.6963633429212708 12.861912662122311 0.45441548717408836 -0.47200337545918064 1.320241932936281
Ni 8.704158363845576 3.639397455753473 7.221344204373576 -0.9023836760609363 0.9653551346871502 0.6987934433376739
Ni 9.073342967438332 0.7391636846103623 4.2373803547314814 0.910736933121638 0.1755729215747299 -0.3541704889083965
Ni 7.673671664020861 6.193880439803466 7.04753943094871 0.2946412231945119 -0.24705344611321967 -0.2599084476990169
Ni 1.0943809829702156 3.978623445288088 9.386512711464604 -0.5294014537626753 -0.4324240705046617 1.0149846247888197
Ni 8.610454839600779 2.8406629015751492 3.0272642696679783 -0.8564881990804024 0.6431486002798601 0.40950937069001736
Ni 2.838954448358372 8.569657350216525 0.39770176859805156 0.5506477647359614 -0.6870003073574878 0.7351272447717017
Ni 4.604402784744971 2.8291798553640204 7.118510258019443 0.8732841875918186 -0.03574116215535135 -2.009726183057887
Ni 0.91720504858044 1.5433120749657863 1.6870686105572057 -0.5201187429091688 1.8351611339223814 0.04270602350895871
Ni 3.6343561183924895 7.841156094124642 9.961927223523277 0.7989952470702563 -0.8006579794846598 -2.057976533423843
Ni 2.022332482358485 8.945862482874947 8.276989978372576 1.4855492109189448 0.35328731497249477 0.6028486151092327
Ni 7.702519316697599 7.049479412251696 9.46943897672881 2.2844796661895366 1.7154171463918135 0.14019839873017792
Ni 4.224864767942344 2.3523346916844865 0.5815789473539639 -0.387514611586481 -0.08940214201391698 1.1964579710083847
Ni 1.8624567373458178 6.355726040710888 9.002502841706587 1.6935046625894383 1.054008571460501 1.5708519860525074
Ni 2.1064948088571245 1.3548407441444295 4.204245698135921 0.7797523396802443 0.6003446177404564 -0.8012709304783104
Ni 8.119633968459407 3.168508538807841 9.830384728060329 1.3586197613835311 -0.6696443325775434 -0.7924667019231191
Ni 8.476775377245371 8.723091386379046 11.545969570041837 -2.0738214708758997 -0.8689197399755358 0.26851470131078914
Ni 9.2695910279295 6.561207217220599 2.5147040315288556 -0.3134709543065053 -0.6988343238779383 -0.20622381369136739
P 7.778988935815775 1.8855815385368473 5.922440832573228 1.6074840354532443 -1.3845624493912219 -0.47062500705441523
P 0.14681027901878563 1.0040756935391186 10.38209188438848 0.6269023136243268 0.03758181490851592 0.3267175349037663
P 0.5578949311482625 3.5882278815394915 0.16918261392963857 0.8726447542356068 0.0875782014313008 0.053948172081681275
P 5.954678317834731 7.041459951523761 11.04940997653788 0.7475672703072673 0.3028085894966527 -0.89265796413274
P 8.455704454238445 9.698692859638538 0.9194988570796875 -1.113145229721657 -1.9939074708580757 1.1655060027115605
P 1.7031318051188873 8.635110713619959 4.3450801252199565 -0.2677909357708872 -2.3297477939987163 1.208168060356461
P 6.612927604220317 7.942991108816507 4.258341115181258 0.039604244655183404 -0.11160747446636264 -0.38254029830034114
P 6.996031900415344 8.724398399768932 8.29677536035245 -2.719462241449994 -0.9496482654748549 -4.315514895137845
Ni 2.3158036674372124 1.3654462242223502 10.57408374913359 0.5855384059655593 -0.2722885665309246 -1.0685751564207662
Ni 8.308385373578597 1.6990613919903894 11.939544910651826 -0.5192283698844155 0.5360274437196253 0.5885743645784057
Ni 6.5927155757267455 3.583662670484823 5.779324733542852 -0.5102973859433727 0.6077571081544436 -0.054346435961364466
Ni 4.657654244572839 0.7670889592662392 8.493890717585908 0.019205369283857247 -0.45734937299143175 1.258450610661097
Ni 0.42608449794038805 1.831629892964397 8.483766031719266 0.0797525347392949 0.0564763378201737 -0.9474581998020716
Ni 2.118108556407242 4.5788039939230885 7.515487567767101 1.0386454587408693 -0.28460312223221956 -2.298448726775119
Ni 3.1342741238027934 6.936814858043645 3.447333705271919 -0.9813494532328777 0.04032441065065959 -0.16245463902521698
Ni 0.934654610916392 0.21169135727364902 6.222636601542911 -0.0020717949273641742 -0.24290728515533008 0.16856923656338713
Ni 1.0701172129680012 8.273590809977884 10.757807820606688 3.8130354625769938 1.8064514246925145 -1.9724156195328872
Ni 8.27994849653868 2.4172559139220393 0.6024472832854568 -2.374740556659323 0.4298969332074338 0.14522979050649826
Ni 6.204149830723987 5.830110605968803 5.0562858598396945 0.9380276505167909 0.38116141567494355 -1.1963674681771073
Ni 1.517489224705638 8.725705413158815 2.2472060032501133 -1.5434666520610194 -2.1973087274989833 0.999625111613614
Ni 5.697420739465735 7.611411147612716 6.5059980380508815 0.10895049645948979 0.8167327735593353 1.3324312759136214
Ni 0.23230109127014334 6.307375881095085 11.025265704902743 -0.06459331050035326 -2.0886215120032094 0.22910020406890866
Ni 6.870306548118376 1.0540129408426375 3.7817032064821205 -0.5238447856105043 -1.706028763198378 0.3350561366764488
Ni 6.1705689224138816 8.802977911930778 12.581433190139036 0.17765628646631984 0.017035358215731954 -1.1158081212658009
Ni 8.928824629756807 8.993671165514938 8.723868125765035 1.7048180307197285 0.17685564494189543 0.19672847260642248
Ni 5.456052709593764 2.7381930518081985 3.5211052753209757 -2.0654304185987264 1.644109657096078 1.284832957309368
Ni 1.8542972394689667 5.113251104856822 13.042467226124938 -0.02539658569623368 1.3787682113069482 -1.2090885152882016
Ni 3.7689784975506013 3.2900047692075414 11.829413161677172 -0.00999979152518923 -1.069714155121216 0.19293198167846773
Ni 8.39771040296728 7.569278637408794 13.67674588694004 1.4844482645452821 -0.04446105852685246 -0.6266560019414756
Ni 9.443731890511767 7.097792228627786 4.82390354702318 -0.00404460238301884 0.846652186826587 0.1991640786311086
Ni 0.6848451417077519 9.640904196185783 13.205272548292932 0.11699804935431463 -1.5038413243599134 -0.6258569030789479
Ni 7.811981688100433 8.859039450546899 5.875354741621644 -0.286991419958738 -0.22917193784710857 1.145956362714407
P 1.457077198663187 7.433386588100508 12.688831413966843 -0.258307164650168 -0.16278194045764868 0.7183695656973886
P 4.71210068807146 0.9679087658790269 11.222900133168181 -1.5643866900431378 -0.9452588781579075 0.06911639518168741
P 8.325703300994567 4.6586064971854695 4.6454121970145845 -0.6304144405426434 0.3087550368880747 -0.24763811497209612
P 4.523461312671404 1.1037167928979625 4.534474767643167 -0.5867928471979508 1.233682916798114 -1.8247278544041994
P 7.1118799658087575 3.5248750753698 11.863039815455926 0.3052763343108549 0.8405082787123783 0.9238518732370412
P 5.95253108155135 4.1889592429602285 8.53575715720689 0.417016734810656 -0.6350982191715578 -0.421315619296326
P 7.768626186795975 5.574934913213695 1.1529407843230015 0.29266584463569595 1.9373959089245927 0.2455822608843319
P 4.255374194786221 4.705584292741893 3.810110208930269 0.11280483720857346 1.4292700767112418 0.2455966590620351
Ni 2.0209227750593954 6.063449839302912 1.494366290676594 0.1270675177751747 0.4379084906580007 0.34744396881784034
Ni 0.9828927408130608 2.6122996549325297 5.957583621884247 -0.12696827319314904 -1.1028788147986426 0.37046896895810394
Ni 4.5923222466984654 5.267600050392262 6.5654092652690785 0.26290738242634076 -0.401928730129282 1.855882939850765
Ni 5.245408830194008 4.601975474163756 10.644261032360465 -0.8425456208573813 0.2730645254650007 0.24015543344180573
Ni 3.3720945459022205 0.7702323264689117 6.431065093246813 -2.6199044990593134 2.1560618050340543 1.8913063136553812
Ni 6.457084929096437 5.037603037012287 2.8226615928724677 0.47563531578481316 0.12068501128759859 -0.17724439573988185
Ni 0.8881902849059952 4.986797559385488 5.625058876715768 -2.8126968698361234 -0.3448474117352577 1.0083043845551667
Ni 1.1170389936648575 4.300839589134348 3.494283493398559 -0.008452758753043507 0.1787754876724276 -0.7011231199121151
Ni 5.955341160339602 1.8910243157247237 12.837181168042715 0.4199691325707606 -0.15978274862000869 -0.45368966475165734
Ni 4.552766420034602 6.229692606686304 12.331179336377835 -1.286684665806126 0.7155773476642321 1.1779200601051973
Ni 2.950396011465888 3.5016849235092766 5.202776854158951 1.1778745515792421 0.3264110594069411 -0.11912923676470451
Ni 8.451297951952547 5.196274462544275 12.82590817755496 -0.12280411451313045 -1.3930766575098201 0.20910036390821407
Ni 3.042839201370439 3.0481139339796157 2.6929769235851415 0.03987601025933133 0.3941742829948437 -0.5847454777506187
Ni 3.8373166262217095 3.684909529151239 8.860603198709796 -1.7756992311113224 0.7389538176066435 3.7017349778280892
Ni 1.1221363458854074 3.316462454542776 11.713638849182189 -1.4243782958365792 -1.1470092294589536 -0.13624635606096536
Ni 6.639459976034974 0.0534857886570554 10.140951648278747 -0.8205477764300514 -0.30159657146642255 1.899499390989135
Ni 4.528474642602604 6.109269994428294 1.6639354071372412 0.2602640312662227 0.2749658562527716 -0.5681654619047505
Ni 5.63118316802837 0.9738556768030018 6.262794587947116 2.664036970602154 -0.9319886434115625 -0.07622009610600422
Ni 4.480348542425068 8.629658600622156 2.4361917371984885 0.39612549318394363 0.7220025344642856 0.3430422402057189
Ni 6.220991631833643 0.7786392233088479 1.2423918471457096 0.49175484705449496 0.06025020304030914 0.4547376464001975
Ni 3.5182186428913167 8.617101936269334 11.956405383381338 -0.011326223646096622 1.1772387177674564 0.35101034601286
Ni 6.103948582769478 2.2651849060089684 10.442650482646798 -1.0034915365475556 1.068860548871669 -1.5315110223610398
Ni 7.074032592361671 1.6464167598078243 8.096175878853957 0.4364573600337709 0.19176058707818588 -0.06019800964613503
Ni 4.029055490517778 8.568817127323028 5.13182003080311 -0.13651580767226812 -3.380767972254855 -1.4987086311190383
P 9.40190746203546 5.572208856714791 8.315413371292205 -1.8526988856958286 -0.36595179781404075 -0.2230038613631837
P 6.467232954487898 3.169992932586353 1.8238989087632298 1.1586378148368175 -1.472057089969781 -2.6010377440617978
P 5.131726672703833 7.974611497041786 0.48556574373304257 -0.6841409835318217 -0.8473759523664891 0.9865518233694235
P 2.5265128975064624 4.7335077002357835 10.901771611178505 0.671654935249669 1.1552961520580942 -1.3159330211482823
P 3.749186580503778 7.337097044505725 7.730557554653602 -0.27814373976012097 -0.1684792479527421 0.15619760237191163
P 3.406907781122789 4.455253885339284 0.6789514449003652 1.1048662775423164 -0.5379999940649638 0.6952566338290092
P 2.930370699170871 0.8853409957160467 1.8757668015598068 1.7989088364585664 1.5597782447368491 -0.39109667251078445
P 2.401571753243424 2.2619267083441845 7.88295064800918 0.8619965304931413 -0.0018308825611516855 -0.6062242164496849
