# total energy = -381169.4398044994 ev
CRYSTAL
PRIMVEC
9.32495580325141 0.00000000000000 0.00000000000000

0.00000000000000 9.32495580325141 0.00000000000000

0.00000000000000 0.00000000000000 13.64801539903208

PRIMCOORD
 96 1
Ni 5.039700431030529 6.223037344134489 11.14011087412418 1.2245565290168137 -1.7433503824669718 -0.5662823859494247
Ni 2.1006608071368658 3.254325710331473 7.510394141128714 0.44149132291325255 -0.1921951035124432 0.16831983955674237
Ni 7.2466284364474 1.1816024712927904 12.170959579671678 -0.35859767144181465 0.42461280199035906 0.15543861271870005
Ni 1.9544827972880268 2.6760945153380655 12.146870420903975 1.2547577351905421 1.2837700632624924 -1.678500732981438
Ni 1.419948345988907 4.7708712752553195 13.011881311922593 1.0466613870668102 -0.35481172203682115 0.990221816021843
Ni 3.4302410047814824 4.7778370173679185 1.8116645690766293 2.1658674782705662 -1.5034731423872172 -0.5102943006195793
Ni 4.2708951107959425 0.3954462054773329 1.7221067594064818 -0.2972845743546299 -0.6347079257116746 -0.27283492595269787
Ni 9.469959039422584 8.222634278424856 7.913174424479617 0.22911923023230218 1.1854101978346554 -0.13859968678449036
Ni 2.6708165902567664 7.952639503152893 8.328865109376563 0.5634233192340748 -0.8749754592513124 -0.22617737399515886
Ni 6.335067365206443 4.556164163953361 6.2003478612584875 -0.08109130815537646 0.023158183284018183 -1.0187967994460585
Ni 5.20779208741833 6.968418374962321 13.196007230107732 0.008622451561688374 0.2502398142610013 1.8914700929267554
Ni 6.539461075201129 3.3713818826734268 12.43079015293195 0.8229291321780344 1.0441599608011953 0.023345102483843666
Ni 8.968593456523077 6.117506817376431 9.203089056897518 1.3069303034290396 0.686226919526573 -2.148054361348546
Ni 7.234617893152855 6.997512237601284 10.154314760869596 -1.4837304125426511 1.431898001252392 -1.0437370143311637
Ni 3.3267806182496584 2.5346815579919535 2.905757923526766 -0.25672953575040297 0.8775182802778242 1.3428840958158292
Ni 2.5839080005788397 0.3632350100562532 3.2616709781522135 -2.207885217463249 0.020261064241881233 0.12956354472415105
Ni 1.980303600380106 0.24778646012422104 0.2006711875698549 -0.5742651470445851 -0.5392798892186519 -0.017037672208577107
Ni 6.074108472273312 2.024028318942316 6.05427335842096 -0.2822940144830687 -0.394594658361714 -0.9118371081643523
Ni 6.7516317984781535 5.369449524184053 8.379199356733164 -0.5095993314350836 0.8361695421277083 0.2556393880100178
Ni 7.215082110387269 2.9260965850017153 8.255179307269804 -0.8369053918524684 -1.1961417253195465 0.2113333670037909
Ni 3.6314922046129214 1.0608815912530438 8.281574527649884 0.14932504362179444 0.5705391043432496 -0.7851112899993123
Ni 0.33643974906488816 1.2008771552911033 11.705562216955185 -0.6876623664215189 -1.6853414100523556 -0.7049059839933149
Ni 3.0517410417957476 1.1239462685053847 5.704911085367267 -0.9427499956931248 -0.4947764074896382 0.5652128070343299
Ni 7.430358044003644 6.275313047324881 12.16113294106625 -0.8403442423306883 -1.9745583769075026 1.423830136642593
P 5.924060605695252 0.9766772388075847 7.997586723443297 -0.21249062053668566 0.5364712161252632 0.28202841952650787
Ni 4.172712649345418 9.215322466639844 13.014611659031788 0.7067821179701054 -0.6133525999643502 0.862403793233889
P 1.5019706587364439 8.30826534913434 11.955784355579821 0.11108451208335707 0.9201412571546734 0.22651984493624217
Ni 6.245622387503581 4.898343423420262 0.5621409834602249 -1.4183128063687895 0.08297515544165064 0.576742147830168
P 3.1425101632469215 4.892226252301302 4.094213304964868 0.16580324378247574 -0.931449483078641 -0.8021273649413346
P 4.146257749247105 4.860176378618572 13.143571137674586 0.015848536996482383 0.3525573787850057 -0.25115024189041263
P 5.381124369063534 1.5498076828831997 13.589288180807895 0.7342939502371288 0.6788126293403729 0.5168202746635551
Ni 7.224891964071945 6.315662131824494 4.402699633506417 -0.007453370954251679 -0.5865966720267446 -1.2115868562300232
Ni 5.410488655425744 2.7011786469081964 1.903816581498751 0.33065080851990153 -0.6575133536419644 -0.7793484193736062
Ni 7.943556996034191 8.406615659792399 12.601840617850309 0.3191196679518504 0.39566629415933796 -0.9464264161034477
Ni 3.1959887857579634 2.4088599270344146 0.5415953079626523 -0.06971623354921543 0.3553315990960332 0.3352196588375065
Ni 7.2528948068619465 7.021318850202973 0.9557455101326875 0.7962873612207899 -1.6168479931666477 -0.5907680297956148
Ni 3.3947688722562854 2.986307825726004 9.762275894305171 0.12803656655666337 -0.9073790723929985 -0.17607865756655483
Ni 6.545223897993077 9.064090330653082 0.7238916697856881 -1.3567353998766247 1.833072883934785 -0.41732063920432
Ni 5.334369039809766 7.146459759374408 2.8239379623238654 0.41089288130110524 1.3922590467045313 -1.6395798875465248
Ni -0.006197365740337994 2.854536872857036 6.23763463021623 -0.17850500761986032 -2.644582204311652 -0.9431757703766337
Ni 6.223326417769683 0.5067927072763908 2.9909488563142768 0.8240557895833099 0.7585019149419002 0.7622261578710228
Ni 2.516441944106758 7.870160267562628 5.858082812196625 -0.43661522576787387 0.9852295050135741 -0.008183564252056874
Ni 4.752435837294669 8.517125713040585 6.7068943896971644 -1.1408743202058094 0.5185082038889393 -0.3403770346687299
Ni 3.5997500544773353 7.918575438979774 11.15901349237913 -1.136464621173888 -0.2804029681079429 -1.6073043153422704
Ni 0.5658784258146147 2.29462921635259 0.18567479337242554 -0.5531846722252022 0.7336966829727622 0.4593432634930089
Ni 7.594141570731446 0.7717184364808725 9.559097226073902 0.8922111064033087 -0.5946665935190726 0.1459972648001421
Ni 5.627629580236924 3.8911362787537147 9.995410983603001 -0.08788082027338413 0.8176223752531403 0.7864755173366906
Ni 8.566063081992276 4.7984544950264905 0.24926633063729906 0.05703786675059854 -0.7615155049572433 -1.6969805369531805
Ni 7.737083820857297 2.9853566802166536 1.3648835484666835 0.07332529105671243 -0.4434685012442814 0.5136645026433928
Ni 7.058338925419858 8.26118364642148 7.839311448209354 -0.7050990738407276 -1.591179641866266 0.8007991330482145
Ni 1.5740991931955388 0.3731679531597862 9.18248090419492 -1.1038319227405313 1.9215388872876777 0.7813808764226027
Ni 4.816899257943115 3.292539379913033 7.786110709386339 -0.6406646575157419 0.09382932454733518 0.15743173188932888
Ni 8.170433174882255 4.256516028683994 10.425378176096181 -1.6628033768508395 -0.5284280341058125 -0.8312528215523813
Ni 0.2844130221990022 5.815518118157583 11.29411531952202 1.086704261921309 0.0652941932221198 0.30963641105176354
Ni 5.372526759655482 1.531232370582939 10.209070902349078 -0.18722593243262592 -0.27556338062745445 -0.04503904251750953
Ni 8.245172697014077 6.845142456985691 6.434111452588967 0.06095237131365632 -0.9971311415471666 -0.17027387795931967
P 5.634595322349522 2.9020195486767784 4.154155986957106 -0.014471197032981529 -0.03149138574006189 -0.5900355225049645
Ni 4.335311906664518 2.877858587748076 12.15770695224139 -0.45446742345794633 0.344785962369703 -1.366445170965221
P 0.6391101025654369 9.46893329426544 5.874774483390133 0.4643713128352196 0.4609334907982642 -0.16926831951294075
Ni 4.632666102764274 6.203454936589033 4.741552681177383 0.5370096051272365 0.6618927136565826 1.7974659333644525
P 5.848463187613819 6.715329744871268 6.6278308854801855 0.9059245993346592 -1.0875614677152818 0.29527242902060763
P 9.204430918062181 4.903071176099093 5.653526847967991 -1.8965845313351852 -0.0649028713209721 1.969352664336847
P 1.193053517228895 1.7129291377368447 2.1774182497414674 0.2876082276071305 -0.40260647292259694 0.228928968598367
Ni 6.501937452361647 8.474818387786428 5.019835477319061 1.503204976327495 0.18080563072857891 0.5659640833780576
Ni 8.249937749516805 4.117079962004376 3.8681614522249084 -0.37752304759140787 -0.9492422882856877 0.2622844041303612
Ni 2.6761131652500136 6.9309507018586825 13.145549893332275 0.20483541798427302 -0.7848518656903386 0.285165936714225
Ni 1.785449320346849 6.123931712042536 1.7734098696887832 -1.6240313982889643 0.7256162199574729 -0.8279106445530258
Ni 0.9824493865555072 3.901710778828261 1.9135882028639335 0.05441534152608693 -0.308013787846676 0.7371224208248596
Ni 0.15622937989324212 6.935697104449463 13.308794437604778 1.3144613216987622 0.6351882077822029 1.3760976064533206
Ni 1.188754712524869 6.283519008582024 7.141283476313227 -0.6828250929338756 -0.9345062676270938 -0.5428886896158327
Ni 2.8817470943892447 4.876597626088833 10.873810646409126 0.4454017137112523 1.3042887520411344 1.4002052981348012
Ni 2.7631896041354724 7.391584877063642 3.5977395939693353 0.11258912165334158 -1.0652561193498622 -0.7873237242695988
Ni 8.380039535266423 1.3308950164369542 4.397403991008767 -0.25628499201381666 -0.3067971418307555 0.2617043632571751
Ni 4.255126610243864 6.152904350253835 8.981062787651545 2.3494704692386246 0.2724199499024663 0.04067022402585254
Ni 1.1329728258882423 3.7311293591953945 9.758986049837535 -0.3836798112214231 0.2121422360583314 0.1953722156888442
Ni 8.808073664386185 0.3647046231177598 0.7701042866017684 0.018290827889387854 -0.1653916101663539 0.44707035966292685
Ni 0.7584490241298328 8.088998334361083 2.0231545705675495 -0.3915247611871386 0.9379055231166299 -0.09367737235050319
Ni 1.3200127928152654 2.3700401353145426 4.34008255414083 -0.02418199656284222 0.07062743250957515 -0.2490203400316034
Ni 9.186312528604647 8.255290274245896 4.201077300427212 0.07776558621625318 -0.6581527869981761 0.7161478754557214
Ni 1.14195275849123 5.503691590386139 4.242608789344331 0.4479602184670479 1.3832822971272178 -2.0766432565954105
Ni 8.783054807507872 5.7218396104425135 2.2354493157590287 -0.23058553036518353 1.3350633142198296 1.244760000547882
Ni 8.870466944808397 4.316270346565555 7.764219442741714 0.883464213448614 1.8870814769407567 0.9736078616142458
Ni 3.706203751876822 3.3907964410113505 5.544328816025348 0.7255935942496535 -0.19184054838650186 -0.4797966462513543
Ni 5.6166354571435475 4.764856678652072 2.9921359232097706 0.8074467202717189 0.0705263881553366 0.6647371250839132
Ni 3.3591288905235563 5.481899168274839 6.823857312479378 0.6969527905845094 -0.4219897625452152 -0.2763488526432273
Ni 5.906315214476679 8.639907408350592 11.350262744432829 0.16918090200545702 0.052829485096205796 -0.24365676172684494
Ni 5.0052913434863715 8.60215066161176 8.982728224788508 -0.20628860549103184 -0.8730669293746899 2.646406916225217
Ni 9.449444136279727 8.195694480615893 10.384775452794075 -0.8493297336587502 0.2741981248488116 0.05975140902701967
P 9.31098718997738 2.145513845371933 8.81526693542455 0.0037723225582386648 -0.15429035804686977 -0.5325610824375796
Ni 7.863297099965745 0.7024209586554921 6.775175447321375 1.7101168172248224 1.0854634475356726 -0.3952094091275774
P 7.542639838886897 8.043389974692118 2.767367184411836 0.10309840855408696 0.2731010351298909 0.788215639956249
Ni 4.408783234783872 8.991728672294638 4.37156826798713 -0.23416039220063542 -0.020372135898448787 0.0038566547419288414
P 8.751210082856572 3.260312332066798 12.165950213322429 0.4775836977604355 -0.4204725545697403 0.6518394431856387
P 2.319144525608306 5.655725672586667 8.8854726639618 -2.035544429672572 -1.0379921414275866 -0.3153321758849601
P 3.555214064745385 7.440242497336112 1.4145892937906341 0.5169894532515678 1.0832980644532375 0.5618456903343099
Ni 3.1685640902383514 0.8766083387635144 11.271022998547942 -0.8257971977544487 0.5701603808475922 -1.422532757987408
