# total energy = -340857.97578181315 ev
CRYSTAL
PRIMVEC
9.40179322655191 0.00000000000000 0.00000000000000
0.00000000000000 9.40179322655191 0.00000000000000
0.00000000000000 0.00000000000000 13.76047473487810
PRIMCOORD
 96 1
Ni 8.38503612621019 8.800360333480807 8.869891293862693 -0.3298470816716836 -0.28266605311050674 1.1256310208934937
Ni 8.789792718110753 0.1888632184641117 6.790271085531814 1.8779592029245142 0.6014972432876609 -0.3884798037132277
Ni 8.901702260592748 4.0863389134772365 11.29261583627462 0.48982214880815644 -0.2688574293621886 -0.9170950141291818
Ni 1.1010063750228127 6.244144432677667 11.169459868965525 1.881114203613728 -0.7814742074673573 2.055308499673376
Ni 2.4772502411117783 0.890431595905616 7.785511049640953 -0.6611720334404741 0.0911710609888817 -0.59484142853404
Ni 2.0696355041289243 3.169476056815539 11.454562661462104 -0.6672372657979476 -1.274919554850398 0.39682997545013593
Ni 4.4043827682265375 7.694135963324205 12.65691190377616 1.150434967311051 0.09543240736839693 1.1114570433859567
Ni 6.813526420601058 8.369466756946125 6.496787534724856 -1.1918289568768052 0.5193065314205185 0.6696466465703886
Ni 5.25673052108991 3.878831939426987 7.54877578140705 -1.1670327237687321 -0.2952516030850012 -1.105059110279413
Ni 6.025327101607689 4.862691973247946 3.6916046329507664 2.3885993169192865 -0.6347912294541004 3.0542610106999977
Ni 6.328187060607312 -0.13956961758760145 3.0497893511359373 0.4002503139855946 1.0411391716970004 -0.31278344132117747
Ni 4.836639604751129 1.2068705645840383 12.541503013926963 2.689178502864788 0.3685308713951266 -0.9585514815017554
Ni 8.145412627156288 2.449355121180325 3.5658622323780578 0.8182132147596037 -0.265847181780955 0.4067868295525317
Ni 8.78015588025105 0.1450358200574857 2.4624226733180823 -0.959363950100722 -0.7849703935460739 0.21343241562466467
Ni 3.407783304844702 6.323617789192857 1.3565113828695068 0.622659736297889 -0.7753128158516518 0.47196352336018077
Ni 5.894651580230115 2.909469470464234 2.4013956347353194 4.884869749365007 0.03536706664538425 0.3991923050347254
Ni 5.558575086441877 3.1995899999029813 0.08797069705918957 -1.4591794626761643 -0.04859950617525823 -0.8853452325214107
Ni 7.56613995296128 7.182480984628693 2.63204888305562 -1.6430958711195833 -2.072852936315043 -2.4263454253198082
Ni 7.777520465741478 3.3133328920265788 0.1745170224737499 0.7253956193062345 2.1501307842616004 -0.32647276588281193
Ni 6.292535461422927 1.802991251895717 5.760079955819313 -1.3916671787568033 1.991256406388474 0.8261085583472805
Ni 0.4826128400139278 7.164871426276279 5.309892019620549 -0.4976154196003301 0.5101801436392182 0.4088246859181669
Ni 4.5110367084026075 3.0931334973806233 9.92520965563748 -1.2361810006296194 0.48570735530883447 -0.8079156894883377
Ni 4.951642337141263 5.5386244816240335 12.976884066276707 0.30758647050127025 -1.3021071710087833 0.37348384452502775
Ni 3.2578717149198586 2.0196743759470106 13.87331024542071 -0.805861120952154 1.970952147613483 1.5253920539474957
P 6.229665671405528 6.88932367604001 8.268352353225604 -0.09090032382599829 1.1511433062319854 0.05352368294975298
P 4.975043400002533 7.884240218468785 5.3124098197950165 -0.3507429512840862 1.176194335663342 -1.2650555175721245
P 5.944443476137421 3.5129423599283887 11.31137147319786 0.49664611370852535 0.4819309189855378 1.8204701075691097
P 3.172287192932662 7.7062078655796755 11.025359527314908 -1.8247365961549478 -0.20838174057463468 -2.615576561107921
P 1.1290143164706716 8.830399062223979 12.95979348689976 -1.4277837219737022 -0.4587981896228163 0.15769372730146392
P 0.6826839359536999 1.6827235154066231 5.108424757415249 -1.4874765098486447 1.1747545178930219 0.11502061391296967
P 1.8889236402251663 1.8416890320230708 9.629332408324103 -3.296348885277826 1.8108942909552166 0.14591293261645194
P 9.055675425108218 5.695643827082473 9.792091548429712 -0.8047817718450463 0.12272878119050476 -0.859734731042158
Ni 3.335474114621311 4.985733238682028 10.904488195713043 0.7982059183997414 1.6557922356403292 -0.8628887032901074
Ni 9.803813703984323 0.9653196979581941 11.356010246343308 -0.3591478875183298 0.26517278142174977 -0.01085288355410389
Ni 8.121400447747817 4.351704521857839 2.547738304024511 0.8596532270719451 2.380305195231294 -1.6519162976246906
Ni 1.567711381223455 8.946116330884687 9.771615383381276 0.0850387228388987 -0.6614175737923771 -0.20414919055052583
Ni 5.279623887127352 8.180396699035269 10.660184484086885 0.00790897043443154 0.6992431292805829 -3.04377630911859
Ni 9.130363268969175 2.852757854884011 9.195670943920252 3.437314758301648 0.7396991804131002 2.3997080252379384
Ni 1.627252936506869 6.5808508465991755 13.727394417535255 -1.386718062281644 1.6140704304215105 -0.24186855947817054
Ni 3.5489512272480592 0.9427553946769383 10.136874102567301 2.0388711800529595 -1.7438360638541388 0.6540845304660735
Ni 2.7937898089756623 0.6302962049897475 12.332756883554852 -2.7383081705119032 -1.7055207132137078 -2.015548189056303
Ni 9.273844032458861 4.885444312389879 5.654770472047084 -3.7240652658941737 0.13263704144315222 -0.20283021462878617
Ni 7.7949795954053505 0.6813338384740382 4.772091594677186 1.220698588723304 -1.8163008066827688 -0.07177928672583121
Ni 8.779018263293953 8.034537281908017 0.5066372417533416 0.24970476769313774 -0.520347056869891 -0.6355553613136344
Ni 8.923034928986569 7.792723165077224 11.219396552485552 -1.1853675175221778 1.0625855144962344 0.4883625335434944
Ni 5.7776838730959055 5.846044310245078 10.370622421154348 1.874552234125494 -1.9769875551742855 1.2742122443707282
Ni 0.45939699247542565 4.764010753564587 8.017058408478773 -0.744299398189273 0.6542429104208087 -0.2781491390767597
Ni 0.4788596442348122 6.93298560288924 2.8380149032276205 -0.07214464048504994 -0.8920936069888378 -0.7545406163013069
Ni 5.328485005524304 1.363259989909209 7.998619611980774 0.32081968136209266 0.11793727333913237 0.3849854174067241
Ni 3.9649053546519437 8.565174480738884 8.465292652085102 0.23023431767335184 0.2161955801920986 -0.3230372578387017
Ni 3.2364356268026655 8.560012896363297 0.4454992620127788 -2.218443966815702 1.2172383980888457 2.6212782394783884
Ni 1.7727832908779357 6.612600701674508 8.986429339055258 -0.4969165937610926 0.8140395429978883 -0.20386739764404888
Ni 6.973131259143808 6.391235484692354 5.296695662918228 0.6640614391731273 -0.0746316685729618 -1.0675587993411098
Ni 2.532843043320972 3.889427760176143 8.61818555058098 0.6428508665337832 -0.8950961412605876 0.240531842944618
Ni 3.9200870072595495 2.5154121190362018 2.23311858229814 -4.11758983112016 -0.08444839755306746 -0.09837169250237898
Ni 0.642477168044412 4.390336489433956 13.326097685471153 0.192708552813752 -0.7539996561961724 0.7781528564036082
P 4.9347661186454905 0.6301937254456784 0.8434320325293668 0.2680498458592287 0.32195379496653587 0.7208221410029393
P 7.276658745448835 5.655140902692619 0.8378088201158171 -0.03812508900649563 0.043799513683453604 0.04561419829468918
P 8.966762668387036 2.3121171482651204 1.5235323557573628 0.045788261978708236 0.10069494131891692 2.3075707436810453
P 7.7741922310074925 1.5143938129284542 8.641454048160472 -1.778219426430015 -3.802171009058665 -0.8697036693294119
P 1.7456497161822255 5.267749422525591 4.936624853128284 1.2345138973398415 2.2732305756382782 -0.5363264630172828
P 4.705390573998491 4.8546534402039985 2.2520669559785746 -2.083989155437521 -0.868066390836305 -1.9521625257108057
P 6.532610246542457 7.160819253478688 12.086224006800366 0.7847749897058163 -0.4031019245017768 0.4130184122845403
P 3.667395015888585 2.5487038681690883 6.789074237278603 -0.343604283356776 0.7583797875417391 -0.012656512421745945
Ni 4.1196118590240545 0.571092174076249 6.00928200161611 0.26270992170355395 -1.1083084704546462 -0.8527989231542733
Ni 6.832743685562261 3.2850899057528737 9.257578930510288 -1.2578769975458144 -1.1838994176170836 2.094319076608619
Ni 5.79458829697078 1.1365639562768584 10.386144781453243 2.1104087830816303 0.44807051879266696 -0.8548167249152503
Ni 2.6107651039855755 7.001797326104037 3.8559874627133217 0.596718848062411 -0.09236071042160868 -0.5974531551252743
Ni 6.779200474234448 9.292534797010168 12.09040686452113 1.3341276897794379 -0.48457864102103 0.7799593134847277
Ni 8.234306580291403 5.808954236726512 12.622070739151294 -0.5120819886476212 1.1630811953201516 0.6352440007208028
Ni 5.84071349359488 8.023320942818625 1.0639670711866311 -0.08568612661491048 -0.09184623267903537 -1.307093568479781
Ni 4.092139819779126 8.920167382111241 3.5143009190217813 -1.5993768329650777 1.2642520478342225 0.458215834756785
Ni 8.499596974327734 2.7246584247977146 7.0063111269395915 -0.12845205682752714 0.6160000648895262 -2.2962121241351166
Ni 7.625004579146256 2.2506482254097655 11.843268512295264 -0.4492735379618327 -0.7675853653004071 -0.14971996506736795
Ni 2.6173651626953434 7.497488060228059 6.161362585193863 2.0062716488503836 0.12111824217027528 1.0152638465921353
Ni 7.184361343235465 4.988544374799151 8.032800770734664 1.0309308637054309 0.6099618291152463 -0.13978059446646893
Ni 0.7781976915639527 1.835972741858486 13.656294297896016 1.1035599000260672 -0.21078006560348214 -0.9540237688347312
Ni 5.148158615134934 6.907967431626148 3.0960790791381307 -0.2188924102979714 0.05409009697618427 0.8116106218414215
Ni 1.293188426427876 1.438803396936247 2.609784496972144 0.4164678042857215 0.5878284875513167 -0.3101344337341046
Ni 4.785004957409189 6.092982404279321 6.328882793291817 0.007242026274393979 -0.8598103214751 1.1691873082178896
Ni 8.008748163616149 0.923639669080501 14.008162983443224 -1.121738627817623 -0.8383277261212916 -0.8020977972549799
Ni 3.7713412396709036 4.464620056194457 4.84173255603757 -0.14688429539078574 -0.5176563974116053 -0.3052346824396421
Ni 2.7558065651188817 2.0413737142691515 4.285851542910797 1.7815423201556608 -0.47660847833135983 1.8267932215736604
Ni 4.211514385930003 6.320430581354381 8.934180754628207 -0.31723967732031816 -0.41044242402724795 -0.23921055303003316
Ni 1.5281956451021557 3.5710642444636904 6.21681718104546 1.9902801585181338 -2.6987203809169524 0.6971271113788445
Ni 1.69943990342082 9.265890115552217 4.85743355040411 0.27541168554093864 -0.3525021000670381 -0.8382043131695499
Ni 1.5994706380918227 3.80989799290275 3.4815648158571957 -1.0253999065848727 -0.09778033877528322 -1.6409477144283289
Ni 8.43179124296756 6.649700176986107 7.312412824177287 1.1466351339489866 2.317184355511409 0.039368731605609615
P 1.1297476563273126 8.286411317285035 7.499444573358405 -1.149401383840214 0.5809379310790705 0.7637297389997427
P 7.034995057306584 4.273735452228066 5.8801812805717075 -0.5643455739380281 -1.0222929855247749 0.05262225418140615
P 1.250231634056185 5.002383814144987 1.628400895436303 -0.2183375662357659 0.7642904965992192 0.6055860686450538
P 1.4536018191715374 8.715358722661708 2.2948752000203307 1.5330117752762824 -0.16329667531053813 -0.07770285129911779
P 2.8681297864943667 5.7094644628422415 7.443054499099939 0.04576357938835989 -1.3028749024127433 -1.1795665945696847
P 2.667335692670291 4.925674584781752 12.905315737344383 1.308034849347128 -0.5576478502028783 -0.5380930679994024
P 8.262436745048701 8.088804431299437 4.240881826650558 0.21136113491793274 0.6937767068493729 2.1105640777125716
P 4.980853708097456 1.6115707457263964 3.947893750336484 0.5258217068312171 -1.1759595939447167 0.8650144913838587
