# total energy = -340888.4231937891 ev
CRYSTAL
PRIMVEC
9.10934289923079 0.00000000000000 0.00000000000000

0.00000000000000 9.10934289923079 0.00000000000000

0.00000000000000 0.00000000000000 13.33244411951426

PRIMCOORD
 96 1
Ni 6.388272737761957 2.2489782962318423 11.302872447575083 -0.05221036345496815 0.8619883029630252 0.05903355702438866
Ni 4.980815522048317 0.43244418323239275 5.897966920503329 -0.7386527414264569 0.3688144640738164 0.39349268354678685
Ni 2.8638316018362713 1.3197342453153897 4.901539645154772 -1.320435537004326 1.3772072945777314 0.37272536909244836
Ni 3.4192828835604323 4.412356098919307 4.676981594015062 0.4187393739287176 -0.6105763227707935 0.5539269497078654
Ni 3.9222825699000525 2.5967912199853176 2.403132970287757 -1.0419647529220895 0.39474275390380403 -0.30358429132041265
Ni 5.295151611304019 4.555472982400813 2.417225123476344 0.4977935970494073 0.20484107441122787 0.9309198358274161
Ni 5.356830970864408 4.618464087312952 11.69499321432099 0.6600397196082439 0.0058772847163834265 -1.1773050522290176
Ni 5.720594353721448 8.001200287878806 12.682100721132219 1.0008692684333602 2.3263801630780647 0.13261852950039094
Ni 1.9706423294074897 6.244472653576414 0.10894136239707021 0.5213862967676827 0.9787112442790822 0.7681934311980512
Ni 3.0803151315885455 1.4747023836762436 0.1870630855679309 -1.6798135382555908 0.37591945054971393 0.30153769320402907
Ni 8.167955915719967 9.238968667395293 6.697539477793709 -0.5686979373694528 -0.8334025209055324 0.8148363278675709
Ni -0.05367315824335683 2.644077818047344 1.1828144476866287 -0.374262117451949 -0.09291272627033675 -0.04765462576348567
Ni 6.997259626654395 0.8730539812794263 4.66562224364262 0.3921544243513375 -0.23164842441205913 -0.04351746366666054
Ni 0.7918186847667047 7.501142919237902 2.3686550190250015 0.5954559221895874 -0.8926834180540367 -0.02630444222248373
Ni 7.631770893849626 3.7932031835508107 3.5214314090908383 0.9804215421019695 -1.0294977308033302 1.7575847808987988
Ni 7.79427245864032 4.144924015331373 12.698099459752203 1.3161842179271397 -1.3768360272812417 -1.703163525835441
Ni 8.544135332705025 7.322062350695931 8.644956627001056 -0.6937422540670116 0.241495492409468 0.5880467742097099
Ni 7.1457328036555445 0.9584668223637616 0.34874754231659666 -1.2486058566565335 -0.14655519418614113 -0.09351719262355507
Ni 1.919821306369916 6.919766448131248 9.045916188988643 0.776362854382721 1.6345227847385915 -0.6361968515523753
Ni 0.06507623346085722 5.229436812918455 1.2348123978036887 0.6525693793731278 -1.2949422778292279 0.9266543756828429
Ni 6.576827022733231 2.1500052875737965 6.976280810369123 -0.39650627356213003 -1.9345826078455135 -0.7575673189427727
Ni 3.8971863307051224 4.549041786440152 0.40372606937179867 -0.12429149769193432 0.5471469506715545 -1.3425477955223328
Ni 6.103095654554521 5.67062049955688 4.895500150931092 -0.8290820391533077 -0.0262879871622515 -1.84333595642369
Ni 5.136330220972401 3.3720691602401693 9.222264865648743 0.46826936233804517 -0.5847652752449607 0.01418271925828525
P 0.3904455586196067 5.632762071210553 12.063528070895018 -0.5246670244014834 0.25314978881894473 0.5603130557398672
P 4.507075044526888 6.431332600801679 12.398292772135672 -2.011901850552967 -2.0927663874095184 0.9856002580894317
P 2.3446355041396325 8.490244461170647 1.0358069639292047 -0.13848038759780668 -0.06814888906209554 1.288130397113717
P 6.471577676940773 7.874106738242631 5.597479764985579 1.0806688543605065 0.8404442582436622 0.4720630250525225
P 4.905809194087862 1.1948633753030113 12.439756678330767 0.18179961921073207 -0.7660334474322549 0.6784539604493734
P 4.326245482182584 6.4361605524435355 8.256355710282348 -1.3361138669715311 0.4633009625891763 -2.2270921294090034
P 4.4434007389107135 1.0043323629613925 3.6357709679840666 2.610748029371026 -0.6357188834746923 -0.6067708329817744
P 0.5744123785968456 5.50460272847608 3.4657824344114085 0.08684646547159881 0.9686605449112995 -0.8078552685640474
Ni 0.6242095115126369 0.16710542660162508 4.948990211385767 0.011621386289012244 -0.5666030025136372 -1.6307088103091403
Ni 2.2446969051532153 6.53208193129022 4.681580901154634 -0.6054760254297509 -0.31706509941566685 -0.18254189669339532
Ni 6.192786242980396 6.112624027040146 9.031010571495118 1.2455611562929387 -0.7983858956210315 0.9213576460602778
Ni 8.571117205843093 2.7573342760911066 10.04863619828851 1.1842323754764703 1.1359843391033597 0.8014071989458585
Ni 2.6105098901223647 5.447869742012912 6.897873053836839 -0.7748443608556655 -0.2417286914661966 -0.2663506037799348
Ni 0.5957300624313194 0.17711021771153135 9.112592023031217 0.13980579127744955 -0.02482811478727337 0.8253048314990625
Ni 1.4397133982868688 1.2354272784373213 11.374494654714882 0.0900595730922578 0.941880705714294 -0.7568304407767482
Ni 4.336347743259599 7.004592647544384 1.4323448509602703 -0.32087367452847965 -0.027613390841894375 -0.9131560840860917
Ni 5.9505323826718755 8.066632696640035 7.749962793779347 -0.3395023453732605 2.1576396910441358 1.473171148969566
Ni 5.389342215033811 3.0279637389739307 4.867035276798127 -0.5531635891792795 -0.8609629470223044 -0.694120977562669
Ni 0.5778684632249967 7.293559217323541 6.537377192213636 1.225114972623445 0.1520648111504607 0.13577147330707584
Ni 5.118931376376278 4.743025239672834 6.939377041139903 -0.029969292668580647 -0.4161317611025414 0.48852888391802957
Ni 0.8491282926240782 7.668171827360675 11.31365882029041 0.3105113574575491 -0.25790504411574294 -0.4118562736556391
Ni 4.793026421865565 0.35881518789127426 10.393440306141411 0.07571024634912121 -0.20296828286854723 -0.6458593143428037
Ni 8.3153997369937 7.184994070780825 4.538470394213032 0.27558677766622214 0.934160968472533 0.6192486537338109
Ni 7.243020583910302 6.328888932567129 6.849369447587356 1.092252445433048 -1.4789239922929431 -0.18106016994154625
Ni 2.883024986948329 5.0014664019956525 2.4286509720506455 -2.372895018810152 0.4048441040038641 0.08167520568330451
Ni 2.6917652271890713 5.237434815827039 11.363788444215498 -0.21491979880346856 0.4649590670178896 0.22344197734186683
Ni 1.1964392915936546 3.348758352218454 3.5072190125783407 0.18185181260490615 0.052133230360129575 0.0246692206119059
Ni 1.3143870611384663 0.953966807059843 2.4403838054746276 1.1171463804612503 0.1999032707899783 -0.08736531408954631
Ni 1.1400433508111458 3.489443041193591 8.03578390751712 -0.4447432541916469 0.6132291870126083 0.4962591626827518
Ni 3.708458968222159 2.6395049280016614 7.113605062814674 0.4536644679406768 0.6467136919232992 -1.309324257582513
Ni 4.4329796508384804 7.090047391605233 6.140044059563072 -1.4236856406449288 -0.047867255994924016 -0.6574315925614355
Ni 0.5358844135605634 0.30651936226725446 0.011933238963832495 0.3834206440227655 -0.3334345419126258 1.2615531608458208
P 0.12046012626712074 5.4342877120166735 7.648876417610149 0.26282742111802476 1.1622188473198565 0.42309533690456813
P 8.65364785089067 1.821504170387745 7.988226761976295 -0.7294607905145436 0.48174040024128645 0.18965973868509914
P 1.8082865141003244 3.39698321258069 10.24383665970865 0.28088093618562593 -0.2237145142769631 0.888146963636264
P 4.299227171673632 6.247223675078001 3.4634222037125313 -0.093924969584935 0.09812255260605036 1.6923582076898207
P 6.947285772489826 4.394164741506503 10.196186598872076 0.06685459573070422 -0.4880588862601466 0.3176983621242916
P 6.976699840134265 8.150465977696639 9.996773066443714 -0.6876991331967253 -0.4112929449530014 -0.8053700402483486
P 2.480692647012764 8.438822221513522 5.741550396649919 0.04225119535972723 -0.13948620315450172 0.8594958755584745
P 7.195888844674523 4.094412709946296 1.4965538749941378 0.030922400610469324 -0.6195944671090039 -0.7846600613945067
Ni 5.630284329990582 2.905798343749536 0.39520427925678697 -0.24382028388790264 0.0063765929503051474 -0.2654242353109235
Ni 1.370036035817896 1.2399637311121217 7.090327048426753 1.0607937127031344 0.10032470246369174 -1.188956520425017
Ni 7.125792452440408 1.0514185554835682 9.373241290029481 -1.1387863273285292 -0.8147887624590872 -1.1807400460524955
Ni 2.847717174563737 1.869820124177186 9.125444394675547 -0.01358133822886048 -0.10462153006683272 1.8727516905816455
Ni 6.385093577152508 1.8605923600013368 2.5265117299625204 0.09368585699093543 0.26277959859922484 0.3919284243834605
Ni 4.052946981882658 6.901183388981463 10.35028297313458 0.0812085504595311 1.2452302553160814 -0.06807201307757309
Ni 8.453852637002319 7.083725507757218 13.412705533751552 -0.3385111851045848 1.383127002496276 0.19788084104331083
Ni 7.4216001386026464 3.940091334918596 7.974854246862626 1.3651403361108683 1.4355955047086373 1.3704846311419172
Ni 3.062169320889344 8.295869306200986 12.358628872062148 1.0274146230220564 0.07936995458889556 -0.674256120317942
Ni 0.48837190379906914 5.3701032832081514 9.826704370655115 -0.5177070481438827 -1.689908460597748 0.9125158793989316
Ni 8.897514064860713 2.36062240061408 5.588933379645222 -0.11080091940466726 1.0845352792944483 -0.013508318899079963
Ni 3.7786828912543613 3.008396870810334 11.63729008285809 -0.9896260914193732 -1.1195963846636396 -0.6686020073559582
Ni 1.4090149133188419 3.667612675463514 12.558868621875256 -1.196672658122352 -0.6662507335149623 -0.5633639267510492
Ni 3.1042362655725335 8.997762381499628 7.953042836652702 1.3007020631311403 -1.5705899906403724 -0.8389036532294198
Ni 5.734258367802173 8.03239978669646 3.6219320545231093 -0.5988690616361944 0.1582089763749856 -1.235824131510833
Ni 3.129368942138346 8.306609221268435 3.3616553596421137 0.19243935831276535 0.6067782891809421 -0.5465805366451232
Ni 3.19529325540648 4.867130924896692 9.125271317163858 -0.0350770462087912 -1.5456366631291447 0.12765321507531563
Ni 7.210354480914649 6.5048176685278145 11.252395757692346 0.7918082424035138 -1.5779937393036114 0.5375703627267128
Ni 8.202862917024856 0.018159474713282504 2.208145667487278 -0.7038765142875362 -0.771966010866606 0.4563379010077818
Ni 4.803620587449486 0.3150921647015008 1.307002116994971 0.47237798518977997 -0.20963978135145186 0.6976762990140952
Ni 6.3855034975749305 5.661811765146172 0.22440410324773408 -1.0624204496732799 2.2497234936552744 1.528366306084471
Ni 7.955781105074479 -0.24222835414890279 11.795599528128818 -0.47096619244391796 0.40559872278170145 -1.2201185478501182
Ni 0.07258142092826303 4.892992348880142 5.518351459444105 0.1789634353135176 -0.1567105374525882 0.09958936695956397
Ni 7.443808716155184 5.975446435012397 2.8528493782524573 -0.4669228756124797 1.1663925190815718 -2.1325444386384045
P 8.59028326292699 1.7926457726492553 3.430531099951684 0.33629258018671115 -0.6594684204858062 -0.13646772804315208
P 2.1599617991672844 3.3132228062658506 1.1516887345450109 -0.10863990719760644 -0.675913967636339 1.5250804362443475
P 4.997613150024888 1.2650872983352133 8.213158296167546 -0.16274440235149393 -0.35823360323417663 0.5178967955571855
P 8.313040417229095 1.9053010140734665 12.187027073893692 2.186836110102434 0.4281619527941981 0.28117044240158673
P 6.531426058614344 7.718473617863181 1.4951273519241102 0.7119528635377674 0.1718929016199814 -0.5921366280083673
P 1.9642657895031517 3.3748657284553576 5.997773434020299 -0.2610849845056213 -0.449518049872471 -1.313689476529744
P 7.081958295269445 3.932876735483974 5.7908665562700685 0.015392166185354137 0.5570624100130536 0.11020930856725535
P 2.5746372984891037 8.822216237933203 10.187133734076461 -0.43490081417992843 -0.18519501804552618 -0.36603175912235675
