# total energy = -381171.26083044446 ev
CRYSTAL
PRIMVEC
9.26353945472296 0.00000000000000 0.00000000000000

0.00000000000000 9.26353945472296 0.00000000000000

0.00000000000000 0.00000000000000 13.55812636489977

PRIMCOORD
 96 1
Ni 6.905913240678204 7.328099061011982 8.97257837075519 1.9415947774972884 1.835150335289104 0.009821614076112118
Ni 6.342004526975551 5.263811881567571 10.530881750036105 -0.5332416534443719 0.43399012944020093 0.5242605329916843
Ni 7.9153982123743765 2.58927976300505 3.2359591299883244 -1.6168233105762992 -0.30387662574985086 0.36121736845284885
Ni 7.082791267084198 0.7602383207018845 10.593059554636486 -1.8270469894556791 0.2952081514415755 0.5777428211805405
Ni 8.411757194823625 4.4292503294076075 9.979363946992335 -0.0676845478311673 0.04326806666001581 0.1478993669188614
Ni 0.09470116601804075 5.474177603870583 0.3040238137545228 0.26245846781438026 0.40922346401848236 0.1875684033737092
Ni 5.111083903074033 6.120893098658559 8.534244348073507 -1.1011600323353228 -0.7300624286542846 -1.4231457089810589
Ni 5.5623109202645615 1.9422678349477227 2.8640048535000737 0.05886926353238248 -0.3908629592334236 -0.3573763974402039
Ni 1.8891506984958548 3.411455962629934 6.354721514230718 -0.311508945484128 -0.4104395958137706 1.4339160601236853
Ni 7.846236625218875 4.780079103684751 2.1057665310123435 -0.06215179093839619 1.228382330520807 -0.6943315509115784
Ni 3.598885160716897 0.12968584992528254 2.229417184844429 0.6527951222306887 1.8717713289462474 -0.8097637984406699
Ni 2.354726938630914 6.033686136231304 8.155443389417211 1.2796478135640028 -0.9130360135684598 0.6374914019940827
Ni 8.955619608686401 2.4656207719872643 5.221126417134966 1.2603560552139261 2.4449964647620925 1.3076419847840832
Ni 3.9290469779964616 1.308373079059186 4.343820113888525 -0.6405201615180776 0.19291501239760322 1.3419952654529725
Ni 5.416910401647799 8.51341527913175 13.117161978896908 0.5257371175372108 0.6549219387657044 1.4733665528098239
Ni 1.266279554811316 4.646628551238709 9.591547711531893 0.9540093706570281 1.6280155797476932 1.1393825661516312
Ni 1.5639726655572572 1.2398784667597247 4.1769059507485995 -0.30173078305144163 0.4320669442755591 -0.7124971660770116
Ni 3.7660642610913055 0.2574402518299487 7.884646966095057 -0.8150361025832029 -0.2156332799307254 -0.8489594948035252
Ni 8.544707516127637 9.311432167304512 8.412858629690056 0.11271844814235425 -1.7521831502672531 0.5369417280037785
Ni 4.210491840166091 7.365208800918884 11.624981745760644 -0.1843126154405729 -0.5067410360506821 -0.6338913433476503
Ni 7.619854242831231 3.0457221530282257 11.591425499670088 -0.6107511577857612 -0.7807782098415972 0.792804287768196
Ni 8.640196083017392 2.8476120937049525 1.05988048019381 0.8663761476180756 0.15834087396715957 -0.4730009634857596
Ni 1.261796001612379 6.845440853730559 3.8663031711224134 -0.854386065135735 -2.0013222752649087 0.5001973213948934
Ni 0.26659077631323347 4.660236691009862 4.206679893593027 -0.45374262947677985 -0.6593995149210837 -0.8652726301412519
P 5.4514819316858825 8.02070613131139 7.339094882596977 -0.115645134870846 0.004397100626431137 0.24764402850936704
Ni 6.2726761961060395 8.330339944688385 5.315734947756334 -0.23926943129242664 0.9012518764493381 -0.5851200874812181
P 5.53003674806395 4.346814089908973 2.63789667188658 0.7034612811269885 -0.6586757493811818 0.8682705364273111
Ni 8.282743877878183 7.349497837643271 6.5616726958123905 0.21025118968320564 0.19709125526247992 0.7406692576358535
P 2.9956527211268744 7.640808369558494 9.636289681770624 0.02885446233784708 0.30213007537238934 0.20835731509460242
P 6.716779551292472 1.487048232160621 12.97587261918446 -0.4313670899950571 -0.36533499016564824 -0.9087767240714736
P 7.916667317308786 1.9185439098599597 7.544147964900836 2.2422991761667443 0.24938543668050595 -0.32069986795477673
Ni 8.778167242821041 2.0905493144009926 9.666211841249726 1.3578702848120163 -0.21181107797115778 0.21018331255974768
Ni 1.018961572775744 1.2804342434228357 7.470690874401642 0.3139838893871818 0.6133109480931372 -1.1917091434694895
Ni 8.822789713398063 9.00449404397068 3.1732523772729446 -0.5261752335158938 -0.17167127252747855 0.49387266472844626
Ni 2.408381360383481 3.8022754376504877 0.10404529848037058 -0.37641490212889367 2.1729413543982123 -0.03164359504721002
Ni 4.3250725623099955 0.8386514049230437 11.901743888628491 0.14716248875283686 -0.4841053009290372 -1.2060687546252713
Ni 0.5390157299088852 8.004105868227724 13.361710162571981 1.0420110327789924 -0.601315723404474 1.4495499100062004
Ni 1.7043708727537188 0.4207101384647886 9.645278094309733 -0.21391501168803803 -0.6227427829299985 0.6276731303520804
Ni 2.3692336417497883 1.6876038659560415 13.455925919111458 -1.1246509163684115 -0.6405127053189098 -1.0915636468961394
Ni 4.840134631347371 3.5804414532394517 4.7546719934394535 0.5058007836245999 0.2779645338697794 -0.6884213560747305
Ni 4.656679491777648 2.4274364614789627 7.003463871497884 -1.2453631813495198 0.2734643320065806 0.27441461173499193
Ni 6.913963256649023 4.943284145541921 4.17630937879403 -0.5089159322148139 -2.3038120479695614 1.4932920880891571
Ni 8.64447583834365 8.46688451938328 11.025753008014798 0.9475008801145489 -0.440302444811474 -0.65033046274028
Ni 4.410510188660812 7.284560424576024 1.4825943222886193 -0.3856053103789101 0.43737832918614356 -0.11448376757289316
Ni 1.7995259522154532 5.217058796867087 11.854425728008305 -0.8082787292547112 0.6816436710312648 -0.15054837450593428
Ni 3.3199321907177515 2.830372646384247 2.058503025276195 -0.8047115807287432 -0.8093915027029157 1.1513096566065204
Ni 7.617158552788069 7.9267182578477255 13.193128562291955 -0.1737186419748105 -0.23043794904372572 -0.9965395307097548
Ni 4.218106469772549 4.737846626341873 1.0657906185014994 0.2738091169405091 0.47423355034128 0.5046422445401244
Ni 1.740415305598891 8.074823730047317 11.458582635426218 0.7714589893232005 -0.8263057619597511 -0.47792539737057044
Ni 3.4870649733938244 7.279567376695391 6.3493792309046295 0.14599829324140662 0.47573018949146456 0.8941399479949051
Ni 9.22698573969809 3.7609507871949974 7.865001777522774 0.49066701330695495 -0.9869117778120033 -1.7012033167852765
Ni 3.8512147177124376 4.91981959956484 6.5411993467938565 -0.3757047634357465 -0.6778456374414132 -0.3557028663925229
Ni 9.013581576384228 0.9095619483677173 12.926453487767748 -0.43432180174800683 0.4604154135112651 -1.155051897257772
Ni 4.626350662907153 1.8575435011512833 0.38074352292451324 -0.6210229720254143 -1.4988366720564705 0.00904796913488119
Ni 7.542123881483548 5.285219921738529 8.072074311474086 -1.3096682711854928 0.32831958928356364 -1.2686301222972605
Ni 0.8519297626820439 0.8560955764703949 1.448549887657601 0.1970040948653123 1.0169571751341582 0.6838707605895706
P 6.708896279035664 7.378455662643017 11.113406473054015 -0.3410046409503998 0.37901788696937955 1.3532204447448308
Ni 7.915842862278404 6.8775575457568285 4.231518222502758 1.201847517455072 1.3199508840584238 -0.7901437102168972
P 8.372952227157619 5.223635910030817 5.90913321363563 -0.6603467093257014 -0.15587570025611863 1.1982171197913365
Ni 0.10002770132669511 6.718067183306216 8.765410422345305 -1.0325737986254926 -0.5336100925273842 1.0212079799907121
P 3.830306908683511 5.334900284973856 12.526678948950888 0.7906083085581416 -0.20036015582173883 -0.17678159717085037
P 0.6996482868004662 2.7779502754074206 2.8096510345026315 1.6091647655897772 0.5012869549146464 0.25581730834877875
P 2.592179250920892 0.4336577878576689 6.076670812995161 0.6163170819093128 0.36256539784031105 -0.09155286980833265
Ni 2.4090668623188556 6.46321794352119 0.6378919732549444 -0.08753912066324923 0.20359434648832034 -1.9722112168315649
Ni 6.763097249628596 3.260339840038493 6.496755662532411 0.7951023397737532 2.799174924090289 -0.06968100943590581
Ni 3.3157080166294968 8.235027385052307 4.271555240944504 0.6043036023882045 -0.22107759087474826 -0.8413351454890478
Ni 1.3334680080176984 5.91178721775029 6.049161805599369 -0.39476743649415236 -0.03126615710313325 0.4474639955569197
Ni 6.77703887682777 7.892822966205349 1.771437047236494 0.4754334841866522 -1.0597544728053425 0.8882603492856768
Ni 5.815483459369819 6.153120953160835 6.039792661579939 0.9486020835985275 -0.5588665531013279 0.20368150688548792
Ni 2.496273824746112 3.6672315563816826 4.264667799201922 0.17905496658605938 0.19446153094911672 -1.1646894203475362
Ni 3.7213862092762797 5.337281014668332 10.174872804377049 -0.6371638434513349 -0.8735202148620247 1.254237343910698
Ni 1.0614904833879737 8.495369903859997 5.241978644925889 -1.4758391827200326 0.23274422857939914 1.9155340758544945
Ni 0.35318634512245245 3.3178293672132915 12.706147987401804 0.8268199825920084 0.4177888370899902 -1.6708115918672968
Ni 6.273491387596756 3.1590059796187195 0.8747430818205189 1.552797442543642 1.9228396083769723 0.5323715921345928
Ni 1.9893266164572256 2.6587655740489042 9.256444722193832 0.9128822615994149 -0.2664933000053862 -0.9557929449200121
Ni 5.3853958396999 6.630563787609609 3.5087620360023983 -0.8006890898329113 -0.5779662500452563 1.0222341072623815
Ni 6.254399232342605 0.7983577864325153 7.997640843893967 -1.3374770658676451 -0.7551713079067703 -0.18487542992257838
Ni 1.9328282880268206 5.0820982874552865 2.304867789080009 -0.4557362628680409 -1.1908069433701942 0.7183947625083692
Ni 1.603824413205659 8.13106267936704 7.90289613923949 0.01678518987813883 1.2227675554371908 -1.52154182696347
Ni 7.408182361435141 0.8552229510337424 1.4160107782225066 -0.2550511196067156 -0.09534601830217773 -0.2937022563200103
Ni 8.21865871046032 0.5461477290986818 5.567007534875844 -0.2298242267191268 -2.7282749546456175 0.9329003565925545
Ni 4.281570980032708 1.816552338123813 9.697409590141008 0.8694905248773412 0.4978373058031491 -1.5282218100868066
Ni 6.532361003597358 2.9422206243263207 9.464060099569643 -0.9947538995642417 0.5041334232245059 -1.1148359871605187
Ni 8.68002930358646 6.097808357807835 11.513384809743552 -0.027283261195985273 0.3131536801764026 0.4801820546152311
Ni 2.909307267888671 8.818602593468476 13.529261657241012 0.38680087334890806 -1.5138370021200447 0.10941792301421158
Ni 3.2571439188533007 2.8018131535901922 11.380271450141398 -1.1167910540043604 1.858156052155658 1.0532115294805022
Ni 5.4265908006000485 3.65325287502384 12.20089044874822 -0.9112367555761921 0.363117156578723 0.0416878666570895
Ni 6.101485983055723 1.54737240247359 5.276958697063297 0.04215297921896611 -0.9311070121375578 -1.1766496780332059
P 3.0756711767723637 5.89386226849421 4.409943260033177 1.0101378382194797 -0.7245011325164232 0.5310736992587757
Ni 5.021653691126644 8.80664336375809 9.653372575270954 0.06807175596725695 -1.198372157311962 1.4882136451249852
P 5.5037653495677 8.831339960510912 3.2506964952449118 -0.5778562068299532 1.0084547940901019 0.23468592568680227
Ni 5.849119371901513 6.058308624666787 0.11427317262695365 0.9775856153150713 0.10856277410276788 -1.3012772189083202
P 1.2522452922154699 1.8635925925539811 11.260240987611263 -0.25671539468301596 -0.2772158286292129 0.5093648468267744
P 4.23476231409422 3.9941881889363873 8.469937782057597 -0.035153150862365264 -0.5864195230189321 0.5945496083252341
P 9.18164997656669 6.8643292111120315 2.1386863719277605 -1.3331606978804782 -0.5541346948432974 -0.8789347010093767
Ni 1.6394705138451406 8.212970897104643 2.3039729311481554 0.8591541759483396 0.523852241809672 -2.1694163719640898
