# total energy = -340863.4680599123 ev
CRYSTAL
PRIMVEC
9.32138378710729 0.00000000000000 0.00000000000000

0.00000000000000 9.32138378710729 0.00000000000000

0.00000000000000 0.00000000000000 13.64278739234715

PRIMCOORD
 96 1
Ni 6.180776363395779 4.493149202340932 3.540235352929758 -0.04627548602777192 -1.8473440491418185 0.5591812561282693
Ni 0.29845858182959756 6.0935002496975175 8.310271591407613 -0.77449340527415 0.03238150165449907 -0.3836337884748361
Ni 3.2571803573317504 1.1733011837474698 5.193904713898867 2.4448164875408023 -2.6575338793763135 1.320641996588177
Ni 0.7365971632487581 6.757648823979385 3.5884623268752955 -1.03900669873503 1.1522496519222867 -0.6342620964235076
Ni 7.5235309777659864 1.2906387592290156 8.363574058668188 -0.5742656612652175 -0.13066731931129108 -0.38635195873694755
Ni 7.716800543227885 1.5881679991237936 10.541562852193623 0.08801323208619037 0.21275775815514325 1.1101051573437526
Ni 3.839188900223136 3.889132873009133 4.42263666472672 -0.025893579937310243 1.7037525655696915 1.0179254525846986
Ni 0.25552988226471746 2.8053169708491144 1.4915388092229438 -0.33724080303259335 -0.14006650113800392 -0.2832854318620605
Ni 3.9969160304045186 0.5758899867628438 2.4431635112962486 0.9919159158948142 0.0807498656555577 0.20642178863478647
Ni 8.601977763030758 4.162827335297753 9.691835785974629 -0.7908867590305089 0.6951902993674478 -0.8413706267126735
Ni 5.219518011476574 1.377551338970828 8.0992858044681 -0.8096110749128895 0.080072637082875 -0.6280071166527313
Ni 9.181497496527992 0.015973122763360114 5.223782544427227 3.7600038887723115 1.8929564476642948 -1.1178241232545651
Ni 7.037458113843147 5.271307618195312 6.647134501218883 -0.4067847726700027 -0.564439419203415 0.8754734819336535
Ni 8.372289552239467 8.383009143262964 9.27634443790389 0.2775356738624769 0.48930098619736373 0.48326017931992254
Ni 7.51259699492202 7.028379086315421 11.111435885908058 0.0710056417846003 -0.6606146182751074 0.05476475444570568
Ni 1.1598597487423545 4.463199597159632 3.537096843105748 0.3658091015885893 -2.0164534744793916 -1.3315239336080036
Ni 7.696601105186217 5.4297524949060945 1.7572047639041397 0.412929709225476 -1.0847440528711447 0.29351559423050094
Ni 0.7612345119741533 7.12380208919154 12.343966072544573 -0.9683779806738743 -0.5684210295589823 -0.7095221426090876
Ni -0.07529161093399198 7.07281412145369 5.887722319718724 0.2592250484787471 -1.4439880996477068 1.087629601949056
Ni 5.557912196629622 2.755400962213614 6.1287900754852185 0.5119135813905571 0.017362916758479778 0.2957689090410519
Ni 3.2590912409489827 3.326587378863018 2.069378829413714 0.043237213422080374 -0.2900618313539456 -1.1931235073185131
Ni 5.807827809613077 7.497011641712206 6.0392665762254225 0.1337932665347825 -1.4331789248473445 -0.22032862852386567
Ni 6.928863996083376 2.318992429571811 2.5599464644596224 1.274353912154915 0.1252767444233391 -0.8780942073859522
Ni 2.663268407712534 5.070692802536445 11.714488384186094 -1.0278247139762815 -0.5564967673175706 0.13984821447961077
P 7.488296148140927 6.789854203967368 8.099886101565415 -0.5294677882242366 0.6783398034690125 -0.9329201540868965
P 0.42005416529334644 5.128709093432308 11.234576022617542 0.5427467647213298 0.5866360099051122 0.2508589359022389
P 0.14956905534332615 0.15419339369702767 0.5093725941161714 0.13024951504758214 0.17665072801994094 0.23177723668043956
P 6.416402295475738 5.149076316376953 10.548002996052869 -0.5812405499211538 -0.9502912983754924 -0.9998372276244202
P 5.348348852812008 0.3460507695588738 5.810558042839844 1.4342659872639363 1.240727225239405 0.09028274484665741
P 6.615693474677791 0.12106333246597346 2.694696384316727 -0.5636120382061132 0.021772872900717343 -0.2560499931848752
P 8.368281357335029 4.245759684285623 3.544314390348786 -0.13476900018449048 -1.4596474034515186 -0.31896540176217325
P 4.137771456453266 4.176772125011798 6.713301409846004 -0.9098750993419749 1.3214578076212533 0.7457590134539349
Ni 1.9085812355078624 3.0199325045230196 5.890900911491777 0.7990721230547786 -0.48220628413411143 -0.8406756575281781
Ni 6.262096113038376 7.133701398467152 2.703563816439033 0.43638768313810006 1.7930230671017506 1.26071575254619
Ni 4.371822074721946 0.5283779629316563 12.684681282188796 -0.06787249547225731 0.9249358503298393 0.5467430303649164
Ni 4.866069791973138 7.158328493670699 10.671292274898331 -0.12958797020418328 -0.6560845916152378 -0.9658120197189107
Ni 2.7274461331010342 0.290561505729505 8.909286066354014 0.8151554017698863 0.9108660025003346 0.5535248291734403
Ni 4.185916402224016 4.423387968236715 9.783324232875948 2.041660826982955 0.020674754740532132 1.0789068773640775
Ni 5.028802505093319 2.133953645739259 3.883924083910063 1.586874586733009 -1.2855906614109989 -0.6861549286380569
Ni 0.2936151909636768 2.2293580058483804 12.202940997316151 -1.052359208782536 -0.5249477888666959 0.9639371712937013
Ni 0.12059819542938868 2.0870111584398416 3.903051562849381 0.9668070366423285 0.08557891161308487 -0.9851377166307161
Ni 0.7975496899467108 3.5384717471718052 7.936773075998488 -0.7012383053337407 1.2158024369732674 -1.1612014617989357
Ni 2.160640766696017 8.520275836664714 13.66939037071401 0.553914094192059 1.8794558420746987 -4.545861827129661
Ni 7.011544667716781 1.7388481633801638 12.875175871783133 0.2865417340158291 -0.4044247570782583 0.9208377690010657
Ni 3.197672645076095 2.8948395379705607 8.255141200842944 -0.012902309883964878 -0.38113544753301454 -0.13370019260034394
Ni 5.125372038139776 7.746526435205216 12.920837600989831 0.32870294076491136 -0.4924307900755971 -0.6640339283693015
Ni 4.450186945795457 8.328432442878118 4.2134788010913 0.8968797155235716 -0.28173711353833414 0.05981414394415506
Ni 8.809909864736099 3.473035635010981 5.657226877116445 1.843644488803044 2.950585389486202 -3.3536348634834883
Ni 4.286699200611882 5.665266570384068 2.4817596318109367 -1.3362149113257697 0.5711723670518745 0.2420912170119379
Ni 2.2991938110205874 7.84548224242734 5.848621912356757 0.08415169224825507 1.0524525398272908 -1.1468248813622894
Ni 4.030668760053286 8.73324148545935 7.273965848802082 -0.0766777524687131 -0.3544468824982347 -0.969955095353007
Ni 1.025091186118253 7.245725785354442 1.1816661932991968 -1.9129174641672537 -2.240078257256026 2.0873796691763085
Ni 7.57534854863522 8.882625977409402 6.4874722518231716 -1.6519504932967357 0.03148752908531997 2.4371029209466286
Ni 2.6035276608694113 5.928418547935666 7.390161554805038 0.2909097811765377 0.37012264136227874 -0.12459977296097254
Ni 4.52632400621278 1.4788654562181207 10.386403763166129 -0.03249951528960209 0.09092963440203695 -0.004081626268541357
Ni 2.038213715824184 3.1899172540051826 -0.25810910907880574 1.017096786035816 0.6680700461118881 0.07391921588696947
P 1.021082991213815 4.953495047807379 6.23360810078967 -0.738361178327967 1.8849657161493343 0.16630152357513295
P 4.670609701389047 2.0659448317327955 0.6571295725073517 -0.4277780870922181 -0.2397679681954 -0.1755749784572589
P 0.7125396045769817 0.4750475315205848 9.205798343309086 -1.988263385198421 0.2363717980296574 1.6578881989374092
P 7.612792546149469 3.160368468314326 7.109147010054895 -3.5837694223541825 -0.9667558716894189 3.9231735515866815
P 7.719242745704542 3.5473550256460595 0.4440157137150863 0.1942555855858977 -0.10681545239435797 0.28442803010693596
P 2.280541722639703 5.171615421676792 1.5771063133258947 -1.7574282007162765 0.8535136898331107 -0.8930690835282297
P 1.9022147305782553 0.8910263879483027 6.679753750634208 0.15808093543755358 -0.7283968680264036 1.412902691096812
P 2.9464986453203172 2.875506988594272 11.30026567640953 0.5584289513432771 -0.22573257314825643 -0.4793875837383937
Ni 7.889861349264617 6.687020701209789 -0.10027012229543926 0.20192441498506514 1.2475406486168126 -0.7006322963186257
Ni 0.343546113812775 5.172715344929638 0.07799015145686357 0.5450815835020935 -1.5649829288662402 0.06579530122825442
Ni 2.406324471571065 1.1181092720517092 1.0221540181778148 -1.0912561429580496 1.8602640996375963 -0.3522997542482449
Ni 4.0446787994518205 4.830452785624633 -0.001801823430297333 -2.6452257514329216 1.7523014210126724 -1.3003426229091928
Ni 2.4893034274764285 5.737013259173508 4.826013010664205 1.4215896773478485 1.119003231164331 0.7517828510505117
Ni 7.657684329079174 6.015927696221396 4.572530104215801 -0.3892786454654393 0.8321714767119086 -1.0244041183305068
Ni 4.914820627671302 6.154909524186906 7.909678610582837 0.6612391392329837 -0.5126252627456009 0.6082353333424428
Ni 5.127926097218419 2.9241366463069527 12.227920440815947 -0.8466313608909807 0.9713596890100175 0.09947289598635772
Ni 7.948679279141369 3.9308926710832766 11.931080983300072 0.23623861488590284 -0.3597371843628966 0.3382373626179078
Ni 6.2048721397399005 5.24829312233704 12.641747921932167 -0.919872576874319 0.4523874010004661 0.8110791748179838
Ni 6.269954039327773 3.28470640280339 9.202577805310286 0.3180135793718652 0.2760138379013118 -0.15139915254200376
Ni 2.0907024263053238 4.881813608702431 9.411026311661455 -1.9788773159978306 -0.013305201749338375 0.8464801800250971
Ni 5.399597819287822 4.045005047874275 1.3555817702027588 4.172845923379987 -2.683704881344726 0.23803761576785454
Ni 0.8690335157214867 2.484950341382539 9.864458486986921 1.1045888555112138 -0.9763987940958216 1.4461072028732387
Ni 5.997462035510485 8.500561110564979 8.702229242559198 0.23764218010164884 -0.5397115774394319 0.3634706832633998
Ni 8.463536575308172 9.115287709536776 12.164045660391155 1.0346432795600118 -0.20872549706729857 0.13215393115914661
Ni 2.1215468843024987 0.8696123736367556 11.510406013865712 0.13752856520749862 -0.46279445526640295 -0.339639385171757
Ni 7.338781156821893 1.7461654494266379 4.9912410581469855 -0.5427359660880524 -1.357490018654462 0.15807296501775359
Ni 3.7100131676982504 7.755316499844483 1.253466946112928 1.3187370662559805 -0.6837334636807579 1.9406462975410903
Ni 0.9962228614228011 9.246010791722446 2.8473042106806266 -0.9757552469745517 0.7654852882382688 -0.809030005598439
Ni 1.5152188518630232 7.558905628143526 10.05893610375025 0.2022018370161679 0.14710541026265633 -0.022860963758573532
Ni 0.8277453796523765 8.481992914635583 7.530477272749213 -0.13264269787010705 0.06398241638923176 0.47501722258483997
Ni 9.239019754098427 1.6007332240800314 6.955488663770692 0.6380562733586173 -1.0659279486059061 -0.035912911846525244
Ni 7.027307127213071 8.784359952566183 0.5290369847450139 0.05775443320164893 0.6441168777304004 0.9192035758317523
P 6.564006403177539 9.02869205683392 11.101981206625338 -1.081601393477105 0.22836152613067123 -0.5110432629704618
P 2.5127373855921427 8.022523279218014 3.5608085784497234 -0.16231142857913336 -0.8471247555876313 -0.307364070077819
P 2.6250041284503998 2.1918953655671336 3.641764794135871 -2.935815173155563 0.3589666247454592 -1.2896540328470951
P 5.160476368395854 6.100276895501067 4.389061973502778 -0.12745755412474177 1.0102615082815376 1.9074351008964439
P 8.172774659833443 8.121376551221651 4.023476380545694 -0.5330547342445464 -1.3774127257203181 -1.4627427545473906
P 5.7021233207379 6.473635590157712 0.8473482491501276 -0.17723385421692056 -0.7714366207256972 -0.9745306305388314
P 3.419325823291513 7.459036325338531 8.983939162518345 0.5522469909022811 -0.5827832118179255 -0.15660332245076256
P 2.96023836459739 7.120082857175561 12.088232051981235 1.0884847508604996 1.405429008427586 0.14915560792346572
