# total energy = -340893.0989162187 ev
CRYSTAL
PRIMVEC
9.05144367360914 0.00000000000000 0.00000000000000

0.00000000000000 9.05144367360914 0.00000000000000

0.00000000000000 0.00000000000000 13.24770275027465

PRIMCOORD
 96 1
Ni 6.359580658007005 1.909456389787883 11.532933393095195 -0.09974029071513145 -0.3829881844710372 0.11090762018586059
Ni 4.775994349871899 0.2223749674750646 5.954087740198598 -0.2407722410901982 -0.3952479756749967 -0.17812576990357065
Ni 2.9936745404655207 1.5639175206390914 4.9121153934234645 -0.7773200760896678 0.9512765451068972 0.14072856020203506
Ni 3.291783843816286 4.408560038038866 4.952017778512019 0.013298259770802902 -0.8258313934264938 0.23428766180711907
Ni 5.200543272427366 4.68595963785034 2.70802907530252 -0.43247292146472616 -0.3662567306489692 -0.07703050782244153
Ni 7.233932031472229 5.949260605190947 2.2969396497588224 1.4336530362702857 0.6776522904836846 1.0682841075429086
Ni 5.158770859038454 4.55022418580698 11.451778147494984 -0.8680247389650921 0.19146645287653477 0.10257493195044914
Ni 5.747983648196535 7.847900519572601 12.33465779136 -1.0016020328343267 0.8647604663915237 -0.5473387549673864
Ni 2.1681557065957837 6.490265404379506 0.42624516313381516 -0.9266937135612106 1.288955978338806 0.02280697059218653
Ni 2.7217691670737807 1.5657006550784447 0.3481520209896101 -0.17727319209528825 -0.2300844223590489 1.4590192829492163
Ni 0.6227854995591225 -0.11304257715552955 4.554401427145871 -0.7039482480657361 0.12459154543085639 0.8197504773397366
Ni 8.729438739458365 2.4641922293038485 1.2305338354426227 -0.05102405645635083 0.0015976835044230549 0.418618274969821
Ni 6.953328220536233 0.6671402898797466 4.722646950081745 -0.07005407650460839 -0.5735465237110058 0.11901842221845309
Ni 0.8449296552158952 7.383353266623723 2.3779229179257966 0.7954970041090106 -1.1278519398042124 0.4534621221218835
Ni 7.716247268707658 3.862839436602068 3.8342957084066334 -0.17274625075921216 -0.07271928204159733 -0.24236555371924712
Ni 7.348432796232733 3.9761363593299115 12.491285786108513 1.7389329701255667 -0.6603281973829402 0.9548529496042459
Ni 7.600723690791587 8.648672705943902 7.203464871457696 0.19236299654887515 0.35554808598221344 -0.9725598799657057
Ni 7.034356745922479 0.5645702332639722 0.4683470490790329 -0.2480556621254889 1.3564736615748059 -0.8433094956065992
Ni 2.054596291996157 6.510459175619086 9.316857532444468 -1.1540453103701287 -0.8278299119137613 -0.657216648337152
Ni 9.55741956605655 4.831217208828724 1.3145773967768322 -0.9182697511635733 0.26750374354777157 0.24134816819832627
Ni 6.131620044529275 1.8084965850338393 7.147559533634236 1.6567674550694047 0.5424767988893948 -1.2855178991915344
Ni 3.4390055781111144 4.51705969552378 0.4631605717503556 0.926344814862224 -0.8758874295426206 1.0778938627185306
Ni 6.072152058404651 5.554481881473212 4.848235733564115 -0.8735469543349019 -0.5091707285380973 -0.7655768195108106
Ni 5.4381255707225185 2.5757874805870293 9.188408492704049 -0.8122737093467173 1.3407446808753232 1.3302723205890896
P 0.21240118149169715 5.475761474269884 12.42932593749072 0.6630499671894774 -0.6341361123686047 0.1509615507839529
P 4.142456640157915 6.279556842888617 12.591358549364807 -0.5420186283060536 0.43326327857650543 -0.5345308045694407
P 2.51042700451307 8.62677726325966 1.4831732105898785 0.22192399803544363 -0.7023112266829453 0.016208491439062406
P 6.383621292884783 7.527723796104357 5.7245974327094435 -0.6769699197046793 1.7097383508394812 0.38941234282982606
P 4.432446798371116 0.986553071486663 12.510494760256714 2.264441259481423 1.1125142810058775 -0.1429217111986119
P 4.030562691227533 6.1897846227388404 8.135295628832692 -0.4662785571602615 -0.9985365065351255 1.2926521962434705
P 4.882647512810478 1.0425272002834183 3.7352692920599293 -0.06023503353165755 -0.4801167485949344 0.5453343229428479
P 0.3077970637083273 5.593919022347639 3.757127623824367 0.5964188003234889 -1.191746167355012 -0.9454990191931715
Ni 1.4638990660459248 1.2084673204695293 2.7583967397757445 0.6928768207429228 0.0884840010750218 -1.346980634482706
Ni 1.8992735154514744 6.745199320543899 4.904750233558989 -0.8701261015788112 -0.8226589092357831 0.4224859854553433
Ni 6.032633454535532 5.641502462691195 9.136980904155452 -1.2305099183867712 0.35840046782934404 0.42431532535459826
Ni 8.683031986815907 2.235163545451278 10.310607406939912 -0.17165147503313663 1.3610584527320106 -0.02059685031474517
Ni 2.3458627037928554 5.239962310414084 7.148062793912549 -0.689704079441896 -0.4393555075171724 -0.36816937429064983
Ni 0.462910751899969 0.3298291831947732 9.128594741424179 -0.8969157109678295 -1.5386903137182983 1.0095912216873903
Ni 1.5439771898274404 1.2021313097713198 11.414141338803235 -0.5290407279891469 0.4277927423802374 -0.1460692556886581
Ni 4.231269407259106 6.85922035878011 1.7470671510259257 -0.5043249704100217 0.5398928402123024 0.1043983583124331
Ni 5.456264664207107 7.8125636827643 8.038150102518971 -0.1259981959703959 0.9964428572308903 0.2083089783551703
Ni 5.330594417730046 2.9850123086966827 4.784527145993617 0.16027254377223366 -0.24683721633735553 0.2368569651961921
Ni 0.6347406466022588 7.436421881943155 7.205584719608439 0.8467684006894772 0.6055410743397314 -1.1053902683665864
Ni 5.047492408290183 4.537606473073688 6.910001674237489 0.00576364195665459 -0.020908468017893023 0.5829148522997831
Ni 8.180160920586715 7.271586037907304 9.139855642723669 0.047134491593957537 -0.4669192760680539 0.5721306172000856
Ni 4.58698209930045 0.38946371588632256 10.393141187439175 -0.11868777835191172 0.10305495691066123 -0.2778272369609667
Ni 8.068312228875605 7.088258094076535 4.402529966142941 -0.0015678587077521387 0.8865119991360023 0.3994062208177444
Ni 7.190783798617422 5.95475483161068 6.913009469030368 1.0599820154351163 0.5342621242890864 1.1313275570576389
Ni 2.3687266509695375 5.433165379490205 2.7376906568139954 0.0035800040417744796 -1.0270433557255667 -0.09620348120646657
Ni 2.4925775572318276 5.289555171293356 11.574915799981534 -0.706135485525042 0.10564328646312773 -1.4238386212830254
Ni 1.0572720023225375 3.367761663531674 3.8843194180133844 0.6047453179113133 0.23887348140558862 -0.15119757805415895
Ni 3.768333311316344 2.723633764507825 2.7412813645911096 0.6509135889372596 0.009736253451157424 0.011057800476058376
Ni 0.839915155320455 3.4432144995034966 8.275257200011758 0.03601472753171217 -0.016043940836740114 0.06260353376383412
Ni 3.646835780456246 2.652878627896532 7.046347193596649 -0.24333614516263255 0.14522901917554987 -0.15052266347432142
Ni 4.071285137129312 6.934808966409752 6.077900630396698 0.22836615411636155 -0.006552456406537102 -0.17442440979258347
Ni 0.7434901239375585 7.25246938848642 11.339186332243415 0.12417914048378616 0.44000496817571316 -0.11290562445249587
P 0.1750214338054165 5.6096685346546185 8.1099923175372 0.1465647072678379 -0.7849873628269384 0.08877247884971808
P 8.232098105424326 1.542827656457908 7.990974882293258 -0.34267560089491955 1.7577873838279081 -1.1045245779321815
P 1.7445300313134853 3.467209877162002 10.495068591541276 -0.4855626022008541 -0.6575120680903837 -1.2407675915590373
P 3.8936324485953673 6.230805766287821 4.011987318149153 1.0692901802099197 0.17208496302612944 -1.2194197220108804
P 6.873557845845772 3.7710668473604283 10.365214767714624 -0.466863483129454 0.23072874081126712 -0.041347452598535235
P 6.32052367777447 7.722492764967322 10.192438091985146 -0.5487569754711517 -0.5453952580877703 0.0018470805110677867
P 2.3725735146077365 8.672885318254917 5.924584558954576 -0.1502069320061155 -0.4049986273038573 -0.663369041091793
P 6.974644370813781 3.963029868628472 1.4405418151791676 -0.33226520419487293 -0.43040498319210385 0.4882440056877591
Ni 5.233291396293255 2.8590976732355475 0.3885404686131549 0.08787644939800995 -0.329594085120613 0.22221838934741084
Ni 1.2787427305565293 1.088952055813586 7.108465442481896 0.5211425561879928 0.019226195219463664 -0.9187762584863467
Ni 7.0039801003464905 0.5634306564826799 9.489514729115067 -0.9260113427822051 0.14406508077443578 -0.6760456081181969
Ni 2.534377124952302 1.77105076180742 9.080850185380012 0.34152888888498595 0.02410949145369396 1.1748915576915187
Ni 6.5153288524128525 2.005890472614634 2.569894990637694 -0.3161634135370039 0.4803728304697985 -0.59658875024245
Ni 3.9648401573993888 7.132537757413166 10.459048370721954 1.1215823047454168 -0.6951267931193641 0.17280718590413463
Ni 8.054517828441217 7.034818369559063 0.011044571791364905 0.5606920363458407 0.9118476496873135 1.1180814906810101
Ni 7.422355938193131 3.9698275029632657 8.276979689777287 0.8003684732686991 -1.332896388475498 -0.925451356513677
Ni 2.8683210945233695 8.572151799597238 12.367936329835768 0.6642889818029011 -1.8932140722010555 -0.4680014533886392
Ni -0.270791140653241 4.888340870995012 10.250940289050485 2.247380447344394 -0.8684515420898655 -0.6773753826732141
Ni 8.742210326737185 2.197762979444132 5.810575287595377 -1.703159669180699 0.27206102390115083 -0.5052978758462523
Ni 3.6158798424735643 2.75167513756933 11.358633359364989 0.601347605083674 -0.397489977631638 0.3391927845526416
Ni 1.5401936862962238 3.3771480108088787 12.740037566120224 -1.7163566274869473 0.4157993174637871 -0.1343455394938267
Ni 2.8935746228776624 8.496771375176252 8.044574817366955 0.8915698732748839 -0.8323092878413537 -0.4453562051852975
Ni 5.7306048759957315 7.651149284505482 3.544343566257621 -0.511355652004558 0.8183849644507777 0.03227325821140893
Ni 3.0165656419737665 8.549776630388703 3.7253199449749688 1.5088264362793304 -0.6574333923336484 -0.9803847753267632
Ni 3.500709270867822 4.250530879781663 9.295012777845812 0.1838441604445866 0.21108654110030745 -0.15870622772637827
Ni 7.183841341180955 6.024876367152152 11.265012465288244 -0.8769896614678638 1.2895054230843728 0.6548622891723626
Ni 0.6666089701254824 -0.14825902976056432 0.29908685928705997 -0.4090352592670762 0.32883612390866596 -0.14558408852212348
Ni 4.772545749763302 0.3579438729515004 1.5007927511972141 -0.8994356491762059 0.1462821430304126 0.3089625249131905
Ni 5.951632083480848 5.7063379550215885 0.3657652255862475 -0.43099685113983194 -0.6117831985947012 -0.5676754096422095
Ni 7.994615373011572 8.908068983928606 11.536059761802571 0.21338999242250345 -1.0362880142522861 -0.7016494247292302
Ni 0.08420286674605007 4.728139366212708 5.898168825209355 0.1779367938212161 0.20215401449736795 0.07737503564605384
Ni 8.110627728895793 8.644409475888391 2.312718126686135 -1.1932536051384741 0.3668180024690779 0.8119518072309242
P 8.480406364687163 1.4961131547243935 3.3290948005292713 0.11293956301422485 0.5022575463580318 1.4453451278962333
P 2.020182702461024 3.1698156378757494 1.7228635901587646 -1.244236009723612 0.8716016576830731 -0.15543244207111293
P 4.432473952702681 0.9536510730752458 8.229962869819028 0.49169442613020486 0.03391002248388354 -0.8330093992321719
P 8.588317678321527 1.6124694654750866 12.482170982146945 0.29112781072461474 0.7242409368765012 0.09102887898406259
P 6.254185645764214 7.790659188636202 1.2184220984208023 0.8014316244258908 -1.2075893050348556 1.7859566471732724
P 1.6442943420678084 3.063868487557829 6.200745921246743 1.3609599794809335 1.0236574699724694 -1.0271163750553471
P 7.004477929758494 3.8403556500672784 6.0394157014157726 -0.43381015221891095 -0.18955303790390582 -0.5731528878170129
P 2.1372088200569563 8.606547286244663 10.035452565204375 1.1894275465241644 -0.691683314655454 2.397894883288599
