# total energy = -381163.998980406 ev
CRYSTAL
PRIMVEC
9.23457847003786 0.00000000000000 0.00000000000000
0.00000000000000 9.23457847003786 0.00000000000000
0.00000000000000 0.00000000000000 13.51573903640227
PRIMCOORD
 96 1
Ni 8.98723938185748 4.745862197952295 10.97964582896959 0.7625457459939706 -1.825453162605998 -0.18952732687229293
Ni 6.867580445388436 7.807799037832271 12.206171440972527 0.9833086338417776 -2.279195534972462 0.2805842308808135
Ni 1.9070881779416688 2.437817863596357 5.132344999753421 1.3598258658764903 0.7735405544425775 0.8987283386965361
Ni 1.7882483894413526 5.6564285593856 11.730620207742044 1.1096636989309598 -1.9826858911106435 2.271868148073113
Ni 1.782227444371634 1.0910561948499402 3.470990798029883 -0.10265540747939741 -0.013021609070648543 -1.0218463849056596
Ni 7.233214339698913 5.400335233199356 1.7167284272082923 -0.9865397391845656 0.40252856849680996 -0.16201086661957903
Ni 8.955878753856307 8.889694530981044 12.610373551669017 -1.0257863433900138 0.520197161555588 0.8246764538864443
Ni 7.752945642565204 3.805514321411872 9.259632662250104 -0.7233860450753735 0.9630167163619608 0.4503271760373277
Ni 5.283822558437642 4.123534729864268 9.828889008688328 -0.14167755437886567 0.5618325777081872 -0.24777489766027652
Ni 0.9179872685775157 4.233730953049775 9.064640847027508 -1.5936036779267264 -0.42355710703233507 -1.785969759799395
Ni 4.283680787224785 0.12174683375790435 8.88647628043381 -1.5128507269473752 -0.5216418644219146 1.0796614961419146
Ni 3.388231430514071 2.9459874743962566 2.9703806130491115 -0.3956153863167445 -0.12414237370857975 0.32665094333188904
Ni 7.858275242971965 0.653756431968824 6.251610061021259 0.273694959960148 0.20668326982628918 0.6088971352961579
Ni 3.2328965884623324 7.893449751822513 13.163397356322653 -0.7638698641220328 0.4223528023115887 -0.5921451126487997
Ni 5.446646643513217 6.170859214291741 0.22655191011564701 0.19009579778125327 -0.061143661388855984 -0.5953037128824393
Ni 4.101630310070753 2.5292494236197958 8.31686902001913 0.9760786917522416 -0.9304364684330944 0.4661106641238295
Ni 6.825230669177195 0.9860036317930128 13.140325685828504 1.314475205655833 -0.4701799490971966 -0.6859705805413928
Ni 9.031768518554077 6.491696169134113 12.33811232574648 -1.067907183819464 0.4750120803785174 1.7372506973271369
Ni 5.009278544752476 3.90204336867225 12.247665171772782 0.01957303703592113 1.9488766558706823 -0.5974315578587195
Ni 7.972045247970326 9.076233013202382 8.792704678262108 6.463005670673437 -2.7559361680063117 -1.105393610800696
Ni 8.300860878487908 0.9194103170978281 1.4680661662024201 0.2496361192387314 -0.5526159442059256 0.4437227833469326
Ni 0.2190700547544724 6.168245828624976 4.6346954205845385 -0.24876554370831996 0.2020905082492842 1.9460466426210548
Ni 8.16135410369 4.0735294882192905 13.197916210111929 -1.372770084741984 -0.3190376497610054 -0.8506399678297414
Ni 8.103231667694896 3.321253033902617 1.938265037834117 -1.4631870411736607 0.10943669206728895 0.7347696043219669
P 3.6952257524430876 5.809436287698736 12.475324307829931 1.5228019246228162 -0.19577305067168863 -0.07826180912638134
Ni 6.426971009634641 7.559887548044448 9.628895745843401 -0.6344284467980429 0.6504178802477637 1.0600241815269615
P 0.6862067402126746 1.0090808430341573 7.198361194174171 -0.8751610928995573 -0.0932495407844652 0.30966829273096347
Ni 2.434391835036747 1.7399884831003272 9.796869955252385 -0.06372350630089026 0.4422217733213739 0.15437469023055994
P 4.892147153242801 0.7949189666609048 6.785103655969453 0.8886742968946437 0.6804280534566087 -0.13741132290334399
P 2.828292773608586 2.4674608600285595 0.7800605301314922 -0.45965976629216315 1.5200081639277627 0.3150102737691672
P 4.122315765525 4.043729503955516 5.388387535758863 0.043400992693454286 0.4117639710521489 -0.8670564615145518
Ni 0.22367441550870798 7.39715580875215 7.080435628928306 0.7565687024749294 -0.10622024201252028 1.0540039434748105
Ni 5.826649541701734 5.557498521759996 6.0707296049413575 -0.14140116078902745 -0.8256802125606103 1.8551023529309985
Ni 1.7180655941501561 8.683117013788404 8.629744844885115 -0.25263068309068104 0.09058459235779237 0.6053058184004736
Ni 9.242981794067267 2.0912810772677477 11.668434557282716 -0.5122442252570985 0.931635373837202 0.3020709399996797
Ni 5.652734728054484 8.141074969682174 5.108517017294227 0.991799444921608 1.7245669312118816 -1.8810350136363603
Ni 9.086289469001343 2.0626169461382906 9.248360935943204 1.0290598719349633 -1.8198347879779562 -0.5334162313490233
Ni 6.411401510573987 3.1702861473999233 5.562537831153471 1.8056191585992067 0.5591082367984888 -1.5035453903860494
Ni 0.8090534122494186 2.441336237939245 2.0036403116478665 1.726903292654542 -0.9588484439168843 0.1059101669712692
Ni 1.214291642634284 0.17121831677553545 11.048913477548501 -0.3871196901409075 -0.10385019911844696 -1.091548734497804
Ni 3.6846890985710803 4.654753848170329 7.424830916542701 0.5859047881660426 0.8134561596905926 -0.4918535774158884
Ni 3.0502828020303054 8.70998963672227 4.417160152748145 1.632326548418221 -0.8498706937638847 0.46548794293816603
Ni 4.873659527430567 3.930910660524918 1.3846603782036628 -0.6588505843961492 -0.1837819397480835 -1.930878676631365
Ni 5.096018938985398 1.9291034126751176 10.706681851636308 -0.01606759498582394 -0.13659036966394542 -0.678777148116747
Ni 1.2163324844447254 1.0700013562625812 0.11587456539926334 0.8126732587779809 -0.4013746573980249 -0.038567575860552934
Ni 2.056439013237 2.8542788770229848 7.402299468880729 -0.3431129455426542 -2.261264147305022 1.8515871406888886
Ni 3.311565961236767 1.0417527811578746 12.1472566781569 -1.225544603961696 -0.12648182047503378 -0.376587423151016
Ni 5.235230207276817 8.853282588634572 11.312267952673887 -3.5282834734717365 0.22915342590434729 0.5193507543948926
Ni 6.013335777176316 3.8965487945672153 3.2589556450455204 0.7180934292178665 0.13045726018301404 1.5035962982286426
Ni 4.657478048777027 1.9638623655009153 5.010770852610247 -1.2131261756926848 -1.2417230134937711 -1.0164442400534819
Ni 2.212097065530211 6.618939423912717 5.616018968081027 0.8310376202177816 0.7254028183950862 0.784992505033261
Ni 6.084654425601831 7.743480199779221 2.474826359702804 0.6799058624045516 0.1920254107037983 0.7819971698503629
Ni 5.8861756336026625 1.2746673157413682 1.7480982897877915 0.24335260022286476 0.9131339725989048 1.2100974161686902
Ni 6.543760721746187 7.594424870990378 7.381445020643082 0.027113311277024276 -0.26784801426106775 -0.7399794306576803
Ni 7.039629874213472 0.9789761176855653 3.94921821205976 -0.8538613029805165 -1.0108574899943237 -0.5922088760071994
Ni 8.071566298608907 6.197205466260923 8.97938352607403 0.6805512092980344 -0.48677642000329713 0.28475687420126444
P 2.300767486633641 3.0711437144727807 11.55388884770482 -0.6546247192402597 -0.19689739408411897 -0.7583167955142874
Ni 2.3444932150157216 6.090730778141515 3.109863377943367 1.4569665141852455 -0.5395997344519159 0.6094015857364021
P 4.750867339405957 5.813360983488046 2.294378081888644 0.3989058841425581 -0.31368435586889204 1.5579239651369299
Ni 8.987387135110723 2.071740709526146 4.358001597064663 -0.4658450691672687 1.1231054262581626 0.15514730673052635
P 5.7500764182077075 5.48180268320711 8.216014496270015 0.5707311657493978 0.8592760462381847 0.7147923898690915
P 8.613986960426576 7.832603115220712 10.669635493758717 -0.49855130115103824 0.5295433786571784 -0.7819454906768211
P 8.306290810544647 8.43533480809717 2.89793626952544 -0.3724011529838102 0.009461145412899837 0.8634278636230291
Ni 6.297659209310612 3.203105838776885 7.694104756376198 -0.8245610113545025 0.3011877660637781 1.0466588159636492
Ni 1.0113987221944323 4.180087287543648 3.5835492263516375 -0.33692507156438745 -0.9145683910525862 0.6179335344668132
Ni 4.8081863670865435 2.09661866354121 13.387906577712194 -0.014566070739632979 -1.1095114896238116 0.7446359555930854
Ni 3.370076249521638 0.577922074741021 1.5629736215084387 -0.0031362316361365342 0.7092560334318946 0.28030372352591726
Ni 0.13060833512125064 6.058040370861142 2.514535969970129 -0.8994346207349412 0.5835851388939304 -3.3529085268404257
Ni 1.0723100008445285 6.6290235834466635 10.018987420855026 -0.6675375706471859 2.080582186638501 -2.8797250150302145
Ni 7.973642830021032 7.522469036660247 0.8264291948309863 -0.36616339960421457 0.2154329909944612 0.9743442255596381
Ni 0.8955398555783263 4.264214296109806 0.7070565711611565 -0.20570162263931027 -1.051796908521163 -0.08821197836055776
Ni 4.816358968906637 6.470419700666887 10.654051219372741 -0.8431675707120961 -1.318514151611897 1.7294494561151634
Ni 0.7491496260948842 8.879508791085494 5.178407076452433 0.08447565124657709 0.5838695029035686 0.3605002877811662
Ni 6.3028398077525 0.7666814730501916 8.296244512781847 -1.9381872944776364 3.2112947358199597 -0.5559064420317393
Ni 6.928556366086826 6.316636267774217 4.304938786535355 -0.27543302569717726 -2.0312709991081985 -3.126390738786713
Ni 7.922695661386621 7.759908514624357 5.425541938202889 0.7806193156662298 1.406158687504759 0.21706898393598742
Ni 8.40978272986418 5.292918618090514 6.838463819920917 -1.6694820744225956 -0.2259806846033205 -0.6504731589657313
Ni 8.482181823954043 2.86908190608243 6.847924645417736 1.355788462582323 -0.15108419240474624 0.3345799683709786
Ni 3.8127542308208584 7.0356220672192125 8.644341942847852 -0.5586153563224703 -0.9155263840904813 -0.15066947346483084
Ni 1.214818013598968 4.432496016977105 6.301983762341515 -0.2162007223984212 1.8721917043131178 -1.5792332681376673
Ni 1.38400472314239 8.194903326754856 2.817707176471442 -1.1959833453648112 -0.6034502532489735 -1.1904493029204595
Ni 5.389955567158921 8.575210966028191 0.40557067520466583 -0.16623647466515243 0.7450686722551297 -0.8583393933565282
Ni 3.1046837029593104 8.21732488293473 10.86780308046824 -0.390273919499173 -0.7931076779412276 -1.731617667411076
Ni 4.145300630982867 8.038247940002245 6.589584546324342 -0.5992997214157099 -2.420920140539179 0.9848888338447037
Ni 7.111262498302131 0.3978237874454837 10.719156843499318 2.039646110545771 2.684837195176957 0.6962146268669042
Ni 2.820600369861538 0.4740718537823717 6.867522267544971 -2.0430031999434624 1.9052128964341446 -0.8956206463054898
Ni 2.2999456091624677 5.857022069821832 0.6905377574484075 0.7426508068422565 1.7686646928620442 0.1939624798255111
Ni 6.854495047897959 5.22527533183946 11.380495787733091 -0.5669650138387461 0.5293556881264045 -0.04281195295920368
P 1.9143373219289832 5.944944490080711 7.817300495473733 -0.585503438962566 0.8978423365471571 0.3530083502794953
Ni 2.79853896223645 5.007644024388457 9.740063446668989 2.7607901536645034 -0.4235398806411545 0.6964743082861942
P 6.960711167824188 2.5444680087039915 11.720254393569101 0.4081456575732713 1.4843083965333084 -0.29596714109478706
Ni 4.358370056739942 6.269050485651121 4.552154912575095 -0.9713280644411336 -0.6730829259454473 -1.7575963508630243
P 8.040639695789142 4.447557614229728 4.6279514080317545 0.3136627586023372 -1.193323539144461 0.06019209610886408
P 0.9412436306382195 7.688211248487403 0.4861802328857686 0.808947987407594 0.10152823585348965 0.2164730022232014
P 4.750885808562613 0.41352349406055766 3.363405190137643 0.08449184919649319 -0.6890224799938391 -0.001390966810255669
Ni 3.7853275331873246 7.647117374928743 1.8096088925713611 -0.5905546282332281 -1.3077402009248447 1.8491471637888284
