# total energy = -340883.80400709115 ev
CRYSTAL
PRIMVEC
9.14852428726187 0.00000000000000 0.00000000000000
0.00000000000000 9.14852428726187 0.00000000000000
0.00000000000000 0.00000000000000 13.38979004141610
PRIMCOORD
 96 1
Ni 5.05099161840427 2.9342061215533164 9.788618842203837 0.05148274126032423 0.6334401147428446 -0.017747810901724274
Ni 4.8035240425990215 0.6606323045209238 6.178035806223467 0.014920368755258175 0.06751922589789662 -0.020256436256190922
Ni 2.568631100141941 1.5896292435034487 5.02600516949339 1.1302476937298986 -0.0717296644348184 0.14062237364147395
Ni 3.7705092999141647 2.939850760897931 2.050164114946001 -0.571417393183145 -0.4271093431599677 0.05776780293808761
Ni 5.510924516963717 3.5645851718623964 0.4438873022117639 0.35215294425773547 -0.42693605080689695 0.6224193381523087
Ni 5.176262358348863 4.926553394149076 2.440329454176486 -0.6827302192272242 -1.279856330030383 1.0265211646735095
Ni 4.8058935103303915 4.622099661978177 11.733298645040794 1.5272239649499117 1.6756311247431268 -0.8310093380830076
Ni 5.865859804894075 8.332347633913443 13.012157100510366 -1.6664656561937752 -0.9074968289177855 -0.5251743030552053
Ni 2.3690651963114164 6.063284954094714 11.591166260402423 -0.23357855155523646 -0.6055978957195958 -0.32547260675307166
Ni 0.8626308008988276 8.242262117501086 12.0848343414307 -0.7333639822236918 -1.1202664141474707 -0.7095131437480232
Ni 8.444407905116345 9.038997929305273 7.766452870289053 -0.812241313446885 -0.5465031464399686 -1.0531822189044637
Ni 8.683550324027589 2.4761486704260345 1.5964778286142736 -0.0872915234288174 1.205662520325788 0.19640811315252624
Ni 1.6148059817147626 1.4222021046933992 2.7194262222121033 0.11940871567833627 -0.4958174471596429 -0.2752913579129904
Ni 2.074775474370447 6.681350091019916 0.5042245629403538 -1.1928923651443133 -0.31518150923970883 0.2599231029870362
Ni 7.731929999898714 4.211019881895624 4.046113161463924 1.0425401658095852 -0.38546441392567166 0.4013234924451152
Ni 7.855288698314904 4.308241247074271 12.819518459097576 0.12724852343772924 -0.8291308901133722 1.0043870517786315
Ni 6.861685797277701 0.9211648875353208 9.397329149366458 -0.37081426811266466 -0.24888535711563586 1.4110628096745954
Ni 7.070775314654002 0.9120428941957491 0.6334117860347526 -0.24762063147059934 0.31832159753058725 -0.022517721486541863
Ni 1.6913333854711732 6.959346291611195 9.385586103883886 0.8101422648260111 0.6262168575215279 0.15709903114025847
Ni 0.15297978961553407 5.286621004076727 1.5145454768436029 -0.5570289856719568 -1.5293533525880887 0.45269490493855585
Ni 6.778361040145198 1.9081991482979161 7.338488574202578 -0.13537552342023784 0.13834617601278754 -1.0323873936462993
Ni 3.33438086095713 4.604388119399286 0.13935397788154752 0.37736363919540816 0.10432688164454937 1.5038739773700616
Ni 5.711048480761861 5.39224986286591 4.859650237703096 0.012724646655520021 1.0326941262534408 0.35908952347656864
Ni 6.430287145259347 2.5848605818232167 11.90649575797507 -0.631681480180525 -1.3595777544214263 -0.37900143190914726
P 0.0943715999341603 6.0301855940480085 12.589307744225469 1.5039171719031712 1.2738854571589286 1.6210643452408404
P 4.092198851412868 6.587632610556 12.885918446720295 1.0296188297622266 -0.5129278815876844 -0.1904935474403042
P 2.2607192258766085 8.4832342412242 1.572563586723149 0.8798448715284717 1.9375049236986313 0.11549883910096884
P 6.481646959328502 8.173822009013135 5.861058659467732 -0.026250191945780595 -1.4075033744581116 0.7444251251338599
P 4.827822522500639 1.5493025494498616 13.006989099269243 -0.5593645757836689 -0.4692422677742757 0.7118572185001676
P 3.789218031615522 6.560818286538064 8.27041761514612 2.1911293381611494 1.7580300959663335 -1.003546043934575
P 4.452330501008935 1.5938192675226284 3.5886512792529057 -2.647411703340647 1.5888954738177796 1.3502148251492876
P 0.5510576873049462 5.5706277849749934 3.8182993598953643 -1.4765053555491217 -2.0482526212678596 0.45466205596725573
Ni 0.6999361935846764 9.03833008704894 4.591465829165463 -0.02612035123613566 0.9735957774293877 0.8638634084985509
Ni 1.9174117120256755 6.732581825752242 5.008049361322116 1.6114234797169669 -0.6119099539805526 0.8140372290050433
Ni 8.220012906988762 7.385109452808993 9.864378684791669 -0.5238877230332978 0.2271492509901249 -0.2840055978575367
Ni 8.2518223251431 2.8213682258053705 10.47926470960625 0.8267734456247889 -0.4713716554124527 -0.7446377553652982
Ni 3.809280744877663 4.076509132651093 5.304418542781774 -1.6774553224360593 0.6453692620802628 -1.2787754382613785
Ni 1.4103456175124895 1.1738928646746916 7.238440315089594 0.0824377948809419 -0.05067772886052562 0.6376307557854245
Ni 0.9357201893137366 1.7673484718802601 11.484435919316496 2.8342987643766158 -0.14364316274566874 -0.38835664787180213
Ni 4.427629486048707 6.94351019646447 1.7857827478598378 -0.5510038625237995 2.336502596224047 -0.9603484255011783
Ni 5.878127975657656 8.188441350459966 8.121804416064112 -0.24575683878898322 0.052722270094380165 -0.051261883498769784
Ni 7.398795644801771 0.7533553404195904 5.061969847275482 -0.8331675220765908 -0.1295717722542672 0.9222845287499213
Ni 0.764961158041274 7.271320110558875 7.047622229964615 -0.289952559469591 0.6107547573301869 -0.06276757014552416
Ni 4.948153059453187 4.710922682070344 7.179966608711893 1.2618161846992202 0.9742274974761157 1.324374981268048
Ni 0.30106694856413113 9.303134115946644 9.915808942496083 -0.040494617679936715 0.935372472282131 -1.0346435366703277
Ni 4.8537311426367005 0.626253980810722 11.025032720300086 -0.25235120417704926 0.38427322183104784 -0.2137260356056835
Ni 8.450418485423333 7.112757891562329 4.861819352757566 -0.38373688971160363 0.25927415654912767 0.5528889953616543
Ni 7.359758892640552 6.233721957320287 6.893425686649188 -0.3730840379834478 -0.23729970916056553 0.7378220179950454
Ni 2.477456909366521 5.318521907471658 2.608129852768157 -0.9199713072357123 -1.370262487828782 -0.7456867654551028
Ni 3.5205350285166563 5.048841715250324 9.585804297479841 0.16896158690579932 -2.1880846377975542 1.467150910917415
Ni 1.500184123775245 3.508550461998916 4.081663411106128 -0.9542847358056017 0.7277769750542176 -0.7259280947709369
Ni 0.5581423043365019 0.44614515794961 0.5507045542762555 -0.7333457273912467 -0.16628198319110718 0.776302947679063
Ni 2.3427174470205068 5.37036659331596 7.44744109178252 -0.8082309067359114 -0.8608850425965173 -1.3771918679587636
Ni 5.67288083838628 2.8354203587605227 5.151440582871052 0.01447788190120087 -1.1839256428693288 -0.517040103983845
Ni 4.383231698788712 7.3400346747686065 6.263462894184808 -0.3850327257048917 -0.6773661267018334 -0.7502414747053209
Ni 0.9417307696207254 7.359091050384219 2.8931850545236246 -0.50630086318947 1.2649817269113957 -1.271982326598945
P -0.02209185589850325 5.953749675532191 8.61634343658284 -0.8612393406121426 -0.9429400002167437 -3.0484654870641434
P 8.694080275219894 1.9109162599435414 8.528023585313935 0.08777746192630044 -0.6530344919350044 -0.4650164026183862
P 1.861267219873483 3.6987574257167317 10.422545690143133 -0.424500701892527 0.15517713152719725 -0.18373848810465776
P 3.8624336696624506 6.3030403241179345 3.7400630118446685 1.5574436830664016 0.4323230261504232 2.9018082200824993
P 6.943693166945658 4.463354472500444 10.836129421260726 -1.8253266643304626 0.8354246935418838 -0.10433048118897516
P 6.274972652303868 8.042330272708188 10.56370009755956 -1.119845267449652 -0.05035736940662941 -0.48140230017557734
P 2.384983628174674 8.759519667816381 6.083744713301029 0.19710616766081537 -0.6447038605821218 -0.7326245329545059
P 7.078560708628504 4.1138442593372755 1.9485359057279688 0.5894464827707139 0.3675469102153025 -0.9736171175856264
Ni 2.5050122638332644 1.5045937123718487 -0.01921098567221591 0.7229301884848774 1.2807104505005622 2.0395525223907
Ni 0.7988125267656576 3.720567507074207 8.433211026520114 0.058601354582976495 -0.0917924966229645 0.06834249313014037
Ni 7.591335482154719 0.18087180976766123 11.614718220740798 1.0273104933440242 -0.04784977249342727 0.7793450769394965
Ni 2.4590592274831806 1.5032031367148286 9.271599153514087 0.029036496441666122 1.5873821224970468 2.682691609588864
Ni 6.43037863049994 1.8873679590147905 2.8560557696287785 1.4984425219418451 1.8989759143854974 -0.728745509615074
Ni 4.130750731798943 7.6016458687696 10.142270592208673 -0.4954019568887791 -0.2812946266842768 0.849909003200988
Ni 7.228971592688173 6.527590847154526 11.936796584512024 -0.022223844395206888 -0.025684292139981572 -1.07867624941051
Ni 7.182981962241852 4.1531463186962165 8.665590856446693 0.6475364449349106 -0.18220842461337652 -1.4106753444281899
Ni 3.142673539293582 8.576951721688117 12.728842862883392 1.1867998790933303 -0.6038564875484568 -0.7479351951696473
Ni 0.041023811586909174 5.197432043022185 10.60459308525242 0.6400360227928074 -1.1476157526947008 0.4268018392218778
Ni 9.250804558327198 2.31604035086346 5.867419628246194 -1.5689439703965173 1.1997914062569919 -0.9039021695879916
Ni 3.2517330946050182 2.9288359379304816 11.81047742371023 0.5861469860838356 -0.32649539159063123 -0.9381178962377521
Ni 1.1458617869568621 4.007675637628592 12.949935243825552 -0.2963211820000961 -0.4795477634653418 -1.143029161765283
Ni 3.160494864161184 8.829158232956106 8.12369267142996 1.0114326457715033 -1.4215092018189002 -0.3084871279386687
Ni 5.485756927276462 9.056114817820305 3.6116149894942646 2.032405369822958 -3.966366799144705 1.9992918750984403
Ni 3.0755599667942364 8.524210480486 3.8463505643661238 0.4822080839063243 0.19314744012338347 -0.6010071910251198
Ni 3.5381093432346558 2.8288608670099733 7.694161233172119 0.2574671852473759 0.7047229214482315 -0.6936206408874828
Ni 6.006381134445595 6.023635250821518 9.6433000266356 -0.4210857626737071 0.20611968401333533 -0.43554384708056604
Ni 8.217195161578484 9.141690111871405 2.726790784079875 -0.20187864934879426 -1.376106862424701 -0.5352589409847169
Ni 4.70721752982631 0.4001966958615561 1.5472706622562813 -1.2327876586773543 0.4729667678137145 -1.3382419690581273
Ni 6.454713704497795 6.079706554781236 0.6493046020306444 -0.3053488394200032 -0.9999570410317358 0.2541550901550074
Ni 8.58250487579214 7.455681167402771 0.9441084710237488 -0.27248808413624037 0.1228074569472401 -1.2755823852453771
Ni 0.28274519943048343 4.991379835633587 6.039357904269906 -0.6208746193730081 -0.570837609420275 -0.06606706683240235
Ni 7.072175038835081 6.385980843239945 3.0663419139520416 0.5070922487425138 0.13302039292449994 -0.4620197818839075
P 8.647752149383379 1.7416502677975636 3.7251060898600477 1.7187189570715369 1.8319752799952318 0.35881492965894335
P 1.6507505327439242 3.2792335579274057 1.538995822244605 0.6983262738932683 0.44685233011484976 -0.07390224660610498
P 4.785464856105878 1.2338522913596301 8.51688342756687 0.38408527418995786 -0.7297505538408207 -0.5841266132196973
P 8.48418568772637 1.8891244756341847 12.6634336604163 -1.3070120645095684 1.325992462266813 1.6255005266353233
P 6.60950673158189 7.998572882132347 1.7222215472527354 -1.1477229676965266 1.0083241820495086 -0.18058631562892125
P 2.013105273686411 3.4730450401246027 6.273625074709926 -1.0621574258198803 -0.3890531597181945 0.10982569997559151
P 7.218615463452997 3.7055913731890615 6.270063554293624 0.6654778599046798 2.1087946445169745 0.26691907468889514
P 2.297331619162102 8.836907032834368 10.422291361174283 0.7653873292078238 -0.05545612408577545 1.236678251981012
