# total energy = -381169.26584048965 ev
CRYSTAL
PRIMVEC
9.27577577044702 0.00000000000000 0.00000000000000
0.00000000000000 9.27577577044702 0.00000000000000
0.00000000000000 0.00000000000000 13.57603544982890
PRIMCOORD
 96 1
Ni 7.7118058203632724 3.9272429021041155 6.665045648674092 0.6821506925746703 -0.2490864173828484 0.4455832335944391
Ni 7.171668117900927 6.010832599876935 7.787946953856299 -0.10109629052239363 0.5520371888843202 0.6552764938916457
Ni 2.966699211616477 4.490829765869285 3.993201088888976 0.8354897424518642 0.22257011625987475 -0.6892207120475743
Ni 4.344133371089151 1.613150174910724 8.196002246361532 0.9316104341365375 0.41378280125439065 -2.2701982165698578
Ni 4.926188304535462 8.229626006174273 12.004677543895488 2.637582118844735 0.44187210329143906 0.22137146796608326
Ni 4.619484776656542 3.2505843309491365 2.6173373182646285 0.19375036381470503 1.060320886831774 0.16299919867477733
Ni 8.941940659626743 8.893400524698862 11.890896239654545 -1.8956599626383868 0.029383595368439718 1.2728611296594723
Ni 6.953603903870818 8.942311690660016 10.388504393641176 -0.8504409644450578 -0.02343380554290803 2.4423004059871682
Ni 4.1953035478677005 9.2986869981183 9.979852668749958 0.09488476239504305 -1.2402726542004898 0.6738830532492395
Ni 2.082476604673003 5.7014019939034615 5.802777875546937 1.896186010345186 -0.24361613829689657 0.1304354058061431
Ni 6.619935695648815 6.1100741255015105 5.367936925172175 0.2587455377391673 -0.4904862647547166 -0.4593880006880153
Ni 6.974789775870682 0.8004716269580285 12.868873750818077 -0.27487638186275887 0.563205546796314 0.09755073926298038
Ni 5.247222906074535 7.936381629027314 6.356258781543346 -0.3872078789793396 -0.5765140909797619 -0.05578008308409748
Ni 6.239127994649534 3.765000307029861 4.7896934080151565 0.0015444616689844369 -0.04003850397912459 -1.605395785465648
Ni 3.3585821889589433 2.233597544524912 10.150937860924678 -0.8349762931505555 1.6471078204924536 1.0354351793336878
Ni 9.256101911274442 5.911980656837296 6.289478761019787 -1.9207009647674147 -0.2616632256065945 0.7993983960459459
Ni 3.980272512534594 5.9000612848934155 7.688530116068502 0.5301617289674676 1.0730843571450293 -0.5294405345307269
Ni 3.124628570928938 6.847934265594797 9.886408503020265 1.3997214165198475 0.14604174488483238 1.0161195097242113
Ni 7.452566437415743 6.8255889216159575 2.962752369000041 0.33109766624933296 -0.8166080750560128 -0.08445791063476421
Ni 2.779189403176363 1.0440720518531206 6.123036094648887 -0.3677348578563925 -0.5284943685673738 1.4295295010202154
Ni 3.360205449729511 8.464961714803218 7.847668108971847 0.12684203202792996 0.004797678498959479 -0.05292384458222499
Ni 8.588802597933764 0.6115305663070654 9.018057676102607 1.4044805284713877 -1.2215617080545478 1.4800185109087027
Ni 0.541647798767764 3.9134869265455356 13.507218729899748 0.5435584619893478 -0.5354214347045101 -0.1363574277175329
Ni 5.029603929284353 0.9116751930953105 5.626316443700096 0.7858545959232401 0.7169945397267329 2.387839813045442
P 8.49047937411654 4.8850595144971996 4.09745153346273 -1.7923288692482033 1.1598935416207894 0.1196776530690068
Ni 5.403315661772297 7.062779785411267 9.246909617425116 0.4663921999199903 0.34878274223392186 0.18765787776372198
P 2.2471123499118644 0.7965850768844985 8.902974052934876 -0.3049168940889071 0.2636332048487718 -0.08198836604834912
Ni 2.8158287177120274 0.872799489006596 13.163785912459595 -0.699981292998188 1.0307393165199152 0.2586360087444965
P 0.8468245339447681 4.418543644811961 7.802445919059005 -0.03756690251018047 -0.3725399925545197 -0.13348807658953787
P 4.210404510921893 7.1738757525488985 1.2986577780658293 0.19319937640724144 0.6963020443743879 1.721268462966268
P 8.79320359416361 7.522635648049263 8.678263745521274 -0.5709476526355779 -0.6878886234997121 -0.03594762173920261
Ni 4.337816567747686 3.980133375897117 6.224911013032114 -1.8035463352305778 1.6311438409640295 -0.2556093061030308
Ni 0.6440987428301465 1.1957866413582656 5.04264195979355 -0.06706182664550386 -0.3581598125734477 0.23123781923720177
Ni 1.9443788540889602 6.0056567169627835 11.909142618293306 1.6418691978013336 -1.3356071025384417 -1.3910583415282107
Ni 2.2340056786615117 3.236837631166388 5.926279265282038 -1.8031287880771851 0.29152453194240113 1.7440870035226803
Ni 7.184144036394717 2.059519059489264 8.321932961786983 -1.881655420829179 3.3375425859073165 0.7914991958035272
Ni 0.35801897493568047 0.7601683809687979 0.6166062708422339 -0.7129427382548625 0.37080732613412914 -1.3665346453552336
Ni 0.8780505057049858 1.5231751493421308 2.6463769896612876 0.03382800429303852 -1.2731187541962332 1.5232089302532479
Ni 3.593704554743758 3.307120184644041 0.016987655858383646 -1.6806231786410797 0.23672429627306973 0.7821228967949498
Ni 1.9160691862502646 2.9432407745378204 12.018633876212036 1.0502825287591655 0.9822094872403276 -1.272820506229524
Ni 0.8169787976283243 3.5804123679767685 4.10980501171554 0.6501417437682416 -0.4296411084428859 1.0813638235450023
Ni 6.907206473160087 4.198151211048067 2.541949377769146 0.5253540231661791 -0.12915705331435176 -0.8454928764111633
Ni 7.890002749868246 2.1534826686655366 3.911065949053432 0.1852317848207326 -0.19404269824414325 -0.030202748835625407
Ni 2.470918269181866 8.46200274231287 1.685926056931968 -0.04364499038346032 0.23016104123325526 0.07250922291332028
Ni 6.1760341674415375 3.9128468980131403 10.700713094476278 -1.7488988230890266 -0.8092395505060838 0.42679926811871655
Ni 8.387629571693388 5.35321719650467 0.9017055892312771 -0.8284657457255473 1.2718308886227452 0.31729341337638906
Ni 2.8048183717996644 4.546298905343531 9.179911616169507 -0.13752110900833092 -0.8911253295382975 0.20017246529096494
Ni 6.437917146501135 9.16208264744318 8.28545411817321 -1.5132631318944454 -0.9153345797946495 -1.8378667057790026
Ni 5.625053083031803 6.0577494740342495 11.752326352080663 0.9232281236101132 -0.644546251958335 -0.8077997327357636
Ni 2.9905750586075657 1.7455804264615284 1.8955131394293823 0.3698331351463179 -0.5920394403088707 -2.2979962126187328
Ni 9.10491604099171 6.4462931720772625 12.40696237625575 -0.6255131465862841 1.612319766278991 0.35560927823745203
Ni 7.39220896407813 0.37359856802279484 2.0670463515767805 0.4166053583048503 0.8186191919487709 -0.3290811500399365
Ni 6.093804414692509 6.188380225073683 0.979170375935503 -0.31662338389255795 -0.4617606146852499 -0.3674486940745414
Ni 0.1682106292444427 2.097364224883064 7.2488694725715295 1.4268105594271556 0.9871231224918613 0.29374699351501665
Ni 7.652450130815495 3.0644658888837943 0.11591751541500969 0.7736688524903256 -1.1719144773410655 0.740034452265332
Ni 3.691063097874474 9.155524673930087 4.218725809420613 -1.98017906552839 -1.165093083543858 -1.2525825819160943
P 9.25701093730596 1.995562585128908 12.38350301159951 0.10417132990329156 0.4177687824853321 2.300288093976703
Ni 9.08409192424929 3.4004159379604233 2.1428952981311045 -0.3061618222396017 0.574428669205643 -1.2552243904143159
P 5.7813777331253595 2.014754165324931 1.3875382620862684 1.2273451475055444 -0.6659985082948401 -1.0746858973041944
Ni 1.5417730798849174 5.82495532798322 0.5620990293217469 0.9574374225019706 0.8868290161557888 1.265292316173279
P 3.902124101151564 4.63579159056887 11.136408343805149 -0.0305534473068248 0.0384395349231209 0.4717223538836522
P 5.727893609679122 1.6952871699014345 9.974069222518821 0.3057555879401186 -0.037561246083225634 0.29435943028803496
P 1.1036318084691963 8.141728754392005 13.38276750071947 0.06791131912999272 -0.7555310052390343 0.3995751422954409
Ni 5.6687234356479825 3.843872228927774 13.251025511735387 0.2996391906297356 1.184819615438508 -0.36794594542593406
Ni 4.719950704690916 -0.010417623836709987 0.6004747690931266 0.939865217946162 0.4185768802089243 0.31404096787736235
Ni 7.661187911649065 7.949850055535108 6.479203624728537 1.1545430759421536 -0.13975025544916575 2.2503266744569115
Ni 5.623244306744599 0.9620927450515507 3.518297135119028 0.7023459365756227 2.488302583748895 -0.6864014974312244
Ni 5.231982806382865 5.607225041883057 3.2987052008094193 -0.22327845518080902 0.4280994749873788 0.21970899266199584
Ni 1.3390324475289648 0.8936004163094383 11.139055650227549 1.5138804537634702 -0.4880048930937595 -2.03546883923963
Ni 5.544159042002556 8.20184505755799 2.7958078831566406 -0.6713453744290503 -2.1021388297633536 -0.3120799874962496
Ni 0.7818894652341561 2.8666599692703665 9.573454029808286 0.9751950035957077 -0.2510972771652901 -0.3060175833522536
Ni 5.607902173518779 4.179608935160271 8.34885497356124 0.00697591709720089 -0.37672394872888026 -0.11132671000115021
Ni 2.8268390636243903 8.217196466559642 11.992445578306073 -1.921357367404491 -0.4026422112565388 -0.24683335968261358
Ni 3.2385072708161147 6.821804405076577 3.7191686986448698 -0.8400681058511661 1.192962042039984 -0.445337179021904
Ni 0.703973875824504 6.200828316239976 2.7463772737489056 0.772041858409864 -3.109035021117084 1.9655695431453306
Ni 9.075511831604862 7.5988454222834445 4.595895551138656 -0.6917997856286602 -0.4423768108419994 -0.24915223762377733
Ni 8.11868772722578 2.0811501687290535 10.758736782614605 -2.2674147402874496 0.3835885370591975 -0.9339403678212949
Ni 9.310838264457974 8.038276026539787 1.9996819571758166 -0.9351670411395443 1.9806791450932602 -1.748611373755595
Ni 8.16834095525348 4.596527231472803 11.72334140776141 -0.601341434436087 -1.2573296096827766 0.5314866184264782
Ni 4.842168327050893 1.6405044378387426 12.009510223103863 0.31344807148836984 0.0067046657136852275 0.3578762198947578
Ni 7.494956732967131 8.087446914224232 0.3032816941745645 0.12035333897979272 -1.2096739554780265 -0.03769082968255444
Ni 8.01855572712135 4.223353493983105 9.358409080811432 -0.18676673340802027 -0.34258766916680355 -1.5879881315121618
Ni 0.6361660993387793 5.259494757500025 10.10862084400236 0.37918063779948896 0.8092205243426902 -0.2779537352365019
Ni 3.026129107370908 2.166821234311685 4.009356707655246 0.06109866708353349 -0.44066137081278955 1.6767333566683702
Ni 0.6940051995380538 8.86219681480064 7.649118272136708 1.7167965432378431 0.767984914731671 -1.5222964457413075
Ni 1.7562197413406189 6.667353461701047 8.113961719439471 -1.817070852079574 -0.6633880672551865 -0.6067566919143873
Ni 3.885882217670058 6.032250366272593 13.204391548740944 -0.23188522301321354 -0.9390483784718215 -0.11849211740133786
Ni 7.615272821281586 1.050064203040472 6.401861278265292 -0.44916709429095547 -0.47111994441296284 -2.3345999798846955
P 1.23800069716885 8.729182189372432 3.6016817219591175 1.8845815933370382 0.9386940804561963 0.5417224372218735
Ni 1.0473185733942552 7.7928018949266695 10.467014560281648 -0.8276751315034521 -0.5090815112584007 -1.7232415275322386
P 5.810373808375609 2.680652836515006 6.541015539716578 2.274317380944554 -1.8242678840486455 1.7769487872477074
Ni 7.642469396020465 6.612106940846765 10.176596512030642 0.17414261688610655 -0.6518399574062709 0.7242756467691785
P 7.1198258067769205 8.658862532791453 4.655996085485726 -1.4555950877590158 1.0177835276901956 -1.9866806140923332
P 4.296326022451983 6.0995739472598975 5.487053655671578 0.6565743867674628 0.2777151368631346 -0.6319568453290987
P 2.343496936580241 4.097193666894606 1.9244433566712262 -0.26884894472175636 -0.45202076168966665 -0.6040842872885467
Ni 1.7823032229796791 8.173220013341014 5.758302385588556 0.9892933906703026 -0.7628668767788153 -0.7936067290648332
