# total energy = -340893.56315480854 ev
CRYSTAL
PRIMVEC
9.04523026757925 0.00000000000000 0.00000000000000

0.00000000000000 9.04523026757925 0.00000000000000

0.00000000000000 0.00000000000000 13.23860880249348

PRIMCOORD
 96 1
Ni 6.41153056222208 1.861535522335385 11.45514281215158 -0.02033331224071337 0.6013427199876676 -0.08773041073844891
Ni 4.773927805329654 0.5449796455273641 6.0578285918681685 -0.292091974410097 -1.6142406374507876 -1.1090692598800707
Ni 2.780585187706682 1.5555806089327893 4.749562668589593 -0.09033442402019926 -0.7133813684541778 0.2628634165622828
Ni 3.467498063793007 4.451311577795867 5.105681524467856 0.05400807878533924 -0.22420045277444614 -0.2723656996257632
Ni 4.895522835658437 4.5949498342580455 2.7340375282872857 1.1277629796348319 0.025589675543646252 -0.0647401204908627
Ni 7.254772152819478 6.237192794271699 2.694692585720586 0.4703462994717319 -0.39727529051767063 -1.0972321580358264
Ni 4.982293729502372 4.389957780970742 11.650385916269176 0.8533658514013368 0.32120200440217583 -0.19641711201359077
Ni 5.501390448652751 7.771734197629487 12.37651077003744 -0.136651561919184 0.15522186872220364 0.8640541843531184
Ni 1.8745606539037438 6.500056230735641 0.4297913517887673 0.8038510325006607 -0.559582862442062 -0.9307388301648616
Ni 3.03918832072014 1.8688621588425867 0.15247725546815183 -0.690935637856152 -0.3890685863371622 0.4160057770476384
Ni 0.6222847059085993 9.23798411255595 4.731955223373643 -0.6160748839915196 -0.6912768232456545 -0.3129726745138481
Ni 8.822536686906837 2.263071383851069 1.3706988160732168 -0.3887965636226981 0.37460638816524516 0.10413764845187871
Ni 7.0417931612163 0.6869336801159127 4.717710794766802 -1.1941624901059884 0.7041217975291229 -0.05627656310454178
Ni 0.7519589359018675 7.426568211067979 2.334152421293285 -0.18377088400448996 0.5247387581796834 0.7272247020951733
Ni 7.762037710795265 4.050019937497089 3.6383796492626446 0.9612868781550478 -0.18056394703141804 0.9721806422494159
Ni 7.687776370395108 3.8332419491864718 12.533745816620144 0.39482785741844256 -0.4808001478152042 0.6807481558001889
Ni 7.985138315054688 -0.24350302562441734 6.804817173744472 -0.47572813260893554 1.0067676361956661 1.2596045217598821
Ni 7.011518775550122 0.660214974463291 0.39957576011925156 -0.25299063753326106 0.7951398778799079 -0.7304918028822193
Ni 1.6418449698823994 6.511290406713352 9.167021567630085 0.016853838332545168 0.004127649015128376 -0.042864917684326174
Ni 0.19049254918724803 4.843214269089119 1.551564526699212 -0.1922663230700108 0.15319146855573618 -0.23260641744995425
Ni 6.250878227648733 1.9924380945973912 7.262661402648591 1.151850616711655 -0.013730976432847321 -1.544639589323198
Ni 3.481988522662806 4.375033151048664 0.5549691978218748 0.126738159460214 0.20209976422066483 -0.16980542296333337
Ni 6.100094239284467 5.70565888351959 4.78840469635407 -1.168488225268336 -0.4070269705877958 -0.4662582454452873
Ni 5.436825595086817 2.9243229417016754 9.245393965181504 -0.9189482652878367 0.12324223049181356 0.5236339551512789
P 0.13655493664885873 5.616002561224053 12.543435971793189 -0.018526083828645516 -0.780765611436107 0.22851167855529034
P 3.9236852065142633 6.154908334634644 12.517925708902743 0.02620262653729681 -0.025354419604388594 0.8403452707719528
P 2.567045391827644 8.34662189699767 1.403755514566081 -0.4088712228853862 0.764544264481238 -0.22638383357901015
P 6.181546537737989 7.8397543291531395 5.919525212210862 -0.05229932362434864 0.30660816574840105 -0.4083225494707678
P 4.877387148995549 1.072972348634327 12.726950125838082 -0.0052944156297199145 -0.7587469410731708 -2.048306100213614
P 4.059083258213405 5.76499559399767 8.26026979731458 -0.581096825254438 1.6514740678809494 -1.0174744810902088
P 4.918398222975368 1.05485475243195 3.7333672302709524 -0.36527019836598384 -1.0969220829945752 0.24789753928106983
P 0.1587329367130664 5.9465152747711585 3.792741930716106 0.27935730045224794 -1.4581844457527466 -0.2681691450459123
Ni 1.654544473161549 0.9850617557781605 2.4197004000066356 -0.22753594490558232 0.6090051216289318 0.29608232651641264
Ni 2.046085355244569 6.506487389447519 4.825207929218888 -0.8947050764697559 0.06998645649146656 0.6269275104353074
Ni 5.987770569967885 5.702999585824383 9.322323648507123 0.12227318171032492 -0.7057241090192362 -0.25480660769607727
Ni 8.577763710954505 2.2736723937108727 10.168429863526535 0.659534240726735 1.244354280469031 0.12891074163150057
Ni 2.1672552597513297 5.1591008453125875 7.08127920937499 0.4337474173017756 0.7845736723282875 -0.46334595689449876
Ni 0.3999764638195837 -0.04605831246255779 9.077435798130544 0.5385666652017111 -0.12056185544617301 0.16576724833821777
Ni 1.5242931574779606 1.0520326405921387 11.268385943059979 0.14170583651363983 0.18532383031390665 -0.7767397781061656
Ni 4.312422067217985 7.039622305954907 1.656202463867438 -0.3576355646388615 -0.5920031877542966 -0.27706876152838733
Ni 5.562952285773758 7.987689069986826 7.992810479357662 -0.4401939442580676 0.42726849444565124 1.0429877948699648
Ni 5.188760155321371 2.9039892640866265 4.7768611735016115 0.9328229663873999 0.023901489207945936 0.7153644603224777
Ni 0.7544101933011905 7.363423458652205 6.763579064485232 -0.6566705460256949 -0.6683914340070489 0.4198428914055415
Ni 5.290717990764803 4.440312577804807 7.044011956198049 -0.7766816711747205 -0.3767316620383641 0.0987100496784042
Ni 8.056749402989896 7.055605227816914 9.348403760903686 0.35531205871200744 -0.0075888680908514465 -0.31836890582875493
Ni 4.3790040071309635 0.28871470453503184 10.634971985844636 1.103991588246847 0.13061898257185892 -1.7814021950333707
Ni 7.927773464772375 7.415722979991269 4.84750170823037 1.5421394486091635 -0.38799669342922216 -0.9971514532621407
Ni 7.0872092623306955 6.08139774834572 6.883573089058737 0.9908072562116679 0.26595439678278066 1.2867792824024613
Ni 2.486796108998144 5.356223548277341 2.770748499803495 -0.7897086795620077 -0.2466397556145688 -1.5156532293931768
Ni 2.3505297151944453 5.09072794980896 11.336445873596757 -0.11921485449997533 -0.1545117300290565 1.2240034847268209
Ni 1.2827221930361832 3.523922210128717 3.752364927377219 -0.6802640170749188 -0.5572081915622984 -0.48744953481092185
Ni 3.691837864597476 2.5802242923103513 2.767994227190602 -0.6770462814685695 0.32916805332678795 -1.1252985772547393
Ni 0.9521371176470311 3.451053835187954 8.193123435033637 -1.348994322478625 -0.8198839175938073 -0.2074736269380685
Ni 3.7248620002614192 2.540723771783252 6.829811858510336 -1.1065860884469005 1.401765700643386 0.40154255043445686
Ni 4.265043151138079 6.820067431955758 6.228725554229241 -0.6876428260374932 -0.4455446670470198 -0.6279847480552281
Ni 0.6428933585234249 7.328481734174032 11.350809699242975 0.9249049970919038 0.6720395722825975 -0.2923475420643288
P -0.021183929259094722 5.558800525086344 7.865004089412218 0.8426448654394068 0.42666222832022005 1.334677905855953
P 8.282138450504037 1.6241434542717892 8.038337836804205 1.3015721244409195 0.22594674604159148 -0.24424451590951485
P 1.727186717345917 3.203214526178903 10.397364641300953 -1.3101639798749887 -0.40824978725130334 0.5067955434377014
P 4.0420601348719805 6.200867149564389 3.9191445009258494 1.2331051899177732 0.8645277815554272 -0.11786245423713894
P 6.92152777973512 3.9403374754152 10.454913109757461 -0.1959910802197657 0.6012828132840096 0.30171612776342227
P 6.122047013115306 7.693818584205985 10.199606963172243 0.27127015256873926 0.26056844988051897 0.6005112252253076
P 2.3174151272279446 8.48025612879693 5.800231288459156 1.5591331549536827 0.7671143392012595 -0.32546720743643304
P 7.056039398869193 3.9879425222515 1.533798789953786 0.33471032330125583 1.314277230712414 -0.552662481173145
Ni 5.388153211080332 2.7487459772062497 0.6475028078617829 -0.36122945263770695 1.4462061903449481 -0.9165093168290409
Ni 1.391635810546328 1.0831391874418514 7.04369446861607 -0.39506645579180993 0.36464670584937203 -0.9390666333042667
Ni 6.900126764949887 0.69196282813814 9.395123279697943 -1.094403944558412 -1.1965014226518105 -0.21194169001175114
Ni 2.523176025086991 1.6943615767476015 8.971871629384122 0.5141062181665017 -1.4469122152730371 0.5400440210781862
Ni 6.409649154328873 2.3582814775236702 2.6464905536874026 0.5600942548608419 -2.1419654748419887 1.3444154448586911
Ni 3.9057937410682815 6.560885404205929 10.300802285705108 0.46116051920740575 1.5270874393720475 -0.018145046340142943
Ni 8.278737443927856 7.383259648603185 0.3475005604905324 0.5726034430714462 -0.6347398073908745 0.14264686027067047
Ni 7.48930592812224 3.963221907962386 8.258496027661415 0.583518290211737 -0.4233223653137096 -0.06388959956510933
Ni 3.186788388034362 8.457516419933837 12.440347482567782 -0.9877293886172925 -0.5144052374641592 0.928432293518872
Ni 0.23194955301867795 5.009447510730299 10.328232850978862 -1.7308910736576966 -1.222801751109236 -0.08320578339521799
Ni 8.520878257875749 2.2793347078510067 5.866239760773917 0.3646770448666752 -0.007858833922786466 0.11123080785323425
Ni 3.722980592368212 2.583145901682976 10.975892141324072 -0.1617874377548633 -0.5313696332326396 1.0522643350758847
Ni 1.0605622927233627 3.0647863223440677 12.62624324573903 -0.2824508517759071 0.7874275968373149 -0.5931455288888559
Ni 2.8669128652680826 8.079859966293476 7.883538670729388 0.8808190625162831 0.7725928458173275 0.518767628197913
Ni 5.784533291350207 7.931717185163906 3.5536665453019047 -0.9404311177519609 0.5685544698130531 0.3696315606584731
Ni 3.1957974373691433 8.294548506415003 3.5467957883995958 0.3256793234472391 0.6153246360890564 0.4974783798018336
Ni 3.130807457981186 4.072036027939717 9.090568567938947 1.1865581953961692 0.2259151214727077 -0.26290301155096657
Ni 7.077440413654426 6.036280139829765 11.797811410639461 0.4173782319151328 -0.11760945768606841 -1.359047335839253
Ni 0.8586582810453914 9.211210230998768 0.07229400281951946 -0.06283313327613696 -0.5041344516657704 1.3182560128545038
Ni 4.886767052770819 0.4011369668614035 1.5110681263209487 -0.9331844634918767 -0.44329932265626876 1.2290325625102962
Ni 5.799376514199983 5.4930597915871555 0.6188357596120609 0.45842717943664274 0.4325932490926743 -0.8121022167658596
Ni 7.695799489632007 8.573539588425044 11.580406587872117 0.0636044642245227 0.3325660232647434 -1.229689736478321
Ni -0.008884225157251424 4.629303618769592 5.823492002584984 0.2769602609749811 1.288088231021872 -0.43782030181956855
Ni 7.904328227949329 9.047943824881491 2.44668051281365 0.9047542331756417 -0.38960774667008385 0.8181623069170103
P 8.642943640177833 1.7406460199665545 3.597935711219865 0.034571310216966265 0.6940669843962821 -0.5745615952390815
P 1.8711867830183286 3.25037635673267 1.4644282055529425 -0.11598014961276155 -0.03239718538378292 1.143306840906702
P 4.477533700307444 1.074772349455232 8.190753584706616 0.5032271093601527 -0.7209542957054293 1.2216038741463928
P 8.494529502140589 1.4940006813512707 12.241794728699587 0.24221874372873767 0.1522419601582733 0.5285313924528963
P 6.47453059095376 7.787635712419193 1.3261510570633785 -1.26735768334274 -0.7481851063969244 0.37634111146816474
P 1.7546661268630517 3.2311371519785728 5.868542676397045 0.224861997617845 -0.6953620490586219 1.0717229580211285
P 6.948989098791743 3.8632811588659997 5.808082548321194 -0.371540861866044 -0.0051982563714878215 -0.02433806252473228
P 2.4222131649716983 8.418450070459016 10.168085240253788 -1.1030605917921454 -0.4668879086094862 -0.3151362578240702
