# total energy = -381164.382903372 ev
CRYSTAL
PRIMVEC
9.31961577316329 0.00000000000000 0.00000000000000
0.00000000000000 9.31961577316329 0.00000000000000
0.00000000000000 0.00000000000000 13.64019972522589
PRIMCOORD
 96 1
Ni 6.406238469516953 2.7382521529308463 0.6561820130968432 -0.9147342272064891 -3.5845168420431683 1.122880197621234
Ni 6.808109610253098 5.499085734260933 5.416687285623273 2.1420996864270077 -1.0037139369710069 0.5100333336487086
Ni 1.3900206544559714 3.642469209298809 7.971168736046436 -0.6031507197306838 -0.6264037767213534 -0.061218994711481664
Ni 2.2444616443442205 6.012829539670825 3.2732931437216486 -2.147345251096663 -0.09466827550886275 1.6589410656819559
Ni 2.19522611556453 5.68069708185318 11.368888066544093 0.510217938855689 1.865216044326233 0.5812384930386248
Ni 3.358258214472867 3.9095041527257415 2.6222052324667477 -0.9795034011630743 -0.4631708647692152 -0.5012275624316206
Ni 4.556043159646483 7.150139499750477 9.963006358438651 1.0112467550129423 -1.700686267939542 -2.182967885396279
Ni 3.089377987173442 8.110479280765666 11.181716636334023 -0.3516050421740654 0.1940668666138593 1.082081418437317
Ni 6.753776251785258 9.053456618071493 13.629164166460198 0.2308629523962863 0.5078928902669382 0.6354879984108087
Ni 5.353252390640907 2.8391090320627437 3.301773888743556 0.26743612353462975 -0.6197633885867004 0.04571807086240513
Ni 4.604290809181304 0.29914754261606363 9.510151329051707 -1.3899267990269288 0.14870103688455036 0.3414512415695152
Ni 3.948954085211911 0.7094753024729145 1.547358131470973 2.7214569032825198 -0.21263640208593054 0.8682671939932014
Ni -0.177931963385882 2.4079183809081046 9.744108161121881 0.8540597921445677 -1.0097094924328094 -0.12692944953541366
Ni 1.9923194465144767 0.6543879871096976 6.382221820327995 -0.9992589865234468 -0.36404198238583757 -0.13049068452411075
Ni 7.866351952281094 7.779316062961856 9.463584006194717 -0.4393249113895531 1.7468388552362044 -2.0451737252322197
Ni 0.4120835754203741 4.7788192489801435 9.746317841961112 2.7590549161409514 -1.4031291566498159 1.4913956423973926
Ni 4.1017119031615445 0.7307510527381341 3.9385254354476715 0.8360296741157344 -1.720598690592753 -1.6168626484546669
Ni 8.158969240303946 7.287939334794299 12.19410647001523 -1.2733743218504652 1.3562867423749803 -0.18682561167041373
Ni 1.292108773827648 6.174403713900147 8.008570217041829 1.2539059287132082 -0.18370506376356105 0.6582761999499179
Ni 9.047958044916086 6.251309181151709 0.28614015523809383 1.0830782351329475 0.2810945948583288 0.3920855187866151
Ni 0.33888265533707257 1.2195648866383402 12.88987914179256 -0.20033907277581625 -0.5343464564727765 -0.7435926019302356
Ni 7.268750246443479 3.1461064868293156 5.173059488530445 -0.3038953948029282 -0.26354193068654613 -0.1869924762655812
Ni 8.583515005594508 6.9483232257159875 4.857793670876624 2.192758903344772 0.46142791393617955 0.43276037079815793
Ni 8.563459193000549 5.118565832675701 11.644760801366404 0.011319281667561151 0.6406101501287225 0.6271236856065135
P 0.24570327546860662 9.275021157387862 0.9213288024199017 0.3453585470437213 -0.19060847575161366 0.5424284621499625
Ni 3.677715995186523 3.5198044298556344 7.423692582270447 -0.26382320937239084 -1.6082911047355721 -1.8823210794376355
P 6.058346541858978 0.14340931162388898 2.206438544993802 -0.23092594442373776 -0.6141753529759615 -0.07216649486192088
Ni 4.9547549507221476 4.387889336861709 5.55353931576895 -1.9849093811245235 -1.302220556658196 -2.167855455234873
P 6.509164303293766 6.02825350335252 13.187576552234077 1.34894418596698 2.583664800000989 -0.26684682669006304
P 1.2428639254324396 3.148855773407019 4.138872938076581 1.6690017923520675 -1.5168665329749877 -1.5753586156736095
P 4.633218895748058 4.829303606239198 10.751287397767175 0.10372807171828587 -0.5021611299894836 0.5317848663931873
Ni 7.915857749910796 3.3690316900112585 7.482985840116775 0.04369307001257637 0.09271629398881452 1.2304746942734615
Ni -0.051209423346327 9.282206580951962 5.031597044588191 0.9685209340096416 -1.3233804785652628 1.919090425747185
Ni 3.805907306631658 6.736292653074166 7.336994994994499 0.3463407084513326 -0.8188745024926865 -0.4111515342791306
Ni 0.23392980518517228 2.5105459869883533 5.8983492465752425 1.0410137018627297 0.5801604294830975 0.3720625386974689
Ni 0.17816402181227123 8.15031131748806 7.440032664157524 -0.06281333578179504 0.5070097163310365 -0.14142610048969192
Ni 5.446616298896621 7.221947137313892 1.4489579029895254 1.9059472034970077 1.0398772742654414 -1.1809351927824372
Ni 0.5737006198810759 7.1635038284027726 10.387066571760744 0.5080556410970475 -0.689492220541406 0.030552418865560288
Ni 5.601554906877382 4.847206587648585 0.992354524241386 -2.138495514015517 -0.04002590557363429 1.568867094411995
Ni 6.759834001871724 6.18746049524036 10.453070884741324 -1.7750292016274916 -1.4975773457280723 1.1147593682863122
Ni 2.4864081827976667 0.22012559068044427 13.722176725210897 -3.0493730864800774 -0.1300659382818663 -1.1783324650522673
Ni 2.4927548409651794 8.157431503743537 8.595698538960718 -0.22050346353883316 0.43270586341113865 0.34232284554119113
Ni 6.030918913390564 8.487112902680042 11.361344769744116 -0.12822554263901786 -0.1814859446250552 -0.7289609680599897
Ni 5.085695548744987 5.396271735870331 3.259967025492976 0.5130741773575616 -0.3547178767714343 1.0336091818685427
Ni 4.206007720419451 2.8227624264448035 9.46950382597152 0.8024598085800889 -0.3415458581658505 1.8847898526931022
Ni 8.15366637907441 3.0020531897731577 12.550006743287515 1.0761671098354113 -2.2526782054082233 -0.6768663042472794
Ni 8.212668864916587 9.32912152546776 11.087272584639813 2.457034369763233 0.5843253594940646 0.3230071759317147
Ni 3.827081473087736 7.137455503030969 13.340469504608718 -0.35461220443150543 -0.17253310630714155 -0.4956305279598173
Ni 6.805034137132277 1.0946540798554143 9.465411582797724 1.1160035251060585 1.3502382221880553 1.257360462920712
Ni 2.078721601978515 2.563807589671665 0.2512866571252246 -0.7364552195545058 0.198413059397697 -0.12126710904331374
Ni 7.37819981108264 3.788414388305048 10.142920604045136 -1.3627453535161305 -0.4422387426022384 -0.6192478824028627
Ni 8.812880063099142 1.589600220766227 3.6913244977653807 -0.25361567271176966 1.6442325558271875 -0.4140558524101192
Ni 4.415960018800839 9.358664706658677 12.794002665193288 1.5093231734100907 1.071330093458084 -0.8553044631849462
Ni 5.743427413902412 7.309076222788305 4.795471537987063 -0.38797535327298344 0.3906804109089723 1.1240960723062061
Ni 2.2620011607484187 7.865252237650012 1.6546241101943515 -1.0361586877632736 0.03487367194873349 0.0867086543421539
Ni 7.84097463922656 4.4420922207123015 0.6374514498294908 0.9999063902994587 0.5251804737027923 0.9008039902786422
P 3.5890957712292866 6.049157400958586 1.6847833179709855 0.5202377849855363 -0.3212295152060017 -1.5917481127752264
Ni 6.834204533702489 9.248888955476401 4.305297040221282 0.07382639906284705 0.7774743422793449 -0.22491907610802556
P 3.9574349353329628 1.0001438588910294 7.063918144827482 0.5219126015847978 1.1654761779148897 1.700014695793814
Ni 4.163463675581425 7.576045928906614 3.2730610852952595 -1.578680738068307 1.8488432593951643 0.43184171563863044
P 0.1410262859360285 6.496060923875965 2.3652923234535237 0.3823250969657416 -0.7725889891625856 0.8439489289628112
P 4.092718474187022 2.788671272881277 0.8914883254939708 1.2559124176202756 0.3384358517819591 0.2322302650574581
P 6.12633313706016 6.999599750294042 8.076635097013359 -0.5224296504305325 -0.25678918534374484 1.1251363406452624
Ni 3.0859483686629505 4.784317822135551 13.567170084036857 -0.07794093545185286 -0.040595147813542995 0.13960293123802409
Ni 1.3960504456958844 7.602485678130159 12.855478576993848 -0.6722162070697777 0.1750335041314921 -0.373082495321551
Ni 2.0489547500151737 8.840792311574472 3.9669381472763003 -0.16784907056791093 -0.4806988463506495 0.15362289966619994
Ni 2.2636320934640057 1.3211020977030252 8.919954057742856 0.3911031002686877 0.9723755318690415 -1.091310907455385
Ni 7.354695740747152 4.102252440861568 2.964711354317078 0.19205009329414666 -0.3110772572633482 -0.2938187272932166
Ni 3.3305789563854766 4.961548950434507 9.068236596320919 -1.0184957232658718 1.5197286850141312 0.6845130221592598
Ni 7.8965754654047995 1.1233118975721565 6.475221331616971 -1.00172133202101 -0.9522731046922116 1.0367744669704018
Ni 6.190256379895652 4.077452943969128 12.486947428810508 -1.5867719997168737 1.095389705510449 -3.0331977622717954
Ni 5.515730567575438 4.985602878085536 7.509707041728951 1.6825875014563023 0.353205811002282 2.449687956700491
Ni 5.814685194150287 2.3055703632933846 7.6399440087802075 -0.21425156909185036 0.6464049024336287 0.4383923722729547
Ni -0.1731948028182657 5.140084824905932 6.657863428685468 0.1289130556243457 0.26916981839628484 -0.8116422464103055
Ni 8.254476660128718 5.578330425007425 8.601250233924578 -3.3182487706747112 1.5757424813755896 -1.0873652925440755
Ni 4.008562346062734 8.610197064821511 5.843843475220326 -0.26454980312577014 -0.8553641127782882 -0.4251668747216162
Ni 2.2843402791442013 1.6148377395879956 2.8569393204710924 -1.9043564619711202 1.29531405934635 0.005677767111067641
Ni 4.105551584754812 2.7609640559473343 12.277216005316888 0.7792417185924128 -0.7787987175177233 -0.04833313988774902
Ni 5.452385140902041 1.4811758138340059 5.519806967402854 1.75049650659345 0.21253921438643397 0.6101973421648201
Ni 2.2835015137476136 3.5424417759479816 11.091541900508444 -0.8497830191460849 -2.242227956609177 -0.9211432160566265
Ni 6.1739656919708175 9.235785576058598 7.702293168554769 -1.6325093538529887 -0.659530126961677 -0.9449773423617468
Ni 0.9035963699744884 4.426929206265101 1.4737965422671389 0.4477761274806998 1.152105155924622 0.35121397738323384
Ni 3.506020718505045 2.5748420144445507 5.088312496782339 -1.5214621227654699 -0.03798650654610232 -0.2675399961023457
Ni 9.265216921863304 4.688279184226274 4.518506544226085 -0.9903547420552814 0.5320525182322773 -2.225944388957805
Ni 2.1342292320015774 4.363555820745152 5.747461875459999 -0.11541862068233671 1.6608277411817074 -0.10514526378078666
Ni 1.320076939996085 -0.012899279837965204 10.51139676649692 -2.5618034811515233 0.5598394585375585 0.6584001271222919
Ni 7.24015766603536 6.502743088202113 3.1937166746627295 -0.11511471628867273 -0.581188870747612 -1.8197309154102403
Ni 7.371694719451328 7.7301923695683765 6.523316139457302 0.13464121635737458 0.14451990892366723 0.1373521875306344
P 6.827466451683235 1.3736088115294076 11.750459220759714 -1.0570769259731794 0.7039585324783811 0.6802997554088606
Ni 8.661352434397836 8.414699490107981 2.9924418702898157 0.7243964886177588 0.9978613348449717 -2.0602416753089354
P 3.6502044901784503 6.173182844267336 5.0345289956300405 0.08030326503644235 0.3390457174518161 1.090173194306516
Ni 9.229550753277298 2.4101271297857854 1.53637776046809 -0.7761319693188375 -1.2387911845589568 -0.7424895986740438
P 9.379261056952663 0.5575916644588356 8.646713182342728 -0.0005314470234377943 0.25607776109901703 0.38802111890925434
P 2.9739731882185088 1.0828834054566352 11.167395183168066 1.614324969634478 1.0094354128358163 0.20283895637953456
P 0.8074645359100342 4.188785070942853 12.744256421483232 1.2793914745788222 -0.25439034609426514 0.9196506906715
Ni 1.5909329257852496 7.212515686410041 5.794084184048544 0.9482781246002057 -0.29129801775389186 -0.3522437041993288
