# total energy = -340863.6775519211 ev
CRYSTAL
PRIMVEC
9.36379015367447 0.00000000000000 0.00000000000000
0.00000000000000 9.36379015367447 0.00000000000000
0.00000000000000 0.00000000000000 13.70485339631891
PRIMCOORD
 96 1
Ni 6.574485628432742 6.31943471171041 4.872088646789921 -0.459195425061235 0.6393263983202925 0.9207472661697885
Ni 1.6369309790298352 6.082399727280233 3.637637715234546 0.5943480338373892 0.9460803456179383 0.2429327390766268
Ni 4.441901144194623 8.754478982314932 11.829933463164595 0.25775360613954323 1.137632416229744 -0.5189617464865901
Ni 7.673298313821376 2.428892260461099 9.148798486653938 0.7680479067591224 -0.7601317372358393 -1.0132427023970485
Ni 0.3436052167639946 2.703719502028045 7.739404799682171 -0.5042540079627703 -0.19745300947727285 -0.8137538934366696
Ni 2.22069774976265 2.8339979146999674 3.2305628559223716 0.09607852559282808 -0.5524475369488614 0.3985708694006426
Ni 7.926420289768147 6.54953112762266 3.2155152451149416 1.2486495654102754 -0.548197760533572 -1.7148710440803565
Ni 1.5971067794256026 9.07055371959235 7.624640314568277 1.7241691815528308 -0.9099154656616071 0.21255309834350491
Ni 3.923886908054077 8.263395006710896 7.005605764529236 0.06656971750043375 -0.7720194898123607 -1.8553178113759143
Ni 9.216244930888436 4.048556410412588 12.186890508335756 1.3524419147075935 -1.007811504079148 2.2801866952411376
Ni 8.223477169204937 5.778582191338797 -0.03684464157129877 0.6379459730329982 0.44272365265845687 1.050067841645198
Ni 1.0482575822465579 9.303140903690524 5.25571563913079 -1.8714021185322867 -1.5475436503438702 -0.06803318941983766
Ni 6.59470205141547 0.5669082029059961 13.240094044551501 0.5453181249929319 0.3705221907935425 -0.824957732572289
Ni 7.55560483514148 6.965901421439213 9.423813940403353 -0.012663968620913674 0.5110707737742876 0.9157495558448809
Ni 8.006864611141285 8.148117385895539 1.0306405474157554 -0.16852475647869686 -0.21727441507857423 0.812741393011755
Ni 6.479003060042346 7.412207752437691 13.000999962662362 -0.22605087571962357 -0.16620022211057828 1.0578703684087523
Ni 5.987020160581735 1.332692072530631 10.508429247132232 -0.2770083406040971 -2.4068163541479453 -1.0220124781698785
Ni 3.3642974435470148 2.833557816561853 7.62343425839404 -0.6395984210347565 -1.1536676153157357 -1.7082026309212452
Ni 6.892957495994358 2.3590664771437324 4.323099929137303 0.38808848181208006 -2.769187633699579 -0.5536099326880788
Ni 6.028595388948251 0.9381394098163266 1.9431840367951738 -1.0852137934187116 -1.7363433550215195 -0.13026776988002725
Ni 2.839887738718557 1.420299693385839 0.8057429078073534 -1.3633487914280844 0.6987726174020675 0.2087424663481631
Ni 0.6241677798116817 5.004449566396238 7.496102630489448 1.3312400838189977 0.8653785595914967 -1.357837374691552
Ni 5.273686625230119 3.9240086373263208 4.833811345322208 -0.9083414363062678 0.1800147593961674 0.6582173216875244
Ni 7.065223143800392 2.1192691746126275 6.703537384592049 1.3190330002298445 -1.15803129160107 -0.53903229198422
P 2.4262329440520696 5.687116688932463 10.468904688813526 -0.3325164009737306 0.4183555082267376 1.182438773911157
P 6.047004600427658 7.575315613454885 10.953604432277857 0.5051299828098204 -0.2126870528182079 -1.68629014711887
P 5.940519578584412 7.907327521606136 1.8016812488433096 3.049344290124671 0.8170744731694702 -1.9368598339154646
P 4.695847133676584 1.8307239804427657 6.062835024093522 1.7891831245303702 0.6969509908122964 -0.45737199869925105
P 0.7188965630931812 0.5447628391477055 1.2564155741633334 0.9901158865715981 -0.02986284899770341 2.4295670175808994
P 8.27959436370956 9.385139614232322 11.781541395552399 -1.535872641763845 0.21346635418639368 2.088050469991088
P 3.2122575825138804 8.380114651212835 4.7750310888924865 -0.45450676133631396 -0.33718758119715475 1.1621941647295082
P 7.592835264867892 2.1652547481504563 2.043585404163258 2.2837289040664412 2.770003187622339 0.270415774988244
Ni 2.3822699491915307 4.514451790452227 5.38064920037217 -0.5645610323829439 -2.1154468597261697 -1.4358263897725208
Ni 2.2489857598741914 4.713376148879764 1.7389953555325797 -0.14977292979249043 0.13477954170745174 -0.4238689818457991
Ni 5.995634847540563 6.973795096554747 7.574178849327927 -0.4002382298007365 -1.1664997340833974 0.4823944888855176
Ni 2.041072162880922 8.878455564200669 11.433643817373268 1.1980872790816914 -2.21295311890446 -0.808292356101466
Ni 9.383360494099518 3.872226877671629 1.489101078058319 -0.6510611702587176 1.631231001361197 0.43306581785371867
Ni 1.2272277038162014 7.464635613614296 9.368377493444282 0.49801265503874875 -1.7064848768991903 0.23909433916714307
Ni 5.003981376887606 2.3826070456377457 14.000740938887425 -0.18437637879897278 -0.34603911805051374 -1.2058723223437489
Ni 4.403537695857322 7.68416967421181 2.9750362586592685 -2.3494231609404572 -1.3569166626494953 1.9494435841177458
Ni 6.856345076419339 8.673397923210054 3.9582904095273688 1.945604412877314 -0.8941587170479827 -2.670471413373588
Ni 2.5022294650932055 0.11536002216887432 3.000307255577186 -0.5381848563822602 0.8903848518278472 -0.11937246312376215
Ni 3.3906003301419574 4.750709580298075 13.128660259602013 0.08156053448231115 -0.9565002553996819 -0.13148338745468324
Ni 4.953201542781387 0.3805275777937262 4.041150588765048 -1.4572434219957162 1.2604411587285649 2.2719833334947386
Ni 5.152893732003079 0.953599027391353 8.01672280943504 1.0832260735647217 -0.3263205565756638 0.1119687144605233
Ni 0.4375839604526657 8.81178537817148 13.207504309234649 0.09371182513286443 -1.133227859404145 -0.007173120709671518
Ni 7.300507099468285 5.2126815322553774 11.580175897026855 -1.5003330540963387 0.3710194421449352 -0.9246746262486527
Ni 2.1584285451146026 7.4461795831840245 1.7472729460451926 0.10703528171464792 0.1090350857534961 -1.790323923003033
Ni 1.319685767980836 1.4266577069130604 12.127561533801916 -0.6989608221534737 1.2933222257273018 0.8634080661286871
Ni 7.759801007436212 2.2729664265063194 11.472099967233275 1.5323823692223995 -0.35680149877334033 1.285225050541464
Ni 8.951783405042601 7.2529015902305884 7.525019887300591 0.32749992159574565 0.0067031230517884555 -1.076536834470004
Ni 1.9951614996644742 4.1103012428109675 9.077546598093278 0.2829609586431062 -0.4794292356096066 -0.11153445513658211
Ni 4.167860461002178 6.043942641041206 1.1561040991809068 0.1897741527757764 3.6903115664824964 -0.7360057907219131
Ni 4.234128004053942 6.150811578281531 5.28031525229333 -0.5376307836510031 1.2334895698403854 1.153438530024065
Ni 4.867466679960707 4.160313246123032 1.8178525144714566 0.9974504725597984 -2.534372124413448 1.5148502738759073
Ni 0.06076537994632161 -0.06644170954897519 10.102463996955516 -0.6236483254634033 0.5730271608724259 -1.2846640358316714
P 3.166768289855202 4.897842815280747 7.240246427812268 0.0003684390830122687 1.8628043495609468 1.3350370889675847
P 2.8936452580996757 7.675096161534523 13.325160332753855 0.9428250719054342 0.5737812654296311 -0.5073655570085585
P 4.103915137913229 1.8115563019593743 2.7415323595031946 -0.7658115612294359 1.025438730242608 -1.8321236326476382
P 0.672064502923746 2.9363160499163907 5.542215781526948 0.9935863616187017 -0.08080025927751891 -0.5276320205670785
P 0.34399006854008995 2.386858206376124 10.347000313692995 -1.7039042606562074 2.018145260359518 0.6489973457511533
P 4.400653648484149 1.7010635779222376 11.857343149757943 -0.7517116314929441 -0.35814412884416386 1.2177793581939802
P 6.362470691343856 4.066104153196113 9.512716573439437 2.6015851319248355 1.1434081423712565 3.1476825582859536
P -0.3164858076659983 7.349048987723243 5.107895101949447 -0.23945172250656183 -0.7632252885594984 0.9314312282461958
Ni -0.04130086931445753 4.9109427577322675 10.22308085092731 0.4537626840814379 1.142528825090097 -2.2455349094952233
Ni 8.916837740118314 0.35496162148537075 7.2269938555809325 -1.7623127825020877 0.4672404068528985 1.1571571165262329
Ni 1.685163862209097 1.459253060504016 9.211621091301188 2.5845693140931294 -0.8407059965454812 -0.5896696545251136
Ni 8.762035560984252 7.127642169091201 11.588906694983823 -0.2947165565171376 0.9693364879324016 -0.41555531977378113
Ni 0.29615327368513067 8.052719091616696 3.196164036344166 0.47088700246655024 2.101421749091671 -1.0046593316034116
Ni 1.3782750030910362 6.3745687082469065 12.674522990882158 0.1020545406706049 -0.844970171138474 -0.43915676124280495
Ni 2.1969886330455286 3.4310706312681014 11.361707435750986 0.3342156430530244 0.8834541861462849 -0.2233591878200734
Ni 6.445040593086184 8.618966210936504 6.104059110328564 -0.48432178781521745 0.7790455434212066 1.9720723772608553
Ni 5.727605717638952 3.343669013796692 7.7657048771400605 -2.1686077600198654 0.9620618086478593 -1.2773474475656001
Ni 3.858892840465791 6.992569495850887 9.431625214165368 -0.20904894184498835 1.8315901287416714 -0.3126957667033776
Ni 4.472361553626216 6.366759307242925 11.695708212934907 -0.5971888457202941 -1.3900121596518833 0.5664945019602309
Ni 2.7820007878713042 1.2457680083580258 5.466633140011443 0.4548291776727393 1.01362116878239 -0.29169011098598796
Ni 7.118437563351497 4.271723621597086 3.348136478088058 0.6951532754819254 0.9843327042309177 -1.8397508101755926
Ni 5.586615129009531 3.5188468003464166 11.446402917862505 -0.766033704542571 0.854945794293947 1.2554195371442571
Ni 7.8818861037070755 4.879199509047022 8.060783187713373 -1.5857114196628432 -0.32458711882432484 0.7399704317966159
Ni 4.447968880226492 9.110181279602958 0.43874132491800377 0.017243360461479982 -1.0761925637567078 0.7914434028649272
Ni 4.456068558725825 4.733358477108174 9.283639874276986 -2.075803534302935 0.8810607462134439 -0.3292719258945039
Ni 0.0006947932308097919 1.319058394039269 3.4893649069878636 -0.40538043612330826 0.3616269451864418 -0.28188855151453385
Ni 7.283090449747176 3.476447558444709 13.586237784831297 -2.1405624238468746 1.1196856019433363 0.616281600685687
Ni 3.9367995747021456 2.4575173670188555 9.776164937188591 -0.07752467385004068 -0.7700497676804996 1.1580564884120508
Ni 0.2604762967483599 4.36414423060103 3.778524365793051 -0.38368726742059084 -0.9699828632671488 0.2240395017165496
Ni 9.009099164689323 2.1589810087347883 0.18678514084772782 0.7538777859063275 -2.952076372209432 -0.8317505871244063
Ni 8.207259084625926 4.1867004068295275 5.629775647052275 -0.5067649473100821 0.03359789056010343 0.27826843826344333
Ni 1.6774387353166702 6.662205614770021 6.0139775761097445 0.22077831446677462 1.6798886144679004 0.5974912074520613
P 3.693809219722171 5.228131786040231 3.428762456990546 0.157254068660884 -0.3359233697727505 -0.6184757801235284
P 7.003300399388732 9.035196047900467 8.575866557529883 0.5262042869816164 -0.04669611850495829 -0.7617957552018235
P 6.324210244698455 5.066091397102719 6.497649175413121 -0.23164071110257528 -0.21145600862458422 0.43171984534878555
P 1.628278836910317 3.4547516566147047 -0.1498047243189258 -0.12974840704144752 -0.3029780251949814 0.44161782118878784
P 3.592052911916106 9.142879634885814 8.828913623155271 -2.0121417344779156 0.3638717753565604 1.8530884078247636
P 7.931476736461371 0.6747874931059493 5.395546054157821 0.7934732888107625 -0.27928839488752544 -1.9305225788435267
P 0.22096765687294542 6.371188379994583 1.6120747980165657 -0.17007693145716515 -0.8177409031088756 0.15615209384595688
P 5.798461517875309 5.215790310592693 13.492538082089771 -0.4310765553378318 -0.521246942976341 -0.5291492285425532
