# total energy = -340862.30913278786 ev
CRYSTAL
PRIMVEC
9.27393004242369 0.00000000000000 0.00000000000000
0.00000000000000 9.27393004242369 0.00000000000000
0.00000000000000 0.00000000000000 13.57333404030150
PRIMCOORD
 96 1
Ni 4.233651086401742 6.995603663450444 6.799181824743406 -0.7990178727780755 0.4550117259971906 -0.13956230780807577
Ni 5.12017388279088 3.808682515253898 10.769707403076248 0.6816279873019809 -1.0232226964278959 1.879564342628105
Ni 5.864582974914358 1.9089364899725265 6.646359513435489 -0.9807372735701755 0.5591074654675403 -0.29163611781960097
Ni 1.6778208789046272 0.6508258638707533 5.415855522341417 0.008966722274984558 -0.5620706618609222 -0.012494532922584935
Ni 6.679640866247952 7.587790467541 1.8189357809026403 -1.589017601217941 1.0291688867090019 1.4852404214292743
Ni 8.218426985667408 5.131951773969253 6.62943366367986 2.2191885582912105 1.7509482494188877 0.7202991786199338
Ni 4.915173658776759 5.263669402635734 1.0525215075287335 0.8828090963631183 0.13852152524838723 0.17143241704379505
Ni 8.49080231157986 4.053217503121093 3.308812120569639 -0.1999919738490427 0.25151919519405713 1.0043675113946058
Ni 1.4981013882387302 4.535879193182841 10.231348343849874 0.19840148943347122 -0.017801804068111278 0.7254591255543184
Ni 8.291384993462888 7.841923973022065 6.620407347550797 0.36893787702555814 0.6344001646632688 -0.29371408339455224
Ni 0.6248412392308452 8.693076000155838 13.359879900984883 0.6156863903038494 -2.032257531391184 -1.718419680663563
Ni 2.430928917425991 2.492915865958467 6.369857288645576 1.3080335637955471 0.9169924271130465 -1.4586179337457394
Ni 6.74414104982715 7.643610252582438 10.204785025974116 1.045069359989342 -0.10624003950686219 1.0581750441333648
Ni 0.6276197086773339 2.286506004574966 10.396549497004164 0.15250421268072445 0.3038455154015993 -1.1812812632679464
Ni 4.309326355705303 8.458899992167574 10.646393809831688 -2.6977310204204894 -2.004479075726335 1.3301530214024058
Ni 7.6617036901328355 5.481105966862609 11.449311199321496 0.793074510710447 0.05872219643155693 0.43592874122381053
Ni 1.9017955638250092 8.350543393326543 7.250413238433009 0.8541299832608709 0.321812127182349 -0.28524795490507
Ni 0.14565912772825118 5.583267580422417 1.2520139444792047 -0.9306442135685262 -1.0489848929936643 -1.3299056812782903
Ni 2.131705563984886 0.34041258641718797 9.28859863688959 0.04758417753686644 -0.5430984916337936 0.4976334173224591
Ni 1.0652221547482468 6.951756522118675 5.641253755526272 0.40641067716003554 -0.21733380756159992 0.0490317086166704
Ni 5.877186245868224 0.6610531539428082 10.749265806434222 1.2767658640305173 2.031693431357598 -1.0735057609531642
Ni 0.26008365900865976 3.790728186654425 8.276666339061947 -1.0244930784998871 1.0451405795469095 -0.09096640117724335
Ni 7.517327146932119 2.464157408837101 8.244171415518718 0.26421118883942885 2.3430308842608683 1.2031384683523538
Ni 2.6185034268541574 5.751237001700127 8.4726244812659 -0.8224987295088352 -1.28736446548197 0.1123690352227355
P 6.040463058534707 1.0975047052930627 1.9896883085918688 -0.3730331301408543 1.4467497215532439 -0.1570373246643876
P 0.08344311312325073 0.6767835941134823 1.5327691935954184 1.0756698584840183 -0.7560511394085624 4.10024285520128
P 2.352564208404533 2.659067596944081 1.7719985660743085 0.0177354696065501 0.03424169479168942 0.29751700208041015
P 7.367831394337339 5.553804304616362 2.155879917476748 -0.3989333949463839 -0.43163936981983725 -0.21621820589991794
P 9.119648961204357 4.264950600360017 12.901359178266775 -0.5032399648759592 1.4824718575452016 -0.8971136859112485
P 1.7971114412884157 0.6578972355428079 11.343289776070003 0.21101069355704952 0.2594770165885531 1.9394106253617762
P 8.07096222375614 3.5191596926573427 10.324108974506126 1.599225137878562 1.8140204952890242 -4.9300062366923285
P 1.6547195191209052 7.032207865404017 0.9532700532222903 1.5828232994817708 0.691041567306397 -0.325001323543608
Ni 9.0590623761112 7.705773405786085 1.938706732863625 -0.4283702121502623 1.6290645898374976 0.48978512492263393
Ni 0.03413733655715812 3.3364910922318214 1.1552237912111396 1.487408889835503 -2.0905536960289153 1.104960894138652
Ni 6.332239446136257 4.357717722767311 7.925402327079551 -1.2012903594000215 0.6419910896366492 -0.5732834998576062
Ni 5.224681800656301 8.640010572342726 8.657506768797152 0.20560366360886528 -0.6575791738828933 0.3785216640592513
Ni 3.3428437343240933 3.877764020283583 4.56001552356145 -1.3718267469921084 0.18995027334232448 0.4904600395024714
Ni 6.350944963070729 2.4215622480636627 4.256258145713175 0.27711786959876794 -0.8702119764243981 -1.306701218137369
Ni 8.443291967873714 7.044922423518623 4.264877336312529 -2.576588609880498 -0.3924359601474983 -0.3495623007124238
Ni 4.397493608801989 2.544219247059852 0.4833359047772344 -0.6401884892102716 -1.083677045059211 -5.146566913533331
Ni 8.124797387764374 5.537584200938429 9.089084869899976 0.9142565162391223 0.17550170201716228 0.7315492976124562
Ni 0.2414439869776269 8.174004860671811 8.816097464603452 -1.7918236474770108 -0.6403288714428779 1.258144392274588
Ni 1.9764877965420296 5.078663771834662 6.386864748985748 0.6491423559694498 -2.0680778835239026 -0.018534568469077757
Ni 7.633622229905975 2.7015051009064703 11.990086117328943 0.12651318793360147 0.8597622418459837 1.6015072490445192
Ni 0.2921788761662292 1.7058095998308709 3.588083540875979 0.5538547017090333 -0.2955832753928071 -0.9542765082754856
Ni 6.266635664879715 4.26020234816842 12.983056937752412 0.0950490558870492 -1.5855841500563597 0.9391519939292213
Ni 7.338006435258876 6.457418954109232 0.06245435460758643 0.12304862642376872 -3.075743091833174 -0.34967671480310103
Ni 3.159247740892401 2.3503570130498463 10.437079353552859 0.06297274417779478 0.012354150689978723 -0.28950030242352076
Ni 3.652500259084623 5.859964557743626 10.837520234473489 -0.3053123297551129 -1.6503736357279188 -1.3186537625135548
Ni 1.5713839835863705 2.9999216224322067 12.46885832112281 0.45585453361346007 0.3722977946367265 0.16364146024446657
Ni 5.339112823687753 4.588184158730891 3.921295847993254 2.764197893794472 0.8618373792074575 0.6074580888567861
Ni 3.891656367516026 0.9459315923644585 7.892676482677784 -0.8960297088184503 1.2474565735434389 -1.0528585170164577
Ni 8.705632901459394 1.3821679885372813 13.45257190455868 -1.0558512810961944 1.4132595602155984 -2.2177626244779614
Ni 6.249200676363698 1.3153585963727152 12.912529627026107 -1.212617868597699 -0.9818356488406769 2.031862095724978
Ni 7.663855241907153 0.1975541855675735 2.9900291212353793 0.5690506927231813 -0.09434045985579882 0.6928639652271164
Ni 4.568950027782902 3.236165716824232 2.3213518693888386 -0.5354633436860391 0.6752310826367016 4.629719899396898
P 6.36932589245304 7.547068640640027 4.583375625993893 -0.7125095073721859 0.9852349043302129 0.23470520896051195
P 5.954224782890857 5.616857755105935 10.02937698539391 -0.24901391227370018 1.0015228428569591 -0.9651810710031313
P 5.432779517311033 8.168616707305958 13.385818155974484 -0.9971370550844375 -0.3449435709934898 0.32032422978291286
P 3.322951154341723 7.577301652641204 8.70696834738828 0.8270706651502336 3.164178241948131 1.6257836050933807
P 3.782390923528947 5.601954549496765 2.9725329247809555 -0.9058068428098723 -0.6006449225896945 -0.42832238963146235
P 0.7231699374961482 8.47952521262482 4.28907858420157 -0.10004136689531803 0.9038093527638692 -1.850652544689761
P 3.6150057598451255 3.9682497558956973 12.510867369516347 0.32661520499794716 0.7088649686410632 -0.46853984239061247
P 7.812961489439342 0.8757956414867567 6.4827868624000375 1.2340701249342039 0.10615827842633328 -1.5520086280937593
Ni 2.51694461874836 4.889930021148781 1.2480465571988046 -0.002281339835008974 -0.35707480703938504 0.06739452739457426
Ni -0.0039173080580667185 2.768082644819494 5.858657860997931 -0.4593085536003315 0.18819729520695977 -0.3993121184420413
Ni 5.1634274925987 9.14242573343592 3.5841198631676034 0.5726862325932396 0.27531886871681616 1.388023668466945
Ni 7.33759838233616 0.3633535072108424 8.407947165622522 -0.09858020896875926 -3.2720887271788803 2.736522025145758
Ni 5.195023772318948 6.049607153575554 12.248332610792376 1.3887425489108405 2.2542352654826985 1.481912899717938
Ni 3.682798188596233 7.373952188178068 4.104725838076842 -0.7821789468438658 -0.09271912220229192 2.031164298327005
Ni 6.031847577507378 8.702220095196685 6.617556541449827 -0.43040755429526517 0.26073839979948 -3.3832750549474246
Ni 4.136738517256862 4.05639846113226 8.78452622449437 -1.2775202256980387 -0.512545301437285 -1.3157054785185083
Ni 1.8351067327512456 6.9432152325318395 10.412715811887738 -2.2148500788168564 2.4774646125931272 -0.3028453562718591
Ni 1.0428905311596466 6.124707439215289 3.4032689530341775 2.051547232858731 0.690101829100947 -1.8529063737209444
Ni 3.8152206359474037 0.7942991262834592 12.388721364066559 0.697018096604806 -0.16447089812429738 -0.6725090557198483
Ni 4.16572882262977 7.482846674962677 1.9000771045845741 -0.013647929800737785 -2.532266390924355 -1.2402618555672125
Ni 8.515582252704752 0.6575438988074567 11.222066526661354 -0.25597080320750754 -1.3506393142812159 -1.004479611492438
Ni 0.2483706853407188 1.2931104381546707 8.07802061192611 1.1481875660377707 -0.5410896887338811 -1.2323942798936776
Ni 2.1327813398720448 1.0564490169098681 0.3084295838133653 -0.38016279920710017 0.7650348309644115 0.6764767821183446
Ni 6.887682939322314 3.0698377811674455 1.4731415328706412 -0.10435259267616222 -0.04906976094345743 -0.06077882185026952
Ni 4.123430427618307 0.23109891799378826 1.4635587809378752 0.36878103973271975 3.172621230509162 -1.8299304816510613
Ni 3.1036227083822587 1.5399360867471084 3.479008212455165 0.18309931185876208 -0.20190487460103937 0.8032285684253134
Ni 1.7235413541088627 5.9490962995667305 12.56935526423654 -0.7987353085406502 -1.6619736818606925 -0.01513094210416749
Ni 6.652458977237076 6.852562566178614 7.93650507614943 -0.5995732867920706 -0.15840103778113365 0.6120786183479329
Ni 3.3006473525433084 7.625257144990312 12.968872461723024 0.4820738723213052 0.6700698501507363 0.33933856610188656
Ni 6.071669833192365 5.823165603258757 5.8776202657951115 -0.14655056620045084 0.06472855052663691 -0.68648480117365
Ni 2.0599160713771814 8.754998031177882 2.4080315841036266 -0.9975183496832563 -0.2719216701098091 0.38973810160036104
Ni 7.488188458678223 8.476761581466429 12.905987796760575 0.14010172525131356 1.2995437811569812 -1.172671667222064
P 8.85163238242091 7.80715600922071 11.080265353838776 0.3831275382623789 -1.2251396552137932 -0.09954900063993177
P 2.0038551641541384 2.801023644398691 8.274629784020394 1.8388249559272138 -0.9505432664852985 3.8057790381248973
P 5.356863125825867 2.2742644168935073 8.981828159164264 0.4334517404382277 -1.1086049186491425 0.28872125816565114
P 0.5924761507084801 6.211261028481238 7.69188662291168 -0.8573808860980007 0.7999573538732094 0.845168660302525
P 1.0377805956956438 4.505284497909257 4.585846200962333 -0.17397729495283584 -2.2952716145987178 0.7561395853573106
P 4.1683255230470495 4.833544526373578 6.654653189089678 0.28319415769983486 -0.3431759375701058 -0.25133561842834135
P 3.9291323188954004 0.8803945834043592 5.637113873146723 0.6331086995453549 -0.03570002450477077 -0.5811821858793926
P 7.183243090389043 3.779961153852779 5.639163411690362 -1.9934313025526056 -1.8473461060243475 -1.1885263748661339
