# total energy = -340875.49216036324 ev
CRYSTAL
PRIMVEC
9.19343849350481 0.00000000000000 0.00000000000000

0.00000000000000 9.19343849350481 0.00000000000000

0.00000000000000 0.00000000000000 13.45552652224642

PRIMCOORD
 96 1
Ni 1.038702262506465 0.4773509074473432 5.869959920943275 -0.3599284744380962 0.38053766604801564 -1.8128786683750973
Ni 6.473752784856482 1.7746737885120811 7.719435202499953 0.9272557567122676 0.6360513271134466 0.5201246564464397
Ni 0.8102278481469205 7.012754890912186 9.19179287858772 1.254751050322323 -0.25187220765810164 -1.5016075499333883
Ni 0.4834240929231385 6.74461906350219 1.4142698542435879 -0.9297684958317922 -0.746088885989528 -0.1503570844307346
Ni 2.77821114874044 5.869982904539535 5.987224987094367 0.7181880458142018 -1.008698277559476 1.5494691495013575
Ni 6.6591016985372375 0.957303557991341 12.091028290483568 -1.9490391495904753 -0.9043945358433779 1.1706757198379583
Ni 7.928798296897216 2.886767270596616 12.22325567780005 1.6776972632435363 0.5594455655332493 -2.320610864694455
Ni 3.1442019355878634 9.125278351010701 4.955038114455744 0.10800330205487207 -0.36389465817469585 0.5929526961517595
Ni 7.479542537518341 1.5641532402071545 9.967315496381739 0.33746063235288337 1.2068845656583471 -0.2165956438439947
Ni 2.1635930109886794 3.618610942713901 4.673010082122232 0.08188783591474284 -0.46282762249718357 0.18466922744904324
Ni -0.099373715478301 4.967196436877388 13.230402381985112 0.5986350912485174 -0.3947741213623717 0.9551838505811033
Ni 2.2249684064419175 3.776039383657766 7.454442611714502 0.9378828974088105 -1.112773191094219 -2.3906348592920765
Ni 2.0910567811914884 7.817052051880124 11.310567876869008 -0.5623596538562509 0.20967474835444536 -0.2437048413559609
Ni 2.7586291247267503 5.862747668436825 12.791401903257539 0.28286582782613867 -0.20792305577066122 0.8167240318085869
Ni 2.2509858374084635 8.079184563946956 7.2757662957000075 1.3566790927173924 -0.12194099518188675 1.4170264834571982
Ni 0.6525833613982095 0.4668391298617782 12.061278323484366 0.3372387461500644 2.026514972480452 -0.21410784442513447
Ni 0.3688674137553494 2.7332460410169857 6.043805085023876 -0.017273699478783155 1.8016889703068648 -0.2455292961592094
Ni 1.9784463529550134 1.3013220268140129 7.872559275536208 0.8425170816122908 0.96535050670146 -0.26754976629435856
Ni 5.013834750408587 9.202631942584029 3.547644032869356 1.042167612961515 -0.3769890294648088 -1.0129061449932362
Ni 4.014673466908169 6.648869401482196 10.696699923699182 1.2299262779691593 0.19433349001168468 0.035839635406428594
Ni 9.045837848896946 8.070037092635397 6.964446129604797 -0.9713375775228305 -0.4692245271624629 -0.5335303883293844
Ni 4.431274132720552 3.2800074091701323 8.414790117194544 -0.49884080736699893 -0.1471259790879466 -0.1609592854266131
Ni 9.034778142376538 2.496763222376537 8.312379808978346 0.04939680526557299 -0.22849882303948388 0.23173944146396863
Ni 8.28866625370092 1.8767853099768972 4.1568288484652065 0.36810535382193377 -0.06088526552114676 1.1150388471999442
P 2.729991563786541 8.88831747356804 9.434557573758006 0.06878035199850735 -0.7494009810818965 -1.1116401059310403
P 0.20787375735960215 2.3688824927847847 10.650453250648257 0.3292696119016587 -0.8009945368884721 -1.0139279013895313
P 2.1349922238024868 1.2956864490110118 13.319477607651143 0.9075590496142886 1.0928630824338532 0.645367976528682
P 5.444731213094814 5.50651111984223 9.021136918324183 -1.3039375393493027 0.33271771835125924 0.08819475196937714
P 2.0741408543439817 5.1503021515631495 10.935265975504654 -0.21658098855597538 0.5805018719829164 -0.59902409915682
P 7.403669089544169 5.087602900965323 11.857265810296477 0.04148654927956081 -1.4492907428075428 0.21892326353590683
P 4.977493088001958 2.017950558207045 10.14463302218533 -0.7671968716127368 -2.2730462275416143 0.3731375169292025
P 4.3384939513373775 4.236796134605244 0.5855365337318049 -0.14218354748100676 0.339595419307699 0.0208120516493448
Ni 6.624663077900954 4.077657714099621 7.8420692367374265 -0.48807097044500464 -2.197731416858699 -0.4539827705120439
Ni 3.5867648717357676 1.9643436182897547 3.5904725854844632 0.7344631288251415 1.0829075138830382 0.9428674951075957
Ni 3.9690188512969082 4.16285330871693 10.927098524737628 -1.2095315163628912 0.38039317005035134 0.20865761994384063
Ni 4.308560115568093 0.6021472384209765 7.801137290485712 -0.07444629203503307 0.5988212391173945 1.134029529369834
Ni 3.792523218895581 9.08665671585506 12.885846097009951 2.6199638915423398 -0.041275718820335365 -0.5203177462938523
Ni 1.7236685916914456 5.768634438470558 3.9119119693411144 -0.06665790633886585 0.10132820402754163 -1.245983845652654
Ni 6.173632984890792 6.189620374449388 3.8942982605111482 0.28771132884389805 -0.21657764612186572 -0.26237593540290294
Ni 0.051312257666671836 6.0429758368708075 11.046206875308789 0.30545682575277716 0.11930972820662678 1.3830827795219018
Ni 2.8935520282126275 1.1829932798279996 11.010657687301213 -0.027017923349740566 0.39196493404835075 -0.46428646643089716
Ni 4.621192185337836 7.618354265491444 8.44145936295103 -0.5370875095530233 -0.7561498697699558 0.36224735237926
Ni 6.140371124383031 8.874205545464278 9.92536123976837 -1.20075582705279 0.7027321162704478 -1.705843386660449
Ni 7.624173712064526 5.464524686194097 2.036897315620103 0.910584980924806 0.5061293706086122 0.30683108039248447
Ni 8.186462797851066 -0.07135946966866857 0.5382629535999753 0.05514039261756955 0.4728592957015727 -0.5718722213323765
Ni 7.194095465405163 6.573474012310238 5.806705386659804 0.08750055411582995 1.0243930625869133 0.5105033313065918
Ni 6.892330039947242 6.530577428250201 10.394152136624562 -1.0619075145926034 0.017253387763808994 -0.6254164731074197
Ni 6.515261159702404 8.710746208861735 7.476980326207254 0.8923599732763471 -1.709695413416688 -0.6234809466476038
Ni 2.928477901089627 5.807403168642264 1.82194552995621 -0.14175185926022685 1.6316500911764866 -0.8828129530178602
Ni 8.181388019796813 4.222987589972116 9.692795745274509 1.485304184787674 0.4639684209698461 0.3841618930641642
Ni 4.90527862855241 1.995987433620798 1.342067346264095 1.0994443351957968 0.9708092158231862 0.4124363145288252
Ni 3.087147456231543 0.5501114571440335 1.7745009518682047 0.12901384286826814 0.6912189734245257 -0.2963875164616573
Ni 1.6081714237646894 3.216499135983948 12.180480447128266 0.22134704248605105 -0.0014189918347136852 0.011658667284850889
Ni 5.456838971604687 4.103362568157029 2.7801941734257705 -1.2253183468835025 -1.1449765152996412 0.7822666214616657
Ni 4.046050672522594 7.075987360943247 3.574743531547833 -1.2586311021030194 -0.7557554625450146 1.037495661407142
Ni 7.622620020957338 5.9715887868866275 7.961150926336924 1.7382768245988063 1.9582182449865824 0.819189462629944
P 4.046795341041425 7.75543762702578 1.4261247931945988 -1.9934171614852183 0.05903150014185963 0.0018414240841129574
P 5.710274490846659 8.040379060021234 11.78935571875454 -0.6123367571053261 -0.6850010175392719 1.70184994923034
P 1.5788903221291948 1.163015937958634 3.34172020381647 -0.25372417326517593 -0.43341908742807933 0.6589966230557103
P 0.1150935759764273 7.660873918572814 12.659282079171556 0.5992403289326841 -1.133493968581338 1.0367425852912016
P 0.508919336582653 4.424268732580443 2.086979491214929 0.3579358694880997 0.48105648680038443 -1.058309769939016
P 1.6007063516993763 7.448818066037705 5.3697780283149 -1.3706414684347554 1.310528305192943 -1.8940075146366284
P 7.211480257616378 2.054099158405087 0.5774941137284356 0.0975049736267095 -2.9188047546404956 0.5455469531742863
P 5.2439189358501945 7.788892549742127 5.469523158708766 0.489255477671409 0.05076951724338353 0.0230126588450894
Ni 5.33201046359629 3.3530216977695355 5.74619601311365 0.07304298392960323 0.23170961666729772 -0.21670234462518806
Ni 8.920623216471377 0.046583152900173105 2.7155403978019774 0.8488003435178414 0.3305906447059274 -0.12437608698594065
Ni 4.995898351887126 5.7231085309983545 6.845755161141723 0.3975082324640831 0.33405032111975375 -0.6855023826557226
Ni 6.068551982789159 3.736195021181083 10.36644679034867 1.5784405970330428 1.0648205744743404 0.30539126262216437
Ni 6.6490624636907825 4.036084985184171 0.21536089367732486 -1.6182428166316454 0.9949112510777123 1.78559155052437
Ni 5.412489824261005 6.1122116222450344 1.6668843994271456 -0.20349253080313343 0.564363571660157 -1.7120700842964516
Ni 1.8607427597872777 8.020162688750762 2.8272618205351083 0.31173340279010825 0.14641609750511558 1.399288956968119
Ni 0.43132395757666697 0.2296566905511692 9.229454718763535 0.27012061234532836 0.48704124362890955 0.9017527273451568
Ni 8.786104824279679 4.4876115238735546 4.00097432419324 -0.291388263474853 -0.4407400465695248 1.174388649913171
Ni 7.377771173278176 6.797499721777657 -0.011501910912454425 0.0025309939519698346 0.9245162462939175 -0.4626517590409516
Ni 8.183493317214246 8.566841315957372 11.011935575253279 -0.5283784118147997 -1.1638419847455763 -0.00547387863037767
Ni 2.0649198355243894 3.186712395230729 9.735773231593383 -0.5762009306147173 0.15700184344076185 -0.12677364068383973
Ni 7.677642750404256 3.0946493020508723 2.4357463710249583 -0.5470605616053352 -0.19045446667225266 -1.622527045829296
Ni 8.794158276409254 7.102565591658542 3.871639192630142 1.1186792721660088 -1.5407279129736173 -0.24861667683528152
Ni 3.079075617224961 5.819786730307259 8.530305671998308 -0.6971584788374122 -0.7784210224633303 0.29691922059541126
Ni 4.262289539577059 2.471039981442121 12.539676363577325 0.13531638804752824 0.03704239746527814 -0.05500438126033753
Ni 2.578060799068116 3.6297441967423416 1.877987811733231 -0.24423654548971485 -2.165544033492877 -0.00882788270427512
Ni 5.390195735888611 5.7011270195350985 12.592085398457533 -1.0338462375800128 0.5401242394968181 -0.8625686009465274
Ni 0.2085678619666602 5.6939561375019165 5.930671550136519 0.8701422995287273 -0.5192810774992219 1.3091795044745325
Ni 5.61228162983167 0.8413724597671921 5.785795830126124 -0.4707443062410989 0.06611283246867324 -1.7156498312279096
Ni 0.3261988269702135 2.51342173294593 0.7237093177288745 0.16748320258805996 -0.36933819778777033 0.5399172656923347
Ni 1.9795863393295192 8.17942062395694 0.34565490087639794 -1.1510186077286628 -0.5605195153237185 0.1501123154097802
Ni 5.812928425183216 8.876880836068965 1.206527563054594 0.6000823652180053 -0.06942441334040945 -0.9646233987274485
Ni 7.674020535633648 8.840814976817459 4.6428969743021185 -1.8291074715291338 0.49021604181246536 1.682453546981599
P 7.519561575326601 4.391144773650243 5.887371374126152 -0.20116388266995677 0.00083303742425663 -0.16923618072342464
P 8.072758350432604 7.925801235944886 8.842837533288357 -1.2914028972174016 0.4896740532660663 1.3028304223280531
P 4.070652313959512 4.823870730598782 4.5534843494429875 0.21943465595468659 0.010436621952291704 -0.6097186027561886
P 8.149376466925606 1.1255986432470286 6.302124158799215 -0.9846407223896396 -0.4255702808076219 0.6791119057483465
P 7.163012449822868 7.737381713803767 2.5098188243961808 0.5112530649884227 -0.2060518068898774 -0.59431743770977
P 0.8287471106695391 4.861784470989607 8.390273974735715 -1.7137418155719197 1.1702610008980425 0.3997134676455181
P 5.986270708177643 1.8766014412068157 3.3643664008835694 0.6413560271558115 0.9543436140679952 0.829954157345616
P 3.6157701702161402 1.9984604685783953 6.311005020394156 -0.7326155340934415 0.21888983919481014 -0.3706201498239875
