# total energy = -340888.5864714802 ev
CRYSTAL
PRIMVEC
9.14059346596356 0.00000000000000 0.00000000000000
0.00000000000000 9.14059346596356 0.00000000000000
0.00000000000000 0.00000000000000 13.37818248278748
PRIMCOORD
 96 1
Ni 6.640869533131347 2.069960473120483 11.685976119467796 -1.122727988314086 1.0340647813487225 1.4046404510880195
Ni 4.883361960118953 0.9694696045187392 6.266420559098118 -0.6194119187845526 -1.4224612813195245 -0.23454117257882187
Ni 3.1587239605433166 2.2606880925118578 4.758070933963508 -1.2850756694477934 -1.128934374235114 1.1089275920958839
Ni 3.4498244347481046 4.791901183754049 5.2144406471547615 0.35829633815131195 0.16173755835353437 -2.208896175226267
Ni 3.5864488825120695 2.973014526862948 2.6238228401824575 0.8330996449531329 0.545362347967306 -0.606964179939503
Ni 5.131483364718727 5.065844764371297 2.909433474062964 -0.5018117170698648 -0.070581152652672 0.022537518980883766
Ni 5.501613408426909 3.095736132247238 0.6044921132427865 -0.14463432301434445 -0.11140152910314363 -0.46495880990757343
Ni 5.643384010207808 8.229870269017317 12.847710791167694 -0.7334130902940724 0.34218863395617194 -1.1185807989149317
Ni 2.389113428103194 5.734853927165993 11.58432815189175 -0.140706448714848 -0.5284218634582254 0.5055603854790197
Ni 0.8733425552841282 7.889072389146329 11.394384795403845 -0.36587852137394405 -1.6842255512803572 0.5507966316089998
Ni 0.6377254822921089 0.20252172690123268 4.941633242282282 1.3219316619338783 0.42820386177572706 0.470288449650603
Ni 8.991226845725127 3.0125201710213645 1.4719481264542582 -1.7945261340098386 -2.068573592213399 0.7036286599427882
Ni 1.3836298860591973 1.338493636439979 2.697336061641056 -0.3825881208191411 0.3996700160020923 0.39568454899178307
Ni 1.7703044036051256 7.047607652928022 0.46622144462900006 0.5210793070502252 -0.3715575740365924 -0.06111460792313346
Ni 7.937289018701083 3.9675019351904766 4.45280711047055 -0.24111214092812028 0.5991904495313553 -3.3811397537719765
Ni 7.6704751008426415 4.175916602579662 13.032784039555738 0.24702927774350364 -0.20263146835441878 -0.6532023849714363
Ni 8.49216873379518 8.84546180468064 7.261222403834496 -0.9318361769940984 1.1060700680424307 -0.042752046255545725
Ni 7.022169381828329 0.65013749390773 0.6505808126818352 0.38847209040374386 1.412991394155876 -0.4707502197783699
Ni 2.1434782648757222 6.9814023357972 9.423190260798057 -0.16637351446364895 -0.7027750536932412 0.05079702804720929
Ni -0.07964655954982967 5.31675404992163 1.4905967648651797 1.2350252897586214 0.9168672143890919 0.10385431288350501
Ni 6.553796241541094 2.2608434825976267 7.432222794807848 0.8274748425671878 1.3038434369735996 -0.9218667244862122
Ni 3.451296070266269 4.475197907770517 0.556219726069021 0.9037553595974822 0.8306997772623886 -0.2912604796477371
Ni 6.3900607941071 5.781178453911679 4.959813882317241 -1.1524972491567185 0.7352347168838435 0.3756710819843337
Ni 5.370720112649832 3.2174065694042686 9.838957458637232 0.8732039691731865 0.061991611211448076 -0.6073709284596185
P 0.300947635345895 5.97937393801324 12.675599818110758 -0.2825958619942036 -0.5490559947688093 -0.9100856726908843
P 3.8695056346299985 6.489208809420925 13.118016415659294 0.38845563534351163 0.3434685291098601 -0.4402754482282804
P 2.410420151040091 8.914482424541863 1.4327230985095536 0.645465935559127 1.7117540957179296 -0.42204015616717633
P 6.5200765929292475 8.497689652136614 6.234366326581982 -0.22216619595323672 -1.218657132813243 0.2621944155197162
P 4.425089175406695 1.4246345875156197 12.783896653239056 1.4049507832395867 0.5204997803976713 -0.317835144812472
P 4.2260984596897275 6.426156996971883 8.59110742952288 -0.8385591254058075 1.5368010671153856 -1.6820498837852773
P 4.942912925341555 1.548178846295157 3.7973168851377466 0.9423707579768351 -0.8257902557759134 0.21948453535601556
P 0.30461666948869665 6.008724383036998 3.8398188157735187 0.3454313092631857 0.2670288607938821 -0.7518448146366987
Ni 1.2665206049491475 7.867418323664772 2.7710229543719853 -1.6381254144881852 -0.2561124709916944 1.1679364665299241
Ni 2.0451620435504263 7.157559849499422 5.019721330677783 -0.04372186636798276 -0.32153290537903334 -0.3444347496778713
Ni 6.0837320914969615 5.874741566731104 9.460729763341835 0.7157053886016641 -0.24753424240438013 0.16198232737448878
Ni 8.894510228223922 2.466378863103447 10.845210638635448 0.23278099535460556 1.6137320732454854 -1.666035253524576
Ni 2.389881237938758 5.59457324208982 7.065231630832196 0.74579320912598 -0.6455078445406559 2.3435461333343897
Ni 0.8989572398341353 0.2381627282206446 9.070474875407927 -0.9265777568086365 -0.03296025697610453 0.9912489717347768
Ni 1.3083479598008172 1.0028601917724864 11.639499858873652 0.7048303935603732 1.6890098600428782 0.014307417761607617
Ni 4.03601068182799 7.393761920461395 1.8950725878249246 0.6951653596667834 0.20568362491718123 -0.25381724719961446
Ni 5.983606032702122 8.265728816456804 8.535467724165013 -0.4229459558108974 -0.1512590274197137 -0.6805648361447891
Ni 7.171462691879096 1.0816064028841847 5.112953554020452 -1.2640831263565262 0.13152555354652834 -0.38315736305904974
Ni 1.4127335350643797 7.687403479598169 7.288741073964837 -0.49504328799777964 0.6651343605223319 -0.6463871618218159
Ni 5.075040201211503 5.110030392289341 6.956133165673196 0.8092737461781289 0.06305373392737527 1.0375586534345937
Ni 8.38450168554391 7.495816644438424 9.47968643974631 -0.4173108690123071 0.3854001363466395 0.2310089910558473
Ni 4.9927382993136815 0.5420965953912863 10.582396644396564 -1.4688285557301544 -0.19324617048477685 1.051001409203061
Ni 8.193097662249775 7.687814806295792 5.032190013971743 -0.05250989697325795 -0.9829476509579329 -0.5505657465451164
Ni 7.357162984966184 6.517005353586992 7.139213764726087 -0.0856457602952783 -0.581288886660586 0.4000723936468336
Ni 2.360896416646222 5.76124281996686 2.5927320261980893 0.08744758939070746 -1.0569985073267603 0.6406088645771418
Ni 3.5287717389119746 4.587124472490511 9.249193583347353 -0.5608293332546535 0.021064533979783077 1.14924557498864
Ni 1.206878233793741 3.826883048162924 3.7343994394099287 -0.13016209754009841 -0.45386115733251514 0.5172748457024704
Ni 0.4039237311256014 0.2436927871553605 0.27945535836540336 0.553494490156137 0.25020947524369813 1.156379357819944
Ni 1.3522045263607623 3.6162289354200103 8.590799391529325 -0.9897759867336761 0.09936259566073856 -0.8995580336866832
Ni 5.341918103222907 3.219216406873812 5.21326333874023 0.9683188453011646 0.35229589759350294 -0.26711396430852063
Ni 4.234050775843783 7.319037570393127 6.3495661377557315 0.7054939952863012 0.9513439080097229 0.36118163011890697
Ni 8.221031315315052 7.445141195291209 0.4149655678084721 -0.03808215158370216 0.2080115017194095 0.338251760795611
P 0.11434607976134781 5.994995211929654 8.191421277442128 1.1567282565189303 -0.43960130497939137 -0.32431458188922857
P 8.63800689958591 1.8840956493543455 8.075418922178349 0.6354707720196281 -0.44003839251680993 1.47685811090285
P 1.983664131959073 3.612700666413729 10.67945512008646 -0.3400654169655821 -0.05631332987974818 0.14603737400945815
P 4.120963355777163 6.7634905919895525 4.260536558933423 0.47194218320394205 -0.6519646559095933 -1.907851362498256
P 7.1390867104794875 4.2441237096389175 10.756607211730035 -0.5358580080212965 -0.3292896665063168 1.033278280891685
P 6.468212866655565 7.960314173174718 10.698411796490934 0.23794377050246762 0.5872037094831242 -0.42552657205388
P 2.771409601467752 9.218379729339384 6.094631334924657 -0.4492920499045939 -0.9122538839867965 -0.7760934027714183
P 6.992371047733826 4.508442245531777 1.8087707623075469 -0.12645096723709834 -0.7457944946775608 0.00576364195665459
Ni 2.499559216711743 1.8412445480552577 0.4807787534875596 0.5422543984659435 -0.6714651878363662 -0.3051722046328228
Ni 1.629246768100108 1.4978781614724435 7.234814315787739 -0.09984390617253128 0.4437873180362809 -0.7298783376679365
Ni 7.002471403308803 1.151495379107057 9.506416276676541 1.372773170065778 -0.12590512203595736 -0.4878441991461792
Ni 2.9857290921161543 1.9055394811904505 9.319362261724608 -0.9867927357356359 -0.40808163710455525 1.9976108878515921
Ni 6.572251099374468 2.5477301433000945 2.758300162584827 0.7405000790478408 -0.2828321463747258 0.23181040391122013
Ni 4.338070727376125 7.167550517955033 10.69843830421145 -0.3127883264171839 0.9067607220827093 0.3157566650168885
Ni 7.35183401908364 6.298828532574209 11.72376973050477 1.2941861163894937 0.000903742761191992 -0.48149254589653845
Ni 7.868551757231557 4.227990562498796 8.780582787634822 -0.12028674740791544 -0.9268194405057973 -2.332805092767802
Ni 3.1834675465536897 -0.41086692578148604 12.591544750421734 0.06888859544159749 -0.20960892811351642 0.04591656002645641
Ni 0.22029743865386409 5.140441146133638 10.341562120760022 0.5155056696171896 0.5328955829588629 1.1034547419067706
Ni 8.888130094114118 2.687407549219753 6.036289670193068 1.0452105135528968 -0.27671214951991696 1.5720238948734218
Ni 3.9141574328053492 3.337020373073181 11.676892197865614 -1.31448934672322 -1.4286303862447136 0.640239397052865
Ni 1.283101641160015 3.813281845361507 12.963471834768866 -1.085638539660956 0.24586405379080883 -1.9086597173321644
Ni 3.506249317068768 8.760573114884432 8.264425367855003 0.10742660361579562 0.3240029641860807 0.279711341357557
Ni 5.929402314548626 8.320736906818986 3.7594565477698243 -0.9115756269728494 -0.011413126932948086 0.2345882237666734
Ni 3.2305324613550983 9.143335458506296 3.836100422427002 0.6943094394243914 -0.7884578378740421 -0.059585572873116735
Ni 3.966240533317764 3.078012521876306 7.503300962216516 -0.4859500674472598 0.3497803302605008 -1.6039883635951602
Ni 5.191390813079269 5.204662954522587 11.844881677412362 0.12874053460222343 -0.40140139687090226 -0.7659408877184486
Ni 8.186324482628908 -0.24352734241698307 2.590925844965858 -0.010701959798536408 0.5421854929012211 0.8062264747113728
Ni 4.758017004463153 0.8933759935770484 1.6514830893736339 -0.40790834475148463 -0.8741131112510172 -0.13966155239010142
Ni 6.114554172038883 6.050496894328983 0.40029217341525 -0.6059010287823113 -0.6889741432544071 2.003737826684936
Ni 8.058977737044675 9.258141310109655 11.572114491150314 -0.21902662188299055 -0.5319982679555741 0.08761573953745555
Ni 0.5323143324624715 5.177241174681021 5.8065591392737055 -0.6787396100105922 0.03941372591093212 0.5345770844263439
Ni 7.425296967279197 6.371258593729067 2.9258216437556124 -0.019213082593341105 0.4541164678764308 -0.30387816841174764
P 8.762977090917209 1.857359414008818 3.981587589435761 0.5571158889588084 0.5168534418943357 -2.1567817139192145
P 1.8215100071626105 3.6369963633533566 1.6491686911550059 0.545684250083099 0.6382452494409717 0.89214194372827
P 4.902858845586308 1.4536559711812775 8.544711606149605 0.9451637473409399 -1.066841204448795 -0.0595529198629684
P 8.541802155308414 2.0444490772745456 12.885249379652143 -0.11369135357858486 -0.5649215010461561 0.6268971714180042
P 6.317511905239597 7.918623927222257 1.5439357828943385 0.46064012792756154 0.7304357528333033 1.363424381861026
P 2.0960020233766903 3.3874216044219803 6.18082712955998 -1.3145788211132328 1.3342706431152054 1.0465855395235522
P 7.070066090618264 4.160962591972727 6.285592039444685 -0.7496910015184894 0.7947452135446507 1.9395414945126854
P 2.546907489904848 8.981007662437504 10.379329224076484 1.3732107718238287 -0.6932118354848384 -0.07127612183716757
