# total energy = -340886.3483040002 ev
CRYSTAL
PRIMVEC
9.11453873643633 0.00000000000000 0.00000000000000

0.00000000000000 9.11453873643633 0.00000000000000

0.00000000000000 0.00000000000000 13.34004875247114

PRIMCOORD
 96 1
Ni 5.3921064144861885 3.2682001457795593 9.703297808283676 0.6535248013078616 -1.4161919033710448 -0.45401182397776646
Ni 4.487151209438317 0.4886167485149999 6.18999586765178 0.28905370180440537 1.949185702470669 -0.23136714572621442
Ni 2.9354647955778455 2.147795474669449 5.136358838418832 0.20718977714906253 -1.1207644368298117 -1.1234476400889295
Ni 3.70039334240107 2.973390391156362 2.566518294529246 0.8056217512478383 -0.3044265847160499 0.9011462041094093
Ni 5.5547097850992 3.2682366039344055 0.7092104602260053 0.003407997240284453 -0.2592456173040374 0.10777293121162083
Ni 5.1514370198092525 4.980995145904358 2.5549665281663017 0.1197262469187551 -0.5810423178674187 0.13161914170159913
Ni 5.153834143490373 4.656453766004274 11.885222673158305 0.6784251640939671 0.6434828436908272 -0.2921997036325548
Ni 5.807565318033401 8.016783669079592 12.603544937734188 -1.7675915144025236 0.1336937648424407 1.3082320529595985
Ni 2.388300807649579 5.267811450077578 11.828901204098383 0.10248057246442994 0.2071257566803465 -1.6620454156388924
Ni 1.0120692639853208 7.87733122679377 11.615553550663014 0.2340158962029712 -2.1235617755238203 0.1652777102963089
Ni 8.231750064590122 0.0298364424720679 7.041624641060327 -1.063847926148426 -0.31918523108246316 0.5403268424259274
Ni 8.828196363331424 2.4720998765630333 1.358817306002082 -0.019133121285025114 0.25811690301623286 0.5994956394765999
Ni 1.547694245904839 1.3303945284841667 3.031512893065673 0.5180909138458626 1.1979070447500852 -1.6118106878530565
Ni 2.057625343196662 6.800439363492321 0.2505030704927652 -0.13823561857685224 0.5225111544007452 1.793207929419047
Ni 7.292068467051468 3.834222114301902 3.9066061349330843 1.1698961613594563 1.7548542693415132 0.7056297495332171
Ni 7.762232831945052 4.14504611344119 12.666256609884735 0.3729076603065836 -0.5741803006402627 0.6825656686249019
Ni 6.8919311030782735 0.7147347821390404 9.571525276316155 -0.17252642143892222 0.15880521519808782 -0.5466833807715746
Ni 6.838510791690221 0.953025282212278 0.5137054277722518 -0.19294432297364192 -0.8055736716187222 0.16979102478563018
Ni 1.8256785620666227 6.549807778003723 9.576941135218524 2.0246408953861903 1.898113823495518 0.13219789702320459
Ni 0.24151066660000758 4.925606094154623 1.1543900516036496 0.36769783397086997 0.8136443644419987 -0.14769342155564238
Ni 6.551411936816945 2.135044235012072 7.431221041013682 0.4568107268791423 0.57468655085272 0.982639889909527
Ni 3.3189498973251452 4.320391609172867 0.4235462337459187 0.4941382596850071 -0.022733179931457622 0.39336361416809024
Ni 5.853648425758703 6.136463447437577 4.8917957128043446 0.848201790701894 -0.7378479861369744 0.16043323771981402
Ni 6.309302445023593 2.317389696474174 11.844722220393791 0.3201720204757647 -0.3164678321513001 -0.5761006575914273
P 0.4874273012131502 5.967880939429827 12.45272210840578 -1.6834732464953654 -0.6307823654050233 0.8446436410369904
P 4.223722811598786 6.312200868333847 13.141775766271321 -0.3893346955143553 0.0801328008968491 -0.40248614529464877
P 2.30007207292234 8.790462173065848 1.541602999683949 1.0517398300309824 -0.1768114219675213 0.36057742087600486
P 6.276098180497629 8.350530733078282 5.789554078085622 0.6690403804449575 -1.0823868654928779 2.2680973681767713
P 4.491981914955408 1.5171240830664958 12.914888465580031 1.6396806747904473 -0.42256183299860134 -0.5288131853593732
P 3.860189435090942 6.842357127026471 8.624954910419357 0.2699918000769479 -1.9548855810689234 -0.4913313863638312
P 4.684380712616285 1.3003621234298015 3.6589750555883103 0.5185087181095716 0.6189522055393147 0.6351750951560803
P 0.007716368473148827 5.853165355206994 4.037366041649757 -0.048181187690917025 -0.7426153256186308 0.37444697976924546
Ni 0.5228564246385894 0.4383528018827369 4.857618926997865 0.3112585200362188 -1.1403747548615715 1.1726600972578385
Ni 1.8776040891059904 6.579995130216183 4.970435041353223 0.5824420264284227 0.46919598791737255 0.07506001435963203
Ni 8.07378599418126 7.240480177944425 9.051262849394858 -1.4540405987877023 -0.603700935807199 0.3713040632648895
Ni 8.550193818092218 2.6959620618559796 10.380118843744524 0.10187944854532131 0.11380113968357176 0.3695703684032345
Ni 3.271882419419002 4.5294517835983505 5.411364523329699 1.3382782216127016 0.3306883466260563 -1.0017079622845715
Ni 1.7478495160091954 1.3726586444893534 7.162085119033014 -0.7156827628938449 -0.05656915464429612 0.052274383923684165
Ni 0.9087988060225071 0.9395813376128278 11.528243561437895 1.841177001099158 2.6407641161171425 0.3396650962033699
Ni 3.8289812545427946 7.109495142121578 1.8863358171915996 0.4857490071800473 -0.9036872253637082 -0.04388358875682765
Ni 5.750836429093076 8.04884861626662 8.132093521226414 0.14311814348013416 0.02837109494352533 0.027476865264030096
Ni 6.7082913771191395 1.358102726167101 5.389473224252439 0.8250356369980758 -1.4196878323394453 -2.890422861063693
Ni 0.9829209691859706 7.683948058952051 7.115088734528822 0.013602678385099154 0.33680191572296186 -0.03934841989063546
Ni 4.994375288732828 5.282577002790194 7.229986609525885 -0.1621659041402046 -0.571593256639377 -0.5591005234890049
Ni 0.1057787790162163 -0.18023271138877808 9.733660159639395 1.3066863057390334 1.61394958857293 -2.0916358733495013
Ni 4.624972149294782 0.8724427340101092 10.6746670111067 -0.8634954836361709 -0.5603027713272221 0.019275303289844222
Ni 8.19549242959581 7.6619729061186455 5.052890627260604 0.18962991388842823 -0.7108645155695951 -0.5338021539335324
Ni 7.395627855891436 6.265197192198685 7.063528700491784 -1.2338438678560104 0.6449740835243731 -0.5252627490039535
Ni 2.2194630925579077 5.355857894030586 2.5211625269931215 1.0472771662739382 -0.6953849318767573 1.1283659033261535
Ni 3.7010131310334513 4.76738681666184 9.60023242744187 -1.8919264637378836 0.30818296643468857 -0.28801549034787816
Ni 1.1107432600759295 3.7795986838039326 4.310209757978259 -0.8256380464687652 0.14417975197542912 -1.108898281519845
Ni 0.48717027122148615 0.25317271888136117 0.6479279477454201 -0.09343414599144555 -0.1599385574715826 -1.0468318512064037
Ni 2.4208032526947583 5.585289062476254 7.265524195961991 0.1400230494945782 0.4766766125651339 0.9633913260925602
Ni 5.323966123079077 3.1899974036349614 5.086200620435621 -2.0011878065695727 -0.15047381251425698 -0.9210308588484782
Ni 4.230093874158118 7.310935562184256 6.255029012812145 -1.1475951838694107 -0.6899694172881408 -0.33381686495270896
Ni 1.0373803379871331 7.294310643574494 2.726772848516306 -0.8863610753804347 1.3254995817907946 -0.48749555755750884
P 0.40785282099247244 5.855680967891365 8.22144516712291 -1.2808986552519683 0.11913335052976257 -0.5813819605950246
P 8.781037740038165 1.6875568424326783 8.430550914241952 -0.376797482279293 -0.2599773532637394 -0.26631280856346395
P 1.6520010269191492 3.499244587577161 10.588570166984079 -0.8066447931957139 0.5568724054894345 0.12228629433644746
P 3.925148752487743 5.987896466440263 3.991289314101553 -0.7502975247542367 1.31446543546382 -0.5703611840044887
P 7.137686410356222 4.451577164847365 10.67781517277765 -1.420123120104651 -0.5483638537977911 -1.0545652152949194
P 6.233897866263423 7.674414251459831 10.46304018258006 0.04202082451647602 0.9067434956915287 -0.9647067024698739
P 2.444127357257465 8.83526013083283 5.7616736156210395 -0.15396305661443807 -0.3148233545693417 0.5572223326296856
P 7.378100597949238 4.296037561735761 1.6881702508879617 -1.1712830144046535 -1.2850846683088577 0.6327927109668328
Ni 2.6266095368002396 1.700973443415994 0.49887789619639716 -0.9396489881702978 0.5850846062575923 0.7939443149099101
Ni 1.1816361421739114 3.7424478240158927 8.439955295284468 -1.2026556151786645 0.18406039022045073 0.7983231607038961
Ni 7.774956727986296 8.81900890831024 11.60001235070605 0.42255129147564 0.6698117113933432 0.7412577831494718
Ni 2.531007140255404 2.031320784475297 9.353441708566296 1.327995865850087 -1.5763893709309689 0.48856487936228754
Ni 6.676818874948359 1.9787116670325673 2.666409081537839 -0.7940438166022519 -0.41225145221152876 0.31800740872427813
Ni 4.1013510148583 7.027601011798827 10.953621114187388 -0.010112920064285809 0.40361305981024037 -0.2798699784226083
Ni 7.409673360045844 6.439749723062461 11.86654698333846 0.4104601646390609 -1.0250070420218282 -1.4445799675954347
Ni 7.674642114927619 4.0671168074579365 8.333021704213506 0.5540220805248329 0.2478484312106893 0.7789493841629745
Ni 3.0598691344509947 8.784145797738786 12.618992257942425 1.1473545286135145 0.2626204473135413 -0.43272386113326766
Ni 0.028312491599506502 5.403472244259418 10.411014395614869 -0.4877711798163986 -1.761114134208296 0.041335111303361066
Ni 8.809037602959869 2.2360606675515338 6.222839196444769 -0.07993893971848813 1.8272369939792983 -0.09678943561692363
Ni 3.4314415341023747 3.1358114709951432 11.555470511476862 1.0781671709845753 -1.7495004612287677 0.6499769360556031
Ni 0.8629791084659675 3.243126049784246 12.634680201972644 0.9613197882755122 0.1458237153367553 -0.15814109925152767
Ni 3.236882590766874 8.83709215311384 8.153197324159002 -0.09349662379826479 0.31664369560753214 0.4762654931696443
Ni 5.801804929567738 8.400770070456023 3.769671128239376 0.198331041206852 0.2172582171286581 -1.7845268567052814
Ni 3.2983419252984625 8.6442467430561 3.6573608707825045 -0.6726998315744157 0.08636926872486415 0.8236341286648589
Ni 3.8155099663272094 3.070013616036885 7.382969584528917 0.08197756741507173 -0.5731927399160128 0.2974820350774167
Ni 5.852891919045648 5.643895546391145 9.323279877062227 1.1318389494764185 1.3995694643230154 1.0339565379056321
Ni 8.412855948787461 9.158653078855265 2.6468520158245914 -0.9500056488142734 -0.11612490272074195 0.5961012690830702
Ni 4.705863680359271 0.20802020555850267 1.5659479325823433 0.11172754498399469 0.8394749523518575 -0.17275859205438635
Ni 6.271613827451574 5.715791027747391 0.5325123669495436 -0.5382658461318407 1.3974519037593804 0.13465612875571004
Ni 8.372050158976112 7.271141486169883 0.525115007331297 1.3458825163225208 0.02415320020743582 0.19198812970795967
Ni 9.111740548107218 4.959111138458066 6.30562746301512 0.24287128971107202 -0.45247096185320784 -1.3116907009321601
Ni 7.367245182343852 6.304444395890368 2.784175301867409 0.4129924441426113 0.09838943311419185 0.26063041346670596
P 8.660826088972303 2.1004454460632496 3.8637313448342274 -0.6132042473119439 -0.7865966162955873 -0.427943923246121
P 1.8145041376063338 3.4024573009998313 1.7414100944095265 -1.5099042427245417 -0.7385666094705537 -0.3523848577628834
P 4.957661926802939 1.275415630976449 8.43209765146129 -1.1995857180040888 -0.11408910323763577 0.6692841210246474
P 8.374319679115274 1.6281482791111757 12.560963635781842 -0.7227895491419553 1.3304425276183667 0.3755330137445726
P 6.687419083469823 7.990397079509823 1.516696611200927 -1.4826011840342144 1.1603933640753434 0.6092871716457249
P 1.6607145259273353 3.5396675667626263 6.4036898735581875 1.083660847109295 -1.4094332444909727 -0.6102287096233878
P 6.652246078582178 4.101515076555106 6.359121602166735 1.281762031693528 1.3058239577387383 0.24273322147131102
P 2.411962150144611 9.012164212684171 10.197640310017235 0.03131552228382994 -0.2667846059935599 1.0383135293227472
