# total energy = -340892.3414085718 ev
CRYSTAL
PRIMVEC
9.04699587893891 0.00000000000000 0.00000000000000

0.00000000000000 9.04699587893891 0.00000000000000

0.00000000000000 0.00000000000000 13.24119295318754

PRIMCOORD
 96 1
Ni 6.277610723623841 2.0447205205111305 11.366146771039926 -0.12441053976830187 -0.833729565227648 0.47583020540443854
Ni 4.6464193245804415 0.34712145973132025 5.9933740255458074 0.03646261370240817 -0.5480738333611981 0.17459127438775093
Ni 2.933035970593062 1.6557178040905247 4.843919761829151 -0.7898858285698203 -0.5422597977825823 -0.0015426618967715369
Ni 3.3598913165662943 4.197082194563644 4.7458946599014125 0.48787145283968886 1.309869074342389 -0.46153795715148255
Ni 5.085542396575031 4.305112368915438 2.686638331574268 1.0308077078640054 1.6824977699559733 0.11272204768678006
Ni 7.111218991367167 6.227861294869087 2.6060259820604723 0.20998225229253514 -1.046300918403598 0.2970544606216949
Ni 5.138485414773398 4.52528910061292 11.429652156590752 -0.8874951889848779 0.05395717094274578 -0.5400507059464055
Ni 5.578983630097816 7.821127688395134 12.325378905460807 -0.7011462598405667 0.4644628441077614 -0.040759698415865284
Ni 1.9562951856049724 6.612286231520662 0.4434502499857517 -0.024170683708932564 -0.03264478261821475 -0.8300073791810544
Ni 2.481636125581524 1.6051360517414013 0.30133280564629367 0.468180916389297 0.00878777349495906 -0.02867705621971835
Ni 0.475048691486339 0.05079888024330674 4.572342524681565 0.6165600511580542 -0.10758858311495663 0.6226633358423148
Ni 8.791626046425453 2.2793000691894387 1.377361653146622 -0.8198574352312461 1.0560675108720585 -0.9843668999029627
Ni 6.869917524964766 0.5811093348979789 4.999212345847742 0.5033572071801138 1.0891349828499888 -0.8875522674750586
Ni 0.5670810635346181 7.379589068577753 2.3523509397883 0.6722450034251842 -1.2979365845708615 0.28294784601698364
Ni 7.634967660119706 3.7418283294303514 3.9381825123376855 0.15378667893757386 0.349568728470327 -0.4459064212618127
Ni 7.300988770883391 3.782168882770495 12.53431112633827 2.605318116604707 0.4539357193241924 0.31019639732029153
Ni 8.077619060394776 8.897177343985321 6.9647743690365465 -0.044806100571097025 -0.18023561715772185 0.4673599631498984
Ni 6.742807236911612 0.5634975485810341 0.31611107294414614 0.030255713560747893 1.115170230571486 -0.04436181394482682
Ni 1.8930295454373065 6.508499098101033 9.18970561352248 0.4103894593021255 0.6560221138084186 -1.2985644479628475
Ni 0.2983246796122956 4.750713089753164 1.242330720453572 -0.8949207920249878 0.7875422680383082 0.5381650588879184
Ni 6.517790362572961 1.9921303351408117 7.203420542232997 -0.9194210911591971 -0.4939868217088073 0.054779152623408885
Ni 3.66342706563899 4.362687448856383 0.1724031667797953 -1.368348301525205 0.10435310689679449 1.0625178944830926
Ni 6.1020718681722155 5.578983630097816 5.047529635200445 -0.302401326755905 -0.29988293120942544 -0.8818940407480166
Ni 5.310523082931319 2.791839510404765 9.30211001024251 -0.5097489696390705 0.450995662859262 -0.19120420035408361
P 0.10477597003772186 5.902495145435377 12.565322417825001 0.6227129581333275 -0.7274717851089729 -1.1485989425435768
P 3.960168521022865 6.301078630186822 12.592267989493154 -0.2401389783815735 0.3251422199968465 -0.8883205130996508
P 2.260916574148584 8.594102991687766 1.5277950958333015 0.6239278043770351 -0.8061794235235212 -1.43521678121298
P 6.524340387380825 7.724189130637871 6.0689680066052905 -1.6960536542635372 -0.41548641420905863 -0.37979358879313946
P 4.6543083047357685 1.1200361481534926 12.612951230813232 0.4388477146428184 -0.25003695422157585 0.516256431740285
P 3.949646865150565 6.187231237670034 8.110203624414778 -0.5440857952477275 -0.8126557752764844 -0.14839353294646057
P 4.989390927434183 1.1204342159594953 3.8520750177019343 -0.12369294487598698 0.4203170028284826 -0.36642693767824636
P 0.08091723326521101 5.477195882703792 3.556743084231132 -0.11070244615359 -0.09872856162116544 -0.47403120452248676
Ni 1.5329953088989918 1.2886450049824343 2.4379554214691934 -0.2421812056225829 0.19095737445060018 2.277563141575362
Ni 1.6791585696667326 6.437244960826539 4.557552496289444 1.3642965000533345 1.1039831036064147 1.2378622449867842
Ni 5.942790463797565 5.44590232495462 9.1623891150351 -0.13475434489647115 1.2226621402075781 0.6276829005440931
Ni 8.48997207243568 2.3414348349082332 10.353314806540771 0.9600936291778948 0.9715298960392946 -0.8756364898740789
Ni 2.5502123521610898 5.042831530390053 6.794227645752018 -1.0293429503930207 0.8539638899966518 0.587883252048652
Ni 0.6480435317777838 -0.16775572514471304 9.035882261587865 0.5212564560580378 0.25942919406975323 0.5268545189711055
Ni 1.3419318090132581 1.0031942000960916 11.406029546403165 -0.7478441781177378 1.0628891617795824 0.31189769628211444
Ni 4.036868949643124 6.876250421878447 1.685603649325741 0.7642267332408194 0.4855849707983572 -0.12441156820956638
Ni 5.456025913020918 7.666487392758652 8.121154107878091 1.642016007791843 1.4042380734432782 -0.17540374298671726
Ni 5.162514235063019 2.880635772130154 5.383206645509186 0.942520653291138 -0.6279893760409184 -1.6688092167252873
Ni 0.7637256550004222 7.410158866679648 6.61181759714905 0.9351572709475314 -0.5252961733450502 1.008840973784927
Ni 5.095620749663374 4.349551211258293 7.283609492353134 0.5084011973619244 0.7550504660581899 -0.7845518179514166
Ni 8.137844910043874 7.2004314148897395 9.10034029577442 0.09177835555557742 -0.6267416196767465 -0.0009181409388951929
Ni 4.521643161389758 0.4999170729668024 10.421559913081708 1.3877935547340101 -0.8444937457226875 0.17973090960716143
Ni 8.191683580805748 7.083797547730931 4.839444213110298 -0.17716237754903683 0.32491776269086625 -0.7900714622180651
Ni 7.3049423079566465 5.963281908811116 7.12161670339987 -0.25267696294758424 0.3124515119030555 0.3359146280220021
Ni 2.277707797965428 5.310233579072407 2.616578397717782 0.9143004821031803 -0.7788010315105685 -0.7334668263501432
Ni 2.4097034636377064 5.333882425547207 11.219276035216971 0.6256815538433482 0.30715118273606457 1.509837394042348
Ni 1.239230315064546 3.418307767097199 3.9768330869014354 -1.164011420443905 -0.11240965865268382 -0.692990977723284
Ni 3.6366298646985316 2.6147898066894464 2.7847421423636476 -0.3380296174824759 -0.3950230041483842 -0.6472821628322594
Ni 1.2416368158917448 2.910373246637678 8.20091965860457 -1.1408462951813514 1.9433248728145178 0.7879785842447784
Ni 3.529205839051332 2.6772140762671524 7.082422404401103 0.2404310557006956 -0.9898736886538048 0.8643426621278147
Ni 4.1920882529974275 6.889486176428038 5.88079773590955 -0.3465132294734548 0.29744963917758455 0.059893333921522664
Ni 1.0644785482293346 7.519582278352453 11.239905899263064 -0.5643633145498409 -1.0926640790491697 0.9777815333759612
P 0.4073844020623426 5.591920833792906 7.941034758558756 -0.4515093692708869 0.1193917463974718 0.14635284836734794
P 8.601277259191406 1.522392230066373 8.182315416871297 -0.5760505210797822 0.7470484216893198 0.4736918189051971
P 1.8101952538063684 3.3306514268162735 10.482032745710441 0.2420256538813251 -0.8138500526949015 -1.2743130316146505
P 4.2904562360580645 6.215114078081408 3.7812080918387334 -1.1197966735999036 -1.9015285056040219 -0.1672338055814152
P 6.993788988596353 4.064724649067727 10.354122703247045 0.32320386532355305 -0.42042781737473406 0.23058244504139
P 6.521644382694715 7.935807404506292 10.26477095599237 -1.6111594274223024 -0.5459192489120405 0.026097725528316344
P 2.421392181941242 8.575692355660138 5.5060847490248825 -0.4253270544485642 -0.5080597548621056 1.9145082056931415
P 7.104506120638665 4.132604256986788 1.6304803051899497 -0.5916974835884197 -0.34501864720579933 -0.34411850398903315
Ni 5.479095751777896 2.9717209237400577 0.408365096384404 -0.7571582564298122 -1.0312090570674821 0.3974544964080123
Ni 1.3706741140057757 0.9137646486793352 7.018136263130776 1.0229396179698382 -0.18755349097537377 -1.5000543465136553
Ni 6.835547988714664 0.7869728148709835 9.232143260440612 -0.3278796735326676 -1.041525865612458 0.48452773317843656
Ni 2.851902514133227 1.7191915251567829 9.397366731519412 -0.2299656373929975 -0.5116991513869058 -0.8256241625116942
Ni 6.526258350446111 2.0193527448740456 2.371298967354031 -0.12954374722980916 -0.11176713997267847 1.2586095048364647
Ni 4.0673935127670635 7.07996162160036 10.17507542290524 0.6358106718575502 -0.23170241757844615 1.000073254894626
Ni 7.71430981145253 7.130407669015617 0.4233405881861396 1.382318647662368 0.7436638214878031 -0.16864688387885796
Ni 7.798528293408887 3.859457366104167 8.29820200219429 0.4641085460921362 -0.4682423657548516 -0.14034083784531312
Ni 3.0914398163953876 8.603095705305192 12.446734399618544 0.4162214926028703 -1.2734650817920585 0.20033110235601626
Ni 9.399557009151986 4.8201216399271 10.04327245823905 -1.5782485356268947 0.4701341834609258 0.3789230132627281
Ni 8.542924137629639 2.2749484643101816 6.0370438732634275 1.7589212403220353 0.3544584524624605 -1.1059507688557468
Ni 3.53346697397468 2.670899273344654 11.611135792845205 0.5515306815615468 0.562543744842599 -0.5451875129523385
Ni 1.03036232785578 3.4975684954697033 12.411671863506175 -0.8798299591301363 -0.052970638659760386 1.1339346556631826
Ni 3.120480672242407 8.329225054775293 7.790972242691306 -0.5538968678008783 0.07333043326303501 0.2846164919686582
Ni 5.634025551273289 7.939625236645682 3.803783964636445 0.034385933679037556 -0.19507885281814144 -0.2454567910500611
Ni 3.159627022164542 8.54806283112531 3.5245004966444675 0.5369329862530301 -0.4805962593345142 -0.2483693367111658
Ni 3.3174156722666814 4.313824625669545 9.109013650447485 0.44951265055583234 -0.19101265316856783 0.318177101532923
Ni 7.087968212698368 6.137626560844734 11.476194425408506 1.367998888605586 -0.4756222031586906 -1.2338572375924493
Ni 0.3281173407929248 9.082821693512063 0.5190532780408259 0.27240503750413086 -0.29586018320327756 -0.5044242149920475
Ni 4.507430331316342 0.4614130597316263 1.544399951540971 -0.31171849039177285 0.14234835519364517 0.19816726193547807
Ni 5.954162537255417 5.556420423093932 0.22056484780833374 -1.1411244885434026 0.14431139245728694 1.7451630101956783
Ni 8.13267907556143 8.649262523805922 11.616603796980389 -0.8837007549394522 -0.5355996121535872 -0.6847156250883691
Ni 0.013477309331870713 4.977385564284964 5.882266967993523 0.7341106305817292 -1.3114343619469802 -0.6286673759445496
Ni 7.982281820857115 8.831966599765597 2.74439616082615 -1.7521821218259885 0.8849248571545405 -0.5913089899007493
P 8.557670740442923 1.749001375629035 3.6424136089798393 -0.04837607731054249 -0.10225482960686906 -0.34439361202729074
P 2.021234519956968 3.366332777427066 1.420369260786984 -0.43180520597374017 0.1576901277570381 0.2583819837521615
P 4.6182741212969285 0.9660834241819253 8.10109420455423 0.8938046761426734 0.5290471557470502 0.6329143241463616
P 8.338851058084087 1.5575398079372986 12.350285284322753 0.5308086185228471 1.0466102221139006 1.474964750534879
P 6.095114728562758 7.978617787642771 1.5292778984106616 0.183425070629297 -0.7989991037249982 0.9547634752142333
P 1.7452287784675997 3.088146710000274 6.072583186043442 -0.7811091108184548 0.11899811050347893 -0.7717672645922387
P 7.076125695469786 3.8300365364423263 6.107301031623797 -1.4794029888118907 1.2694765294579555 0.2097156288947098
P 2.485453957720914 8.710067381172843 10.184078992917375 0.6913709256213576 -0.8694990095177736 -0.6359199437419049
