# total energy = -340896.88939464296 ev
CRYSTAL
PRIMVEC
9.03575381877638 0.00000000000000 0.00000000000000

0.00000000000000 9.03575381877638 0.00000000000000

0.00000000000000 0.00000000000000 13.22473906177866

PRIMCOORD
 96 1
Ni 6.375112808288519 1.9959708961927325 11.400902051830146 0.6514419506369039 0.33106115658444274 0.436587457853732
Ni 4.581416295551292 0.4613032397923792 6.08487445849791 0.035243653693642525 -0.8490214583897119 -0.44624632109973467
Ni 2.751414124245126 1.6182854251815373 4.8392361680363685 0.38737242958166196 -0.5520037645432236 -0.5971554213791974
Ni 3.375685315103579 4.40727021352065 4.796996729979572 0.5620786322807223 -1.1375012899685184 0.12136481096344258
Ni 4.985721097111039 4.502741987646928 2.683206833485177 0.3767630294969318 -0.5694810953923805 -0.5625033785229667
Ni 7.23182876437492 6.314085327458605 2.790961811259691 -0.14778058195281002 -1.2690168162127178 -1.2295784077114373
Ni 5.26372413274829 4.66529519761586 11.474550673498559 0.07720842816120252 -0.5313128118527753 -0.3291505698252912
Ni 5.768181228877002 7.887634735822122 12.415582862131046 -0.09346988432538741 0.28417709043839445 -0.6524176842866118
Ni 1.808298290797806 6.439094980594802 0.29831269934192955 0.06530113520065528 -0.15006372156003187 0.16506765116803185
Ni 2.6583277891089425 1.470550851363191 0.31141183155382285 0.21437472493327597 -0.328834324136453 -0.3310840394025782
Ni 0.6947112163701153 0.01286600976513412 4.59467084272769 -0.05991595962934197 0.09531259396108101 -0.0767173474573969
Ni 8.41750940725059 2.4748025946854306 1.4308766637961212 0.4439881211931773 0.362527345513524 0.18939517216980284
Ni 6.844583465895846 0.733520682303276 5.032925681853658 -0.23946637779458116 -0.2204805807206977 -1.134083522536221
Ni 0.7261005213234826 7.378795299124485 2.533145553076114 0.2166393525977366 0.7219806800874147 -0.29913602574107195
Ni 7.638320218342256 3.940040422843411 3.8251101530157383 0.4179299906535448 -0.38938843157042613 -0.5764788668664523
Ni 7.5433725179334985 4.024624113700508 12.6343203889197 0.5223334911723004 -0.8607089220299693 -0.044312191653814004
Ni 7.926949300389928 8.68058537769225 7.050372757560241 0.41398180463907414 0.5142874809393723 -0.030120987755096508
Ni 6.8926988546165004 0.7228919251667306 0.48744819326903877 -1.2579117074384918 0.6669413318240837 -0.5368748793215851
Ni 1.6153126621976697 6.3249191962052835 9.279468811238322 0.8359260586583346 0.7963297844229511 -1.0452367388051418
Ni 0.029901116310683217 4.9253170832899 1.471106550218838 -0.33864951045466196 -0.5932941386515782 -0.16678823340356438
Ni 6.462976477756996 2.095174436617908 7.142919658197527 -0.005271018590952212 0.10170898440572808 -0.4815385686431256
Ni 3.4912797128319033 4.409682759771996 0.6648715431849347 -0.2676947765126551 -0.17755678477397807 -0.5540051112439685
Ni 5.860201345070644 5.395058813509738 4.7542006894917535 -0.20579135413963914 0.8693282882678641 0.23898172484867874
Ni 5.153316257672672 2.8560933314430184 9.450914106472982 0.7921861945682227 -0.3986860548222682 -0.9626793876272001
P 0.15493064810513074 5.547229942419509 12.496610983887377 0.2608957513129507 0.07594010297174017 -0.9010289618052546
P 3.977936374072411 6.028094685506038 12.542461109142817 -0.0987622430725783 1.06489230825254 0.2900060384153457
P 2.173866816029772 8.407732721692701 1.0778045860008998 -0.35924507521782645 1.5242869938087746 0.7805920619727201
P 6.385892462512696 7.783362137542996 5.803306818006142 -1.266252366093703 -0.3064212465485755 -0.06722046371055519
P 4.665855414348382 1.1301559360797213 12.629863955170025 0.4191039563569879 -0.6658892364104855 -0.8432652726322252
P 4.008142898859856 6.110410402171794 8.188772011786412 0.599109974002407 0.5155288095456412 -0.47006502078588724
P 4.707790347503792 1.0291813879194758 3.766894598752935 -0.39077348484341085 -0.597624390595816 0.6353836116224606
P 0.11667597745224198 5.618449753479827 3.625840157682228 1.0544333177027454 -0.46747360590962717 0.25576845738871434
Ni 1.3346079361890617 1.0834772322053743 2.38785876494874 0.012264162079333717 -0.5125725551307947 0.2084478179258797
Ni 1.9915975913775594 6.460925361655665 4.774037783275289 -0.902733088980555 -0.07900357238841232 -0.28405213482475594
Ni 6.069306758361419 5.600016815829099 9.105933546161205 -0.20615105147190305 0.3601197645132959 0.23660756818954737
Ni 8.835422053958375 2.0558779435576033 9.986913211793441 0.11397340359537791 1.553187736003525 1.0017539850311585
Ni 2.5184723925609083 5.151834394057613 7.021185465795835 -0.8770464828477282 0.6008454686362749 -0.6432920678362598
Ni 0.6841764310725735 -0.03000050960193715 9.190096170893536 0.02573931374763309 -0.13962838515932083 -0.6696278775173112
Ni 1.4058638902643814 0.8673447132229467 11.43478341766786 0.12732797052541298 1.2290189356635413 0.619842578564068
Ni 3.7998687749141142 7.061649378240686 1.538473515880004 1.3012257968450947 -0.8885256871319215 -0.09836937850953381
Ni 5.543082531448095 7.795045367142208 7.906608915122497 0.48821855176646245 0.4106848790553572 0.775809295872096
Ni 5.339660607266296 2.81545051107391 4.9752396227606255 -0.6452710459395017 0.4162541456130186 0.41241317460037363
Ni 0.9861983073290249 7.452789086586164 6.903948368035696 -0.7935509361262334 -0.7590251344352218 0.6584096402039886
Ni 5.033682878017938 4.460779947230267 6.9750714965308855 -0.0882986245370931 -0.10376998069981481 0.4431039188160111
Ni 8.247429414407609 7.1989566922311194 8.961017223937596 -0.15741887637352242 -0.7832456975454833 0.06691990175100088
Ni 4.751171001259259 0.23981884386361488 10.408239566268113 -0.3779832750572781 -0.17283623936985718 -0.21534377371476462
Ni 8.259772254030597 7.188710147478214 4.871662777520276 0.11662266829276689 0.11908218557685299 0.15149968267561006
Ni 7.10874372678755 6.028013363722284 6.857331107286851 0.6415655720634564 -0.12879529909955884 0.5896357159633846
Ni 2.1940707614155714 5.251019862975288 2.662325206568101 -0.23202123437044558 -0.6170663013705115 -0.7986489194744311
Ni 2.2607365525857097 5.270320232986052 11.360989320364066 0.3035380114635095 0.1330936693645966 0.7268112687068385
Ni 1.1294330757796927 3.1498727931283934 3.6745464846981557 -0.544950714351184 0.6470988431768596 0.11347358114082394
Ni 3.6091872635203193 2.532342274567707 2.5477328739306917 0.011790564877024855 0.16075334006339412 0.17462495583916376
Ni 1.3936565869476483 3.4702896568698227 8.157944730716318 -1.773273138168333 -0.5981046726663442 0.2308182152012799
Ni 3.5072007109400336 2.5209210818272556 7.135777798433245 0.5166045591083233 0.6918722907378084 -0.18892028941591332
Ni 4.094551811974525 6.858887064082662 5.994443731388956 1.0189387243405614 0.04863293051635496 -0.28956972220887545
Ni 0.7603948211075896 7.500922546814319 11.377322348843212 0.05971798468592296 -0.8378600424562538 0.14230516066053556
P 0.1704730481311208 5.4887053653784434 7.783049500463234 1.0457136784415602 1.2951191697267244 1.0122646547544956
P 8.537215072935327 1.605011902922262 7.939723145466807 0.07514203255047704 -0.17086008948009285 -0.9161802156243962
P 1.85035068875197 3.258527731976443 10.441380903873675 -0.46768469347916874 -0.3065796265033107 -0.27781952365148277
P 3.960660012901727 6.099838570283876 3.5989407187674134 -0.005154033397113704 1.8170027178457997 0.7893996329620211
P 6.944347223053545 3.9392091334983785 10.274776061923083 0.4216514053691899 -0.16231862766798497 0.762492524158532
P 6.595540021028492 7.723554483469378 10.228290723178993 -1.746736268220069 1.0684275750993082 -0.9643521473439327
P 2.498647948832624 8.352695945599274 5.701951864613006 0.08334462296592743 1.5869488916143701 0.44975767668710287
P 6.82521080985508 4.11538826012285 1.6113685556856385 0.7738256897831641 -0.04293330902841638 0.45216294369448573
Ni 5.376300588723995 2.8881341142417862 0.4638540330761052 -0.1867785604825622 0.13269129171985533 0.07896243473783175
Ni 1.4650661488367243 0.9951798465568802 6.916115010460553 -0.3852222160078785 0.23311575298620496 0.46372082373541423
Ni 6.834680279785455 0.7996262567408919 9.173445987457752 -0.11576417694721354 -0.9729473452121113 0.15435669250843095
Ni 2.6819291779048764 1.6599944644931874 9.275937638672684 0.564311378265983 -1.138398347861491 0.1617414150082763
Ni 6.256518540315076 2.1322119912406237 2.8642011132832144 1.029889052704478 -0.11597809273023253 -1.6117726355262694
Ni 4.140480548287593 6.6600010882835425 10.29187532232026 -0.1595912014344929 1.1236427868188712 0.45550254959068
Ni 8.11758563301497 7.107822079905014 0.393267628353687 -0.06839571496557897 -0.08128439800278904 0.11603902787515501
Ni 7.7806604471716385 3.9589793627041603 8.260238498924116 0.04524575921167692 -0.9145938449738829 -0.5142478859506886
Ni 3.3681133534607794 8.216563279596388 12.277358419134952 -0.8937128877598157 0.0941766805844249 0.6988911452578028
Ni 0.1233832174611324 4.713247942769008 10.364717051178767 -0.9259514360785474 -0.5401401803364181 -0.35825160095630554
Ni 8.710782866725944 2.1804267732525315 5.630379659156425 0.32458326216958294 0.9243192997917629 0.9008122178087583
Ni 3.7559369401798763 2.8395127233111124 11.431411274368227 -0.6015342671731835 -0.6719984346320168 0.9162378083352091
Ni 1.2498887090257094 3.3741311654585173 12.552803432885478 -1.0921395740042676 -0.08555911411874298 0.477706596491545
Ni 3.112437665340662 8.399455971257375 7.980905400334812 0.11572509617916198 -0.3306991452593337 0.6350653090510934
Ni 5.579686369890793 7.772708983871324 3.6885916603277114 -0.8223480628635836 0.7102050276087253 0.14121604136141488
Ni 3.126126832272454 8.477561026675465 3.5667255459212637 -0.16393250912232413 -0.2755302133966739 -0.33110486533818456
Ni 3.4004613518870594 4.3543929825735574 9.356185071304983 0.30339788634121945 0.29274837704717327 -0.41670383155592755
Ni 7.318400321057097 6.143960155846873 11.367760714224582 0.3576682176490098 -0.6623367431725368 0.2934451460038817
Ni 0.1058276514995627 0.1306696492854207 0.4159600203223349 1.9165388629699251 0.4489493218531945 -0.22330648020526705
Ni 4.594807282609321 0.35103812962601594 1.5484182664576476 0.14409130602668088 0.11207978611709084 0.020143050606778214
Ni 5.952040746189278 5.723562676857736 0.4003787665552184 -0.4463563643150378 0.25145388917376055 0.540505791205953
Ni 7.977648914683183 9.018106923283105 11.354271237450675 -0.10481950501025174 -0.0791426690694379 0.10814702672158795
Ni 0.08018689308217307 4.751686039223029 5.7093711220174255 0.3135704559988471 0.10560317725381169 0.16271072090008107
Ni 7.71702163350787 8.737384125766997 2.5882266043629185 0.6656316118737247 0.7206411353403847 0.7735456966489
P 8.415313719089252 1.5759348473536114 3.5660641287467376 -0.10025219735454347 -0.025307882637169318 -0.43413796787197484
P 1.809789190166615 3.176681874505704 1.4936679237581059 -0.5322998583563929 0.20802667122806107 0.4151940797796204
P 4.745957371345302 1.0465571423814133 8.208675066572326 0.31882039154387676 -0.2616251732798075 0.6090403457422414
P 8.490753227150988 1.904529068239114 12.405955266510041 -0.3768728156019187 -0.8723979283321233 0.17780026824335185
P 6.210752447569515 7.812656051201655 1.348486853949611 -0.37970694261660415 -0.7570950072920445 0.6277055262519124
P 1.8331556493650398 3.263696183121648 5.869496424953637 -0.6272416992416164 -0.27135397053179716 0.3048870692922362
P 7.004028376574656 3.9607142274242295 6.039289080827356 -0.473303582327843 -0.45747355727412176 -0.44042405799100276
P 2.4929554239698986 8.45897448121098 10.229917158854057 0.42249267032356264 -0.5383535207496406 -0.35126359967424664
