# total energy = -340896.6905629658 ev
CRYSTAL
PRIMVEC
9.01163216648599 0.00000000000000 0.00000000000000

0.00000000000000 9.01163216648599 0.00000000000000

0.00000000000000 0.00000000000000 13.18943458539700

PRIMCOORD
 96 1
Ni 6.333852772822374 1.8532331638025996 11.3584775868238 0.2813532478363542 0.15209489305744775 -0.5360156166450832
Ni 4.6372958475907 0.30428497275613214 6.0623124670667785 -0.5900216385478936 -0.06061375702731496 -0.20816859612256408
Ni 2.747520514950811 1.6669356899744208 4.723453360193083 0.5041817599639381 -1.1103530116885005 0.05817018058282885
Ni 3.494395585497207 4.313273597846298 4.975041912112488 -0.7095604520461909 0.4507982021364752 -0.20850772462953768
Ni 5.082425423353428 4.487810891567779 2.7347762646007023 -0.2364391609324831 -0.08184618404353002 -0.08164306689378843
Ni 7.1525505525261535 6.086546548555615 2.598147303167986 0.14389693062768763 -0.1020763950474758 -0.45045727385728873
Ni 5.011170447028782 4.4877478101419195 11.289298890573166 0.4579594957716049 0.1046572684007746 -0.1275118044014449
Ni 5.621095742033803 7.77629969142671 12.35592830182294 -0.079382810104702 0.4141777226999641 -0.3819692562882196
Ni 1.7158598415447388 6.418426941635681 0.5948650551626345 1.0318921991774357 -0.10568596677560509 -1.7219469770905313
Ni 2.731705100324562 1.4261268525712092 0.2531655875658972 0.22249735404041038 0.4042895170519747 0.990592054877068
Ni 0.5810412112670981 0.25888707289137053 5.021257167023745 -0.5469091236291356 -0.09598082367269921 -0.7822008012207368
Ni 8.578190776955017 2.4739994524232207 1.365000950913175 0.1972843451098925 -0.3779953592421361 0.45176853646954457
Ni 6.83367394480545 0.8017793412882114 4.827899980478641 0.20963001115943897 -0.18467925475137226 -0.7293720874554793
Ni 0.5475530846046449 7.315435805728123 2.4131916613841646 0.9455363001890101 0.011716002885347564 0.4757934386292322
Ni 7.387060258975663 3.9972626891860776 3.874646815926477 1.2831823090798222 -0.8122688242507108 -0.8438142031571596
Ni 7.407714920128576 3.7614553076903126 12.463910185446322 1.2335674742661724 0.0677313419087027 -0.03303944695347213
Ni 7.744407524838508 8.905727563283028 6.892455920911184 0.41884761737180765 -0.24993282454354376 0.32727957805482344
Ni 6.867701868240617 0.9300725428751839 0.3820769871262947 -0.4672440063973243 -1.7102595134502738 0.07680502207519675
Ni 1.9742233386014738 6.546896771215059 9.10557672971232 -0.6268444638031978 -0.2486812115246298 0.4811819566346551
Ni 8.95000171260426 4.878041603568052 1.30909638898987 0.07203125483563724 -0.6575663183670868 1.6833732305823912
Ni 6.187323632182594 1.9314631435008738 7.04034852151276 0.8789971788161958 0.7575230959683985 -0.4079962764796006
Ni 3.6809634082933553 4.295836089412229 0.48745270669844404 -1.3356143016272934 0.15558285160604818 0.396990155177084
Ni 5.816648162198824 5.610146608831015 4.943848147024874 0.637048143809077 -0.5118881274692604 -0.7231394762822062
Ni 5.206182169257863 2.866131618831549 9.395453904802102 0.466915419413312 0.6293618309084129 -0.3875058698357326
P 0.11518758478300993 5.495176204385608 12.546119701953115 -0.06113003454210116 -0.22153036214145072 -1.6438024102683046
P 4.033354276410083 6.029818323443228 12.488574121794231 0.18141395373653918 1.0974108497055357 0.5181608478518496
P 2.37743080106431 8.288115345955392 1.4512602949601605 0.13500708433722555 1.1040679500107373 0.621718198320226
P 6.358508598701246 7.666979580411878 5.628723187583465 -0.4059540492385912 0.302397212990847 0.9094747785797627
P 4.796252029124838 0.8521120109816533 12.489998860855433 -0.7991695678645914 0.197069400885609 0.28567372958857895
P 3.970155699330945 6.1202049950678905 8.246614977045532 0.7476261485696609 -0.06531424782677785 -0.9935161705023987
P 4.815140410353681 0.8596286134544481 3.876308560916266 -0.1731422006460502 0.9007841927843002 -0.8455268149728923
P 0.19745117108339755 5.6072989330350635 3.641919610339117 0.015368769146586435 -0.8066501925123527 -0.4685814942618252
Ni 1.3369387280378813 1.0504589383122585 2.56961827774133 0.6758630597937456 0.05285776723097994 -0.22173116529834716
Ni 1.90939365608225 6.709754989520233 4.719588271114337 -1.0957473459601839 -0.8771611540487217 0.49496744045452173
Ni 6.240068715833556 5.74898882714818 9.05044536583741 -0.8196993123868271 -0.46218818914097176 0.7175740663792868
Ni 8.51257708242868 2.3166383298001056 10.236306782431027 0.3190271082380441 0.8437522395709727 0.41071393252107974
Ni 2.3233429842057634 5.147002780169213 6.992589573994393 0.1452858405554143 0.17185047841782017 0.23020372154573254
Ni 0.45509463872210576 0.18047866287423622 9.379547472689968 0.38774806775352577 -1.03833924035436 -0.4346956401476578
Ni 1.4199448728369604 1.005220544338599 11.398071995509472 0.4646518201901159 0.6818596436968128 0.10750656492411163
Ni 4.096381632476174 6.691182015420688 1.5768626231526042 0.4887340579503002 0.9004183248044493 -0.17666821152143766
Ni 5.645580346899626 7.801054645260504 7.922510721447514 -0.7176247171115641 0.30015418259294113 -0.46897435882486976
Ni 5.179237388783513 2.833455440236232 4.743277148851102 1.1316247765830834 -0.3306091566486887 0.27525510535841624
Ni 0.7358646582442008 7.489937052920542 6.852162209561697 0.37838822380518056 -0.2755155581086546 0.37011235694963357
Ni 5.283204590232538 4.464741112967666 7.199215487887468 -0.7225015855878911 0.18736425778270313 -0.13122807691076757
Ni 8.14797545259197 7.23310553334897 8.802707484385124 0.354437369416538 0.6633299603237415 1.4040323851903753
Ni 4.620732467486399 0.23691581226444255 10.231717158118121 -0.6800601285942288 0.22674918733822885 0.4236447816501349
Ni 8.265342951220045 7.366144260487045 4.557134675097893 -0.5806232280521291 -0.09043701103633457 0.23747017330015877
Ni 7.473364661183976 6.222189637418468 6.842256623375273 -0.39852793197784914 -1.2078145336717845 -0.5416566169809446
Ni 2.434411351880136 5.207101355748962 2.5288370370862707 -1.7983447364249805 -1.425011558545204 0.07868424137578062
Ni 2.3602366067014127 5.22445775949264 11.48094116349811 -0.25047224198678153 -0.6242630762292668 -0.14214755203674873
Ni 1.1762252782119373 3.34731673528922 3.800034105419642 -0.7984514587516442 0.35927978511050385 -0.7899999855501814
Ni 3.746243672425863 2.3655805046349547 2.5631028676132512 -0.7858535674819757 0.9743807352245284 -0.3846995107351891
Ni 0.9506641226022381 3.222208244544935 8.215356328205605 0.7180576908839247 1.191257914864684 0.007661373199999709
Ni 3.61497122521186 2.659161460585925 6.923477563822523 0.2862146896937135 0.5261788330603195 0.39734342475144474
Ni 4.13492438367644 6.9074251432676865 5.896073084335526 -0.7218451829508148 0.2857853154657788 0.8668019223015845
Ni 0.8144028357659607 7.070580745437627 11.33770397212498 -0.4278603623933792 1.4667130520490483 -0.39352199412282546
P 0.33344030662525165 5.556707629495597 8.004918493864151 -0.20298885169383749 -0.4833416832901353 -0.3515345939474462
P 8.448188969890474 1.6298528232011922 8.116448257110527 -0.31020616751230445 -0.30270754514241416 -0.4001754948836011
P 1.7737776021161946 3.267545766473517 10.513588399103082 0.14501536050284702 -1.1411530277884927 -0.48670802865920704
P 3.8251495245440625 6.093368354180727 3.795734655665692 1.492088297589043 0.8664604798017658 0.31672160003331906
P 6.944571091466774 4.013970255406629 10.288141691223155 -0.12646613674574994 0.29695393048808855 -0.07387216469911793
P 6.316352182962445 7.8045601702118494 10.073945105063693 0.8350169165805037 -0.724012880026095 0.6547504461848466
P 2.4011674404520824 8.66312541105895 5.910462858737346 1.1505915474935733 -1.067984831134935 -0.27868212876209425
P 6.792508808615874 4.000407748846796 1.4397326149659166 0.2762609209151113 -0.6414061636674566 1.0999012202275573
Ni 5.265298476920653 2.728695215147828 0.31874774137930456 0.00858902722059166 -0.06234745188897004 0.04967345596572736
Ni 1.4347960428107829 1.0944987851945838 7.22750660622231 0.29979499948130944 0.15945416163599635 -0.4309073767498192
Ni 6.799231486286063 0.7181207543130982 9.149088494943879 -0.18384338911363823 -0.03875732327385583 0.24607385580876975
Ni 2.753342029394434 1.706758092956413 9.27783047581768 -0.6692648377509377 -0.5518824084740108 -0.10706330673910593
Ni 6.252964361605728 1.9548753641270824 2.4622563944178273 0.8359792804937732 0.5413282871072483 0.9648949072212801
Ni 4.122145889123721 6.891672810067297 10.410499831799958 0.20168581661169782 -0.5752413949149254 -0.39089766912610097
Ni 8.050541684535554 7.2436761779966 0.30090200600359995 -0.38506177917061424 -0.29994386635434794 0.12068655394949537
Ni 7.589812973320953 3.742846287061706 8.102876738918429 0.15998458021816964 0.5075468197814291 0.20116002601521485
Ni 3.1248826160757077 8.23719962365436 12.468236670097069 0.1506311640277277 -0.5931689259276236 -0.10710650127221553
Ni 0.24483703702596574 4.763521780735927 10.180674371802144 -0.9120021729873068 0.5699297528940249 0.03649938047761456
Ni 8.623717543161177 2.2876388971691823 6.0262794554525 -0.19084707412498103 0.9835289773826996 -0.7874229688516245
Ni 3.709908771130685 2.5126683664752067 11.380820126700074 -0.2308315849377186 0.041641072579554086 0.48249424768817556
Ni 1.0855412227225085 3.217855626160617 12.585464488425027 -0.645805835397049 0.6943750025550041 -0.15505269013419104
Ni 3.0875564352313063 8.458489265570133 8.062372155373925 0.6608866409895714 -0.22929509368853412 0.1816371254909388
Ni 5.699253628673952 7.832946811848707 3.5008587281581445 -0.5310443886827371 -0.06709679364849734 0.22933674555974698
Ni 3.1568198408252393 8.353936308023838 3.6992408008545854 0.460073199680498 0.6418288530271721 -0.6535399708165132
Ni 3.175464907982909 4.204349998651155 9.208678814463841 0.8535993075683815 0.5632513124325847 -0.4081088907980649
Ni 7.335009071009158 6.203607651686658 11.313119338141009 -0.00582740531505448 -0.8188644751903573 -0.23706908120699816
Ni 0.5711788809155498 9.012082847282457 0.33505789461693924 0.3159029607867656 -0.07786354524669817 0.14999970109131588
Ni 4.4986428735511135 0.28633740593582546 1.6181989803552288 0.07246551415957843 -0.8624904394104242 -0.3918003834460284
Ni 5.9879592915691955 5.578804151811018 0.23775119057547006 -0.0798270967309722 0.6053130174893253 0.3127374185745904
Ni 7.991055899949873 8.764244936712021 11.39291463836383 -0.4086354527254963 -0.31521596202207003 -0.32395899832202274
Ni 0.266198210148508 4.914682900360263 5.687258244965119 -0.5502680127990395 -0.8697301516919731 0.34579434902955924
Ni 7.954009079705707 8.885262146407694 2.385335804887755 -0.9140726823630904 0.88857093854756 0.4466134746311663
P 8.548497448639637 1.6999092524345043 3.676396313061115 -0.7485969971233624 0.035964076799434835 -0.5567073406664799
P 1.8612445048867796 3.174248337627044 1.4167962085233352 0.4165760477288116 -0.12434909040274714 1.5963251906229474
P 4.572132734677646 1.2149482620575178 8.210449494436949 0.34134299812642505 -1.6118772794249336 -0.1635661269218409
P 8.527797729325394 1.5909856532393611 12.395655181502915 -0.37810437401617464 0.5109967260032425 0.1303204774948336
P 6.186692817923998 7.788050859901144 1.3086584236617584 0.7717351258027224 -0.3559604909292838 0.5984047204052663
P 1.7945584261208278 3.1283881410270533 5.940864501348808 -0.9842781968438986 0.9719911519464293 0.6425996697549256
P 6.9729036633100385 3.8474443027693277 5.941536769115826 -0.8674395558855836 0.5543918051594259 0.41940863208160034
P 2.3485034614915117 8.351836597705939 10.361540534863805 0.29194644997116814 0.5342317852717832 -0.9607742001846873
