# total energy = -340878.3808067227 ev
CRYSTAL
PRIMVEC
9.23410461279244 0.00000000000000 0.00000000000000
0.00000000000000 9.23410461279244 0.00000000000000
0.00000000000000 0.00000000000000 13.51504549841832
PRIMCOORD
 96 1
Ni 4.748702988003923 4.328717437393247 5.32650954569525 -0.21993293574734385 -0.5227690360478223 0.2681393202492414
Ni 0.9805880478089994 6.300568158060847 14.019022014059528 -0.9750312243243338 -0.7329536341591506 0.6036775387684313
Ni 8.56315466565464 1.2362342368212804 9.911407826763728 0.14120781383129874 -0.2576479337996143 -0.08265479598775442
Ni 3.8206569960186507 5.676278040648772 7.763434103471959 1.2732352251694394 -1.6071842448246385 -0.46384243691494315
Ni 6.811149510022417 9.367629868354655 0.2716442754296109 0.20355063773457846 -1.0614663132901265 0.4933311904026794
Ni 3.5818445799003333 0.2948098739260931 9.27460549746393 -0.7342160458113419 1.0335356483181297 0.5051700920191365
Ni 1.4219320826235913 1.0932348912173728 8.107635356693299 0.3552855763494462 0.8586785218635019 1.557964074346246
Ni 0.4170666501105214 0.5008061287111308 3.914768221034236 1.1298077779790026 1.2129112314684014 -0.4096255845529074
Ni 6.014089293407893 2.121886454063718 4.892743940619591 1.5308597619302862 -0.057036581199017895 -0.09147753648570697
Ni 7.010061359670729 7.299485903727509 9.729061960972668 -0.04756695114568582 -0.7840651081229851 -0.30872752608424897
Ni 8.263978907019679 6.3232009487153205 2.640069321026007 0.14291836876450226 -0.35485157413582114 -0.17079452634948003
Ni 4.11473552885138 3.568833726358043 9.275632329908149 -0.027328769721940028 -0.8289110607930821 -0.5697703444980251
Ni 1.132387495205528 7.923185038437875 2.584184519295744 0.17282698339847657 -1.2811117997040389 -1.0058669787582675
Ni 2.6146275157174776 4.650175090703542 3.7577505810637195 1.0035848675923102 0.18478492709130112 0.7142591430734408
Ni 2.6734395286421377 6.913038621438762 9.249791611275965 -4.886290540971933 0.2620378353371939 2.0155739000879156
Ni 7.204577775475089 5.294263128622835 13.44228107205222 -0.06869216316007523 0.061904193703964355 0.24106200441647516
Ni 5.0537885736559645 1.3765279897439313 12.856038236294012 0.023280053573863133 0.2110160928736882 -2.2228750060038625
Ni 3.2146411718359533 6.0154928773244505 1.927272156749388 0.0242897257853001 0.8066532778361462 -1.122794322775647
Ni 7.611903368522614 8.722258289880092 2.6434351521943285 0.625990857553651 -0.8277013567556971 0.06908091395806167
Ni 6.489387131256553 2.3200226389160394 9.030726328088939 0.8346669894402529 1.5405718470117276 1.159642859062564
Ni 2.496098547606167 8.177344536591171 0.3076609774568278 -0.6671758164323929 -1.362628368322292 0.17960723954510358
Ni 3.2749768120384544 2.9974365607488345 11.58836741338375 -0.9232903443066164 -0.09155724068370683 0.19929417645106967
Ni 4.489039963440971 4.115298809238945 0.7754727266136953 -1.4005089454181494 -0.32730708885864923 0.6932488593703608
Ni 5.692132998443032 7.185121516842297 1.4282703720994094 0.3797964170066169 -0.045912960482030606 0.42120917562544874
P 6.103336915470516 1.2761902079195697 7.269986632807566 -0.22387058023885315 -1.298735683433389 -1.680591554072196
P 1.0108205066432492 5.081573994740955 2.438979146075617 -0.7198206963216183 -0.3114233277488572 -1.3348591686288236
P 8.162219073069332 3.8492734865279177 8.571188336755982 0.32291075956316645 -0.038104520181205345 0.8718489978071888
P 2.6553314492976163 0.718184340966876 5.683698567197093 -0.7505569490632106 0.13311320974862237 -0.33289641002096865
P 3.52551654114379 3.0125435560612455 2.622405402118238 -0.6736418837727108 0.2342979462197642 -2.67213028913325
P 7.758005373310489 8.88195289680725 11.216123107555894 -0.721603499253654 0.1357305927668114 0.1494011482753685
P 2.6393656822467864 5.09583145241966 13.316225385188373 0.5213698417074505 -0.8317806690313931 0.3946134274147914
P 4.509622782848895 8.587246444853955 0.22812301650117378 1.518174967373766 0.6028889814288649 -1.3369985835693297
Ni 3.0259422420015314 8.677694500529421 11.464096678961157 0.47312180533434006 0.7817336317763312 0.36326499501049697
Ni 8.713652104286467 1.6359878640031718 1.3178295563072555 0.8205598606149093 -0.6606544703741074 -0.8422558575311043
Ni 3.5112129129415135 2.3803213426996837 4.567733927225748 0.46990304128672616 -0.8448218184860676 1.1024414701509078
Ni 5.26421535188287 9.016641548168389 3.3281477103932176 0.31852445757001274 -0.14390053017211346 -0.20118882237062127
Ni 4.874083661813161 9.432822647636819 5.672359086608071 0.23440978920728014 -0.0614125987795265 -0.09965750119333805
Ni 0.8665099181699271 4.497406062312025 12.067408757283541 -0.3717745751434049 -0.6456551687517977 -0.23467152750909906
Ni -0.24106830789999323 4.145743652481622 6.668093836379753 0.4203812804075147 1.486432899075479 0.1163223634435287
Ni 2.1883350715870113 6.439698413789509 11.684581244042755 -0.06333244151005867 0.5287239680796765 -0.32050934921052543
Ni 5.587879956219855 3.710078592066256 12.214330750570037 0.2905853079575834 0.45411672498674693 -1.7597545348566082
Ni 6.5980263732189695 7.443547171373547 4.767418671438638 0.5563777252412031 0.4561810637149434 0.5701264422858632
Ni 2.121203130314868 3.6099254923361777 7.835915361605032 0.08923913407349147 0.9199360831224026 -0.5608095357603117
Ni 7.8765989801547995 4.113664372704535 10.764787771440554 -0.39960599553337633 0.25371748839695657 0.20222523405493562
Ni 0.9216809236057831 3.1522001557586172 9.766728797512311 -0.6258872420962511 -0.2781108296396565 0.7112517237056847
Ni 0.2890450223530258 5.2533006401107 4.463086588731275 1.02886549653597 0.6564833697155532 0.9301467051068174
Ni 0.25936014592832723 5.720038462889306 9.494063230101311 0.17329723816667572 0.001103517476823906 -0.6972024447014702
Ni 1.9240826969811076 7.440786174064006 4.847238272588076 -1.8876756588813295 1.1845923299190502 -0.542125329087247
Ni 7.2677205835107035 1.748985603390684 12.053771831441628 -0.10633028522782333 -0.5758936837869437 -1.0712059091753936
Ni 5.39103654602752 8.231003919085316 11.52210347795474 0.5532026699473311 -0.23906528570142055 0.7289501694267123
Ni 2.8761373612232677 1.208291835956149 13.342161215099113 -0.5468188779081744 -0.574640785216449 0.008663074991636693
Ni 8.43774628953126 6.616115984354062 11.518792128004232 0.44202662659143227 -0.23087812190493787 1.2744485287512501
Ni 8.247135900021002 3.6211264613544873 2.499432059407989 0.3061551373713824 0.9315980928413633 1.0593438676304854
Ni 6.184818655468507 7.9930595088101315 7.165542444616805 -0.9738778274461808 -0.7644650745038705 0.10325267474376411
Ni 6.563712440101048 2.9233144022080517 0.6877902853001278 1.9592585133256386 0.09216427814008644 0.31848229147816765
Ni 7.935374056660603 0.21413057762776547 5.370595008421723 -2.479510696488878 -0.1705163329874289 0.35878870440669824
P 1.4161330648630814 0.5428951779983975 1.401171968405155 -0.954221486667834 0.888221011407309 -0.23581772529840034
P 6.914063607062037 1.4512041945675656 2.6017136202746864 -1.1306742397443559 1.4232621799542648 0.09519843698071993
P 5.04674295175904 2.012166821849742 10.60235063541328 -0.27406417037410863 -0.49943498930757213 0.8364233100097272
P 4.433820017250129 7.53791048744783 8.791388491412384 4.804079774500133 1.847944658840295 -0.6460385202331455
P 2.5517524967185747 4.62031199605786 5.883856097571351 -0.12364332258497417 0.08940856977182021 1.41351049988414
P 6.512001453701598 5.046946102062751 2.1009407343405266 0.5424557158434722 0.6896775970793348 -1.8354611816613036
P 6.323588781113316 6.010026287333651 11.472908785089908 0.3991465393984545 -0.5606740386237119 -0.553500403693408
P 3.6226039181087573 7.489255989708775 3.509005961914822 0.5496887432568017 0.2536151584911374 -0.2417909121626997
Ni 8.41318357099152 1.8602103946730726 7.05433981518573 -0.383539686099133 -0.10549004871471511 0.44201994172321296
Ni 7.226554944694856 5.071748907325059 4.761174569830906 -0.5926050830043536 -1.1172029447307987 0.7402887343679831
Ni 2.9063144154292324 0.42131895533140473 2.9462122116678224 0.23207651308841323 0.18357393750233547 0.8056358923152255
Ni 5.31597250880589 5.933521729776608 3.6009490191435156 -1.7925810944683256 0.5042144129740865 -0.45479575333164257
Ni 3.1835868776821408 8.435049930954717 7.118279526458179 -0.8140881368476367 -0.6970954868099608 0.5002559425469707
Ni 0.07939483233258415 8.510917335286482 13.368934578307428 -0.05073300757849328 1.1738003815098688 0.6478807156482068
Ni 4.639084930941803 6.052004527364348 12.927370771800637 -0.14910752829434964 1.4527231655278594 1.2224865338616624
Ni 4.419830348608135 5.400261416636994 10.7497047848004 -0.8273457731884912 0.3638658618192895 -1.5805033930993426
Ni 6.483495772448902 3.520483954074557 6.955355753112468 -0.04861133324980015 0.04350049438579605 -1.125857792192319
Ni 1.5689205614640278 6.371559955103521 6.8778880784337355 0.07072256332654273 -0.5821952005249392 0.6092830578806668
Ni 1.6864522462662064 2.993188872580309 0.45667911251344295 -0.523646296446453 1.5000394341153198 0.23053873628764812
Ni 3.7675147233885014 1.8942103682307112 7.22184555129062 0.6675527401558374 0.15098726181556577 0.042106185141430705
Ni 1.340219490007746 2.741310198291416 5.651897233971903 0.11796864079770006 -1.2774567194499549 -0.8782348467288745
Ni 1.4837636477897906 2.5743298827447636 2.8607976664720596 -1.2938557296332684 -0.07148592385512849 0.18647337053731758
Ni 4.829122805959782 1.6723702365770705 1.5870720411007062 -0.6518823806084322 -1.5630103785209017 0.9026343586191616
Ni 3.854509223900862 6.566981313169871 5.594891411929338 1.3575427262692685 0.27370730125532217 -0.2564402866447584
Ni 8.405980969314454 6.515805904843844 7.14072855842884 -1.003370437588659 0.08425659325723554 -0.10760375262360822
Ni 6.222142906723253 4.952471976731899 8.832244787720306 -0.11939663149347825 0.8749142669960739 0.43656174682211907
Ni 0.6092616119897344 1.6639949036013024 12.181002096425118 -0.15797757709046986 0.23110797852755685 0.09665136737716257
Ni 0.7180292080076777 9.135844605923834 6.381156036722505 0.6280829641959892 -1.108460422651478 -1.036433538691215
Ni 5.930631455001067 0.0782590374527391 9.35784448758903 -0.029700355277910137 0.35701952832141737 -0.2080834926079255
Ni 0.6985092340523567 8.509384473903927 11.186646921897738 0.1904200138898914 -0.2426704865541756 -1.5826073268162228
Ni 5.497505773382102 3.5448435223105843 2.9838790482074646 0.5797287412623177 -1.5190013199298034 1.9302222739942883
Ni 8.163631891090604 -0.38420616507461375 8.06153593572866 -1.6849434032829884 1.604314122365695 0.0009999020194240843
P 0.6378069998927023 7.914560384634824 8.322105749374547 2.40246733315063 -2.1640353101578347 0.19477417709352907
P 2.314325196307386 4.7989642199632465 10.02789328750179 0.42158507090762876 -0.11780846107075195 0.04964414538968869
P 8.873346711213626 7.679820208695463 4.35502078467161 -0.05138246823703409 -0.046868896637396705 0.5703766106234565
P 1.6937933595139856 1.1243445899994704 10.361201990802275 0.5695050066517805 -0.20254636483978022 -0.16931151404605035
P 7.823761432980218 7.306513057415005 0.6986680606534407 -0.056439828155283436 0.43441050480707116 0.19375319202818245
P 8.374418799401361 3.3522108638679184 12.885676942195138 0.6376518388313469 0.013722234682098947 0.6077000296642631
P 5.8603599181260995 5.676527361476055 6.633995057901672 1.0317078510807716 0.9834251048149837 -0.1743364780644675
P 8.546228551713535 3.160778639038097 4.7388206491388 -0.3338968262610249 -0.7580190617682108 0.08185235469111708
