# total energy = -340888.61670591275 ev
CRYSTAL
PRIMVEC
9.09104037909608 0.00000000000000 0.00000000000000

0.00000000000000 9.09104037909608 0.00000000000000

0.00000000000000 0.00000000000000 13.30565653125482

PRIMCOORD
 96 1
Ni 6.7704615746228916 1.8557904813412325 11.290595142531572 0.37045688477324584 1.4463913097725607 0.5269524780015505
Ni 4.806096795425064 0.5428133066231549 5.627042307193866 -1.0563030239216324 -1.0856128286293434 1.0679354659542382
Ni 2.872405187203385 1.7683710349551462 4.491870431794943 0.43595085271099754 0.009400724488609617 1.223931750948621
Ni 3.5855064116755755 4.5595750475411725 5.0170707563643955 0.4010352717807351 -0.8094418963248771 -1.3826986567096058
Ni 4.109368535069068 2.941278910770459 2.8628986860505217 -1.1982130060262783 0.8511683295293857 -1.5864002181997519
Ni 5.51557069469883 4.822442486419466 2.5187346166285947 -0.33508519014217125 -0.15423533643921827 0.2815982739676247
Ni 5.478442884898417 3.0425076478242308 0.48230970413424906 0.17239066719200632 -0.40295717139379633 -1.541406427097881
Ni 5.777247207258846 8.298365494732119 12.275120293292478 -0.8288997479391725 -0.34231718911423625 -0.34440466777088424
Ni 2.081621020825089 6.603368248439836 0.24335533844376264 0.2896810509757592 -0.36824805004738514 0.5918975154143677
Ni 0.8201209543866051 0.10106691653113518 0.1709188360665065 -1.2465163211173564 0.2894609645451531 0.04243760033892046
Ni 8.217373414048502 0.29095602701255907 6.943037707390332 -0.2713462572223133 -0.1238225284753158 -0.5194780240013763
Ni 8.893965019480914 2.7148756357289567 0.9475300701532148 -0.25152562295196035 -1.546081721086363 1.0781795122797497
Ni 7.014719653397991 0.8745726511497187 4.731611172497119 0.6364670744946265 0.3412560948395736 -1.2565433663360552
Ni 0.9000802928583377 7.620810238996366 2.4253550840267515 0.054744956951363784 -0.27362836838827065 0.18613192803749878
Ni 7.745412041426452 4.032576515141524 3.632071630720311 0.9466562727260666 0.4109628153070923 0.22726032264669246
Ni 7.978597232753729 4.247434168624132 12.524335716505423 -0.7844152923735523 -0.016910659712409584 -1.113378685888702
Ni 8.376339349937345 7.320514985977939 9.357163538070983 1.5310628790800276 -0.47871986824740775 -1.5885285773966644
Ni 6.822544146206283 0.9638412151933475 0.30402257966342444 1.4076129034527822 -0.15884275330424258 -1.209969632341574
Ni 1.9220005300132232 6.883872306077386 9.246660121399586 -0.09835240922866932 -1.6668405230346908 -0.9100990424273229
Ni 0.3075408123746781 5.07761890495223 1.2115520711873986 -0.770478370577486 0.8125650153348909 0.36638991379272384
Ni 6.4737027363969135 2.057402488673203 6.852759128736316 1.3436829375680406 0.6703339024454004 0.2563094174938489
Ni 3.841255565765985 4.532792841940776 0.33932581761590863 -1.2744014775633987 0.9785328097196889 0.3343025463398759
Ni 6.217562667560809 5.906994538667146 4.842633687586636 1.5867501453400028 -0.6174427108733238 -2.043611780061738
Ni 5.653036319574454 2.905278390004143 9.024255995116949 0.3675566804073154 1.064488130835586 0.5110826008488295
P 0.2511999973753926 6.10186099387573 12.324311004861785 0.4320815995635784 -1.6317879023059314 -0.47858154289733057
P 4.225388395175061 6.416992825149367 12.666758685818895 -1.1540512239073997 0.5940019633518802 -1.974023073229323
P 2.4632538140698377 8.530477943268885 1.1887353774956557 1.2878714870253753 0.735901661043881 2.667930135008973
P 6.634541426648851 8.195027636259715 5.855127424745916 -0.06807278440852148 -1.3141962409628334 -0.11093847342379602
P 4.874188689500748 1.2836912965371146 12.344868574965037 0.4239366018589409 0.5070608812839461 0.5299984639167259
P 4.4330641265856014 6.267990669755445 8.25698489614017 -1.251363879017645 0.8524032303777515 -1.680156009196674
P 5.077827998885973 1.235363324720514 3.5293392355517037 -0.47521519752825897 -0.9701109042045808 0.45711026039743213
P 0.5727837401611136 5.621708593675281 3.411996629038766 -0.4673031417700339 1.5912079240010402 0.10402606257467892
Ni 0.9105586262510793 9.518592236857703 4.216789179873834 -1.108446538694407 -0.8534946636697173 0.16407571956840775
Ni 2.479354046968107 6.709460692213299 4.596545582339249 -1.996303481894078 -1.0712102800507681 0.3424331458668103
Ni 6.358755619081432 5.545543855548968 8.880461187777307 0.4087025585180058 0.6908785593659714 0.8397356622124118
Ni 9.117404615287613 2.643274599982616 10.243705453271444 -0.7355455632560428 0.455960463063705 0.42521264035788703
Ni 2.744985162188058 5.6086629504177905 6.899754354001315 -0.9269989035064551 0.9575253542300863 1.0889683753651374
Ni 0.9243770079593625 0.10665790649863131 8.651431511107171 -0.687326580348655 -0.39736759312116077 1.5100878194902574
Ni 1.6423783033136354 1.133016389673243 11.331815738809004 0.2911447800054792 0.846086029910472 -0.17937738292248462
Ni 4.2838710593391305 7.110111942388134 1.4721376588757065 -0.4645559180421999 0.2588131577523091 0.16386437488855007
Ni 5.748864978513279 8.162790806300785 8.011468617346369 0.0089662080543523 0.2172222216844001 -0.02093546460108653
Ni 5.39548713944573 2.92138771394301 4.914351088652626 0.03436253664026986 0.6122899630277906 -0.34149340766136027
Ni 0.8543887228150279 7.876541211005581 6.548459272334665 -0.003016418228820611 -1.2889060989374772 0.3078471803618247
Ni 5.2046025600188734 4.731495716281529 6.772686152257114 0.6569515676012234 -0.2733702296308776 0.852258477269771
Ni 1.3431467020451222 7.749639375304314 11.513903827353667 -1.3690054754932293 -0.17252462166670932 0.42916802546120925
Ni 4.972381018994937 0.8077080475547039 10.049829012383933 0.17580920595525204 -2.5277281367343694 0.008872105678649237
Ni 8.531250681719678 7.492726568017418 4.495981400353158 -0.6388818545837062 0.4779480230783898 0.4901306811875108
Ni 7.560518457753383 6.315491356877669 6.776850757954852 -0.9209575824083815 0.8767893725315997 1.2499973376874214
Ni 2.748721579873653 5.2429849334217495 2.5551915076329084 0.369267492450835 1.2200046479800732 -0.6527293019897598
Ni 2.4115076109885565 5.486361181258887 11.378279138199048 0.4856947569033442 0.16888162559748335 -0.029118514632511146
Ni 1.5424132209029242 3.6772077381831103 3.6630602608051954 -1.3278143459669003 -1.0290105067542665 0.6300022927058891
Ni 1.7485889306148674 1.571813646195416 2.3341319462546486 -0.1562009448060213 0.05322774897588898 -1.0969380238341753
Ni 1.4618029639244063 4.085950014489767 8.280110685212229 -0.021094358776453995 -1.60994226718575 -0.40712107296349886
Ni 3.551578648165502 3.1058267455861994 7.294108240354222 0.21515351208082947 -0.27818050653532733 -1.3181266863654912
Ni 4.5895118442289204 6.964555291380685 5.886103327373965 -1.0176048360204861 1.803282797156546 1.2536804429659634
Ni 8.21162787639085 7.3383606986709395 0.36800350518089503 1.1283556189135084 1.1157489858930913 0.9451308372204755
P 0.4198206183788373 5.932194903203567 7.724452647328788 0.2703021322285151 0.7614622831218048 1.5272514757537377
P 8.988275474639947 1.988010575792068 8.167331781079262 0.34439541179950367 -0.22622751050680392 -1.135554964875425
P 2.02785660673115 3.5666152293138573 10.47912249506542 -0.14993696617418048 -0.3080353851132308 -1.4941140697698203
P 4.40195458566077 6.328900641759062 3.6720685729333127 -0.44945094407996145 -0.36896435938811944 -0.11383636379688136
P 6.935045773601022 4.176824056302924 10.453190301760896 1.6298256363732384 -0.9632992805993862 -0.4599783259738465
P 6.583304321841033 7.9395966685902195 10.079008525389904 -2.0330828555059566 0.404732003906032 0.6935203678641927
P 2.453444581265076 8.680207381910611 5.427803061457858 1.804404826576131 1.0813108588198797 0.824529643895935
P 7.176767452049405 4.154951012625207 1.264257379051722 0.7271529683169735 1.0893108463062209 0.3376922887477152
Ni 3.230028542229992 2.1794860728577654 0.3434340588619436 -0.6923250620045109 -1.028603501123835 -0.8274344762475557
Ni 1.8155080804534673 1.2899732055900248 6.821863227265525 -0.5004534032697574 1.0448860403339424 -1.0025867653450993
Ni 7.477653622706672 0.8568333036317103 9.288838913356003 -0.49633346756411295 -0.21818407137703716 -1.0309457761037664
Ni 2.8912509143621157 1.6595149148400263 9.016591338789151 -0.6541171834762218 -0.4565711000645104 0.7043387986359353
Ni 6.618241190857435 2.3317882759885995 2.2915531485119414 0.5735411243943671 -1.2410930932192563 1.7262769719244526
Ni 4.396890876047931 6.925691092826138 10.33721771506601 0.3669894950499357 0.9216669497705804 0.6391623619386024
Ni 7.268641508328292 6.488275674474793 11.771182094472586 -0.06256702409894385 -0.9948706276477641 -3.10232829852087
Ni 7.971933499995721 3.8977018368362017 7.949690450965684 -0.18274887049787883 0.15644931337140153 -0.33746988832426394
Ni 3.2766655804954476 8.80003638802698 12.572688234131638 1.0561873242793747 -0.2691178821124269 -0.6533144850692685
Ni 0.14693667097015722 5.1415198293124424 9.922733537517939 -0.8839732918745487 0.13702951408389305 1.616372853302442
Ni 8.921847240993614 2.369206999088134 5.4528443327838225 -0.019279417054902284 0.9873691770643964 0.22193839621314682
Ni 3.912238410751692 2.706257329242475 10.918542487868526 0.4656743479173593 0.3780174707293232 1.598119563519209
Ni 1.1849444135664755 3.5162599554440015 12.436158986437562 0.24374263657243184 -0.12848342428609485 0.06618610890876989
Ni 3.1265179539862338 8.462958784750846 7.809342966220635 1.2114451884458362 0.03268874848227274 -0.6693975066740601
Ni 5.641754338192889 8.093080706998736 3.4764357430023534 1.8949385110913297 0.49683200446708636 0.25189791868971456
Ni 3.3473484211414353 8.463595157592675 3.350297554711282 -0.9737225328152392 1.7762710444543923 -0.7847557064321066
Ni 3.7553361410784953 4.5189471871107 9.308877385041134 -0.11756034961568787 0.30727536701875463 0.1485079470371378
Ni 5.3420590938539005 4.675440359957007 11.714553093486357 -0.5588704097560697 -0.35364958340791997 -0.72411083905654
Ni 7.992251975731256 0.037544179459781425 2.1901107720041275 0.3743379649952069 -0.6522125102543412 0.5546797687134898
Ni 4.797123938355277 0.6104524668770813 1.4267651843573708 -1.047758219675415 -0.739372650311617 0.38060631450242194
Ni 6.050796618839266 5.883194194382748 0.3401121926275972 1.0583069417255386 -0.009533650522048099 1.0556034267514467
Ni 8.190754847178864 8.748608371366613 11.278765880506036 0.5095497091440708 0.7569242860421351 1.5027383211037215
Ni 0.22962968534957456 5.488333937068557 5.617874901855293 1.1425781902707937 -1.935071888777106 -1.2114711565877652
Ni 7.5511637769785 6.488693862342281 2.5966384708212202 -0.13822919081894905 -0.7738861107074542 -0.4530844270674907
P 8.520986896885038 1.7988260209569544 3.267217262002409 1.1859041067519382 1.063046513293053 0.2914147458374143
P 2.0048199098569466 3.7220992966538353 1.196895495536021 -0.038804117351391235 -1.3215251705240787 0.6792877692045786
P 4.807924094585172 1.2781184886508137 7.870016571168715 -1.2648811967777893 -0.8418421670324533 -0.01369061011321513
P 8.793636295446301 1.5833592677543102 12.306868025267256 -0.8899655049022416 0.7828214655238712 -0.16555230411393423
P 6.322700552071529 7.922423692901438 1.2327114681782072 0.4905340872735165 0.7441173640854539 0.6427721907770478
P 1.8068352277234003 3.557369641026144 5.910625500281809 0.5091097933931749 -0.6348261964570938 0.27435573347259845
P 7.080856973745202 4.1436144850000565 5.800401178556757 0.9454637950798619 -0.47168095912275537 0.4468137635674305
P 2.5792827652164285 8.651870608368032 10.160386066194855 1.792625831663332 1.5679769784975577 -1.3733228719216606
