# total energy = -381166.2536009771 ev
CRYSTAL
PRIMVEC
9.26057157976487 0.00000000000000 0.00000000000000
0.00000000000000 9.26057157976487 0.00000000000000
0.00000000000000 0.00000000000000 13.55378257990599
PRIMCOORD
 96 1
Ni 5.5126330098201 7.253148164978475 13.020617285901642 -0.991271597442596 0.7443780739460083 -1.605261573880629
Ni 2.4382714368928786 6.601259493944212 10.759032923176992 1.1284988293595921 -1.6007780841879786 -1.708853634241683
Ni 0.5549517866153445 5.084007457374993 10.014510755305558 0.5165479948387749 -0.6719855791162104 1.999296503084131
Ni 2.016415362223236 8.16960210354659 12.23135359282586 0.24432396299719852 2.9149121044543085 0.39746066705559935
Ni 3.689457993343262 1.3166217547560353 3.6084779996971243 0.23730896513194613 -0.5432059637459354 -0.19933402855006963
Ni 6.911173780173616 2.5070960043720203 9.075992579052325 1.8336963764513967 0.5154061679248478 1.1199640524157035
Ni 3.5376864868287785 2.2821937646251933 8.503101213303426 0.9415351494494173 -0.2528230016071452 2.5115188739643584
Ni 0.8002884034611313 6.054774647862531 12.312839213676567 0.04333465823189311 -0.494404111751884 -0.24380742837209624
Ni 6.037022132273521 6.909803215589801 1.5824714635586365 -0.3720386274380689 -1.1365471535853653 1.7520160285617696
Ni 2.699058391249726 3.8197820162353433 3.5129237186049864 1.0562194630688906 0.7850783798788479 0.04938986328703752
Ni 6.446330132544047 4.792336497024748 7.156979907995075 1.412034686669562 0.39695801638756795 -1.133990962822415
Ni 7.676069205372029 5.785069763139374 11.597903645729664 0.005779068575622305 0.023461830567366046 0.1532655163267812
Ni 9.281593009596142 8.215015946242728 11.031165929750662 -0.7740969411666797 0.43140874186626993 -0.953855104467351
Ni 7.399604103444919 8.646160374139171 1.5881778277244933 1.2808292354666133 1.1674541275768668 -0.21801412145807614
Ni 5.58464321389946 4.1628213667641125 2.8758686310190664 -1.408762186565877 0.35774200830973873 0.028298075613744814
Ni 0.6846136786442991 4.2065960883025815 2.1643353970457695 -0.41224939532899973 -1.4610900494353158 1.027561947233198
Ni 4.858105075904842 6.696624859377501 9.555118806125257 -0.8904750975488084 -0.1288922296887393 -1.0017794389524555
Ni 3.771515917513427 4.9895218462353705 1.594019396234429 0.12225621242946041 0.10658662421300354 -0.8570247883101627
Ni 5.671525895827514 1.3745095872791933 10.747823927418546 1.4856481983906542 1.8451431848357578 0.040332638180775704
Ni 8.599894558863904 0.6608992071156953 8.88408390348939 0.5378308154769511 0.1601748418521048 0.4982057448861614
Ni 7.947403950681343 7.576869963332664 8.657749979386768 1.8854218298501464 0.7176054338378544 0.5279264118790457
Ni 4.1772493371802195 5.523838301349938 6.761318285905021 -0.6205041234074667 0.2603349937134742 0.9543407858545175
Ni 6.346945679074437 1.0161625120406523 4.610305147036793 0.1821004382806025 0.1252716022170165 -1.358347738669067
Ni 0.23314044416413604 4.240730554896784 4.498893063287055 0.5681646905738021 -1.6010771034856361 0.10824549997266518
P 9.05171784294723 0.3518554146084443 12.996274947624507 0.6229245599235014 -1.3893292746522459 0.9441455904890707
Ni 3.299217509816486 7.842639105163109 6.275428137399531 0.08123323304987945 -1.1614493161436836 -0.009815957649157289
P 8.657523095384718 2.045660247058964 2.9448571106139747 -1.4994048858551143 0.7522855017185431 -0.6943271800362042
Ni 0.9631179584184082 7.820182219245869 6.431933648071083 -0.8861242767792804 1.5096787569772967 0.2234008396912862
P 5.332357464190871 5.670988782679802 11.330786164687034 0.5059537642626964 -0.6201495682815256 0.8271254296475691
P 6.74953050442706 8.90184475359276 10.8964005367613 1.1247486182885404 -1.7458070715375804 0.5589611696976632
P 2.130570427254906 2.4408643969163126 1.7301812834078412 -0.9188492778161272 0.8523515512042095 -0.6557004688029417
Ni 0.7874791809453687 6.527934288710112 4.261309396911336 -0.5093725601362582 1.2529672189490226 -0.02434114784852582
Ni 8.199300756386418 6.571783094820678 6.223951398534312 -0.32910043331364613 -2.2876017567582863 -0.9558924466123537
Ni 1.3748059255675857 0.42807362238297614 1.0263945175045521 2.2567590603458165 0.7338851448344845 -1.8786703700589258
Ni 1.2107271195133045 5.444299252631109 6.2410556741174625 1.5071904433378043 -0.9579300458676728 -0.9562400597597596
Ni 8.684212062483061 5.053780951958965 0.3462046138716612 -0.35898307980569144 0.1518992321068739 -1.840178898851947
Ni 1.984957200796078 8.777234503323745 4.430785264042964 0.9530814595261199 0.40993797358700373 0.8810679453022956
Ni 4.032080618153979 1.8224063890413202 1.2897873966849498 1.18611982230717 0.9147470827222955 0.29457257474010556
Ni 0.8306686343642623 2.2951678253138743 5.932680494873398 -0.4046253031248386 1.3721861872140562 0.10689541370267398
Ni 1.3395138875343502 1.2683000926050454 10.339570706243267 0.7486998412498137 -0.3573689412410362 1.084228803797623
Ni 5.828492582960376 6.407732070480934 5.361076348564701 0.7876242862291533 0.36323285622098084 0.05308788096391502
Ni 2.3614179539126057 1.5785848016949398 12.429062164326925 0.22913311418937315 0.27885027890884234 0.9857894912821021
Ni 1.1847789981359427 2.27538724456368 8.248994835235525 -0.06193993203790623 0.8735878348751664 -0.673416398025466
Ni 1.4076439121500712 1.9532490039380883 3.7701879515585683 -0.40521511419003764 -0.9822650230686115 -0.7363243504035965
Ni 6.326109393171846 0.6691087037613166 12.980105063706944 0.07836259637030375 -0.48010594996165706 0.7208936176708229
Ni 8.381298768316928 1.7049823422658215 11.516703250481536 -2.674661025974903 -2.4655897155324116 0.6019826675645117
Ni 7.210475451449966 5.581013069866652 9.20347916283305 -0.1512140331143912 -0.9255570288536059 1.1452094572460536
Ni 2.548703752176619 8.697500982603158 9.585844456345797 0.8119780324831692 0.00982675628243469 -1.0380600185510445
Ni 5.194745371518637 4.420052261660251 9.093721017155403 -0.9459391920543837 -1.0678110245612318 0.43113594782085746
Ni 8.825722855761956 0.6684308299266191 4.622436495717857 -0.7490315135576197 -1.0562693424702196 0.005457937790777696
Ni 7.67051286246467 5.467274730553034 3.988010484384269 -1.0466122789964296 2.141045791241196 -0.36003080434391543
Ni 5.201570412723176 9.1218481510096 2.399263131511772 1.1751185861006601 -0.43217364505675243 -0.33434728353488224
Ni 5.988172617546332 7.261741975341856 7.572485082721607 -1.1418546818412076 -0.7930883946675179 -0.995160648084357
Ni 7.113378359143886 2.9896273435900116 0.08198106142661335 -0.18133296398695867 -0.5760389511155563 -0.9023296828945493
Ni 2.962771686204448 3.192507944280676 6.364707455234958 -0.9879096229488985 2.0689605432391724 0.5339985862150545
Ni 3.5706541214124354 5.098389124933538 12.674833101976636 2.069479906077752 2.7327340188582356 1.1835150376944714
P 8.613127915554927 4.002594958458934 6.576294845261453 -1.2918695524411752 -1.5489819254522934 -1.8986902648242783
Ni 0.5863053035844142 8.764945724926973 2.7256788301188783 -1.92025564969988 -1.4070531742945704 1.4818342239612028
P 3.7065715294979245 1.4831916545471153 10.726030098421587 -3.3950059702311077 0.18638261059572417 -0.05502700696815684
Ni 4.497702153790578 8.35773987438973 11.00937117469655 0.15163003760588722 1.3883098322487961 1.0384436271427084
P 4.231960793674671 8.706761554115422 7.950133967163158 -1.0754703408787027 -0.9830574370629198 2.5535386700395697
P 0.1014532651454494 0.5931683131321527 6.854662994634332 1.671191858024851 -1.988190108758324 0.6461673325015259
P 4.37442542581933 2.014331733632977 5.455939791022024 1.3016358877993197 -0.5036125177240294 0.10142359195482532
Ni 4.752043750374891 4.161904570184399 5.056347056325014 0.41934666849541324 -0.43589197444860417 -0.8203878538134194
Ni 4.590669031202189 6.346102967066821 3.4535041875537003 -1.0376537842515614 -0.19485748083595475 -0.047562323159995507
Ni 6.3226551999977705 0.10578073021313004 8.674068032448528 -0.7245731234049393 0.02989524489753561 0.7290093047994218
Ni 9.273351100950228 5.308066985114203 7.962752421905769 -1.3194772868561147 0.8675670826023832 1.5655112905658843
Ni 2.530340038867801 3.861204552609697 11.38004036638931 -1.61450880351051 -1.6485152423629414 -2.14802222255903
Ni 0.12343137951550391 2.282962392060711 0.4517316044253552 -0.6038559733278245 0.6634531161651671 0.6317406155532346
Ni 6.601296536230262 3.7626535505761907 11.138972873010676 -0.27369933083552217 -0.2323649908631095 0.38051324056798336
Ni 7.269937581130209 7.927419637357879 3.915443719957023 0.027343939230591616 -0.0038132030985031096 0.17316405502292112
Ni 4.866059906833876 2.6282798431814975 12.828871596397324 -0.2939781356892163 0.47953233684637414 -0.8786187124308545
Ni 2.8427361582624915 4.4916642611645825 8.630614652741535 -0.3933088496707549 -0.9271935360157644 0.6448072189292056
Ni 1.7201511584029088 6.202462242340106 2.2242299954156346 0.7874674489363147 0.7300629428749168 -0.8427178847691874
Ni 7.596206036650269 1.6613094870139877 6.741122831551077 -0.5530514890814474 1.7212052138285001 -0.1846535437197594
Ni 3.2181875090841823 8.184483841966797 2.273769422720487 -1.360185563208754 -0.6539498046604222 0.4249624720202939
Ni 7.585676766840827 4.089412816386401 2.055308836517591 0.42797451937374037 -1.6859150231676385 0.8956106190031607
Ni 7.7697306256470595 7.819904402100502 12.845326705917463 -0.7003301916971745 0.42482980309717155 -0.5386713091003755
Ni 5.620750182225774 2.693326097483635 7.350582342087602 -2.0416618554242194 -0.030504853457076497 -1.6442541530937425
Ni 3.7484663550194037 9.175633550352826 0.23541854475615281 0.5351861787652525 -1.496970822492325 -1.3319579358216285
Ni 6.186284023908181 1.9184755579095396 2.4157173149747617 1.381631391787356 0.5754910490318863 -0.45929286987104767
Ni 7.054758941471259 3.417984339461263 4.807933151565702 0.38803551708695755 -0.9506263131174081 0.5290857222944695
Ni 4.649418096875988 8.412016084023106 4.637534931511452 0.3863373034489282 0.4379403723372006 -1.848592833947255
Ni 2.873036748250617 0.9027612575300809 6.844023524023893 -0.7438291434210738 -1.4037703897782403 -0.8985637880942138
Ni 2.3706877859963815 6.483400200307637 7.908929980276494 -0.2714143914560874 1.9683180524247457 1.630180705719812
Ni 9.160501776501787 3.6732705143398254 11.980798643932912 0.8007222570636919 2.193850593747054 -0.16902123649914116
Ni 1.6911563089980124 4.183722476667291 0.13480984373262184 0.7647340118945409 -0.6047496887866876 -0.37657071098046757
Ni 7.513786950191126 8.583873770147687 6.36852929309807 0.3146222943021291 1.4751264729237241 -0.3832501798831722
P 2.8038602790540095 5.514985194984215 4.873140539812153 1.3490951097225476 0.408453161511361 -0.6200960893357709
Ni 0.35877676575670986 7.562830936920073 0.6414557111685473 -0.5410403235531842 -0.5431992788777161 0.35918414007290395
P 0.8187345358564085 7.353542020742923 9.152787720432071 -0.22716313494719587 -0.5495257353163762 0.3144451452943165
Ni 5.398718719647749 0.3349900617703103 6.519017284400953 -0.27222634583442146 0.7044064186490772 0.17625966322910935
P 8.181196339079943 6.221048209365218 1.9736204091507652 -0.1264890195638854 1.929585154630922 1.1192557134947692
P 2.4755822795157876 7.036182235017659 0.2982283710380787 1.3972523861540647 -1.334626483792727 1.4903525458448592
P 9.118690296123917 2.7195427754348525 9.915351333723697 -0.18694336819520063 2.4482265416636158 -1.678036134640194
Ni 5.954649348671939 5.0745709350039965 0.12492047941467584 -0.03458390862245656 -1.286020806969882 -0.475689051840884
