# total energy = -340874.4172833531 ev
CRYSTAL
PRIMVEC
9.20735002599566 0.00000000000000 0.00000000000000
0.00000000000000 9.20735002599566 0.00000000000000
0.00000000000000 0.00000000000000 13.47588745624837
PRIMCOORD
 96 1
Ni 2.4888019609151715 3.6864296031507084 10.709961948793756 -0.6970792888600446 -0.9301312784878498 -0.05032111685205528
Ni 4.501105142368245 0.795381537200941 7.196878204180977 -0.6954916326579506 0.47983212747498 -0.2684157138390797
Ni 3.5090407972085846 8.944461785262337 3.9469524933724975 0.33184534304863494 0.357804486116558 -0.427817939191218
Ni 1.3399272371610806 8.540618204995159 10.218428487445284 2.426152335472396 -0.03204905801574481 1.5149952840942038
Ni 1.8335240656543492 6.051245388377277 0.9014584963195237 -0.6550085849422397 -0.8135975703644632 0.6974826949460504
Ni 8.799059313372064 0.6044763413946505 9.034450741649545 0.4389022220298376 0.8093030567541675 -1.0013192114865852
Ni 5.377801391480213 7.64199004807907 1.9792570814111923 -0.08251158554167079 0.9858203445200376 -0.20757621395420378
Ni 0.39020841558744923 5.969797169890614 7.285253112105522 -0.15777960214705083 -0.5977233780675254 1.3235913090244882
Ni 8.686112750385869 7.606716690061617 0.41506549850045416 0.7453340101013745 0.16207617263987573 0.9025289433895489
Ni 2.1435079195759457 8.789474461976562 8.101434053055206 0.8797132310466139 0.4044273281814196 -1.052163290721646
Ni 1.0604565412843403 5.508932470802737 10.049656840409067 -0.7784734729678207 0.5906528443739892 0.46629861176491955
Ni 8.225901773151095 4.175652940373214 11.12264734730791 0.8097488860423345 -0.308193765067966 0.3288759760076659
Ni 2.325905523941848 5.867337778604205 5.664670193117075 0.9898780595291792 0.4084863287421417 -0.5057699303866644
Ni 5.532733470665728 6.2971921227448675 3.950968739461564 -0.2908961543297829 0.5777667324399405 1.9955213523124147
Ni 2.166010683082774 2.3347537873338533 8.021697480941668 0.09917079136490661 -0.3294696437276068 0.932097401075285
Ni 6.58282253580085 5.145269766126309 2.4643223793539586 1.6795893380599265 -0.4208453645281268 -2.3824196704711356
Ni 7.32879282899222 3.245830281509037 1.1691087962101487 1.8837385286104524 -0.36874118763371977 1.5091359970999494
Ni 4.267873758411018 5.744419655520672 7.2848765314887345 0.6838643328316674 -0.20098313411771834 0.021114413381112022
Ni 5.268648256712027 3.875594609798738 4.164036026823066 -0.9000663407816691 -0.3054349713759062 0.5845246199890642
Ni 6.567483090628029 3.689219430213953 9.40339386157604 0.19248280995619108 -0.07055904116548492 -0.007314788493858369
Ni 1.015358940770247 3.2726789142364963 1.666010142634105 0.11392943773131992 0.20210747753014868 0.05856715891093139
Ni 4.290588290968851 0.004832938037943566 9.527587202640628 -4.287502983305951 0.5695790544228255 1.585648427635392
Ni 0.8464537871583979 5.015888083312091 3.9124543942287238 -0.5524717053185776 -0.28324840797653794 -0.3753445518828504
Ni 2.240590218436828 4.781524195299487 8.176440809451288 1.0480942628585952 -1.1530176404365626 -0.26046020643742884
P 3.0054908233180657 4.542326448513936 3.909772293160991 0.10414227643756903 -0.06871478886789456 0.22787095964749787
P 6.880339637763263 1.7915477568050737 7.540500190752265 1.387443627593759 0.6204928105535572 0.8493071079509308
P 3.345002648829841 2.5860131626766654 1.1549129039127561 1.4552760138567002 0.18363050177188375 0.8754616548591115
P 7.4669859457982675 8.42233137898361 10.778836610060726 -0.2288487501797349 0.8562966518948867 0.5658082745264835
P 0.2453399699997105 0.6999399881178481 0.5998791115178258 0.7633980666919368 -0.32625602188631553 -0.8507443546180896
P 6.820298508128228 7.699167691850512 4.852290046265436 0.9930081205177286 -0.7034016315336467 0.5117765415920605
P 1.145375930737481 5.074124572338559 12.268595975218108 -0.42117240885024243 -1.2798308761090864 -0.13659576898058412
P 4.576421265725795 5.419105563776298 11.899788203337256 -0.39879044161061644 -1.934805779599913 -0.005486219925551841
Ni 4.618185805524066 7.80891930437154 5.861054682934378 -0.3305487357243984 -0.1843010454763471 0.2625831663177027
Ni 2.9600341361522675 1.6079347822334018 12.609387622385961 -0.9042212434903073 1.2949435633808086 -0.5350558238349753
Ni 8.539393627439345 9.137539915678945 4.563312761468565 0.7386411714622311 0.2810657985029224 0.719914027366373
Ni 1.6443498516562762 8.167895467875718 5.708143617083458 0.0578639621963197 -1.3540611954785713 0.5394177003480968
Ni 3.4481525913695283 6.596679597616634 3.2156568746807936 -2.3188823120391224 2.6463773485388615 2.1327586115317394
Ni 6.900411660858551 2.452819636944352 5.417710650244676 -0.6811685311670591 -0.39432700652262415 -1.5696345687056388
Ni 4.602063735597529 7.477482324848098 11.275005972156206 2.4431545264573473 0.6965077326272908 -0.6559840614816316
Ni 8.862267771422136 1.539321609707672 6.479462665680167 0.14249310830162557 0.5754000319799768 0.879641497268414
Ni 3.0343558657050975 4.06891213131648 13.249007498162449 -0.5434443050089866 1.2578014071128727 -1.2093510249209687
Ni 7.48393667722874 1.6415692319430757 10.568208349725804 -0.9157865797304034 1.3712518483252447 1.378174286476691
Ni 6.1519185537552055 0.36114725664448627 3.9389347329544346 -0.7994140797752296 0.49636843456710644 0.2993093180941426
Ni 7.493539943324328 1.3171206311028103 13.476157427415806 2.5693987770002784 -2.0510412397565903 0.08541564656234321
Ni 5.373280582608753 1.8573895169676464 0.04032082731141639 -2.457643978322774 -0.26326322310386274 1.871178946777887
Ni 3.326624778142595 3.4199412708356 5.986043539042742 0.8845091097733605 0.2927272940012507 -0.6842330290249958
Ni 0.42462825225585166 2.679458558270282 12.578339517303567 0.589100926505837 0.5827328181959641 0.4291816523079641
Ni 8.927842518433442 6.720923579106462 5.348714451957128 -0.9680861604650683 1.3102369992047693 -0.9557708334328251
Ni 0.07364314785460854 3.7068422981976146 8.804538607383076 0.5199233390689111 -1.6537230118161261 -0.6204169630102992
Ni 2.677230379559704 6.493815082928302 11.781038247618511 -1.6476068716160592 -0.7279602947096172 -0.4822484502259565
Ni 4.121173050164581 6.643498972588902 0.31027848912299527 0.534941409744298 -0.5326405295252633 -1.2368654282911538
Ni 2.3418066174673355 1.066662295213801 6.008480930364259 0.5481795057011268 1.4692967536158243 -0.19769649294664665
Ni 4.873975197088383 3.0397882022308864 11.523568514671217 -1.3273965417031914 1.3766943594970547 -1.6621672859287375
Ni 4.1021138355741 5.027470929667078 2.0465692553757457 0.6555677998798194 -3.580044665204428 -0.991893033076679
Ni 4.119165847855052 9.12810238188414 0.11409379880164124 0.4081685403914067 -1.5504528535708653 0.6088883935454095
Ni 0.019293081281590678 0.5171409432900402 11.642048695033683 -0.027110740173862984 -1.2298308900418755 1.4426860930068315
P 0.5686256825294554 2.1760927313806366 10.285121006751893 0.4467029490211791 0.6168786108397375 0.5647569504438338
P 5.847422280459661 5.041760736934917 5.898988965114465 -0.5476190052119666 0.08414757848319702 1.7172868526107004
P 2.9466650638888 8.029334057067922 1.6682208273795998 0.6170025380121116 0.3142605400873362 1.0220968103535688
P 9.2288031693122 6.075147669090749 2.12076760643799 -0.5713592862516998 0.017641110120530906 0.24112139689950088
P 4.5392419862492925 1.8035265192119407 4.889509838082131 0.9096102757163624 -1.3097204645796672 0.7616558871898496
P 6.27039873411767 0.5524262708625515 1.8113748643891996 0.3702622522639365 -1.102472066278527 -1.613203454435525
P 8.115597719627445 5.399365005282584 9.216577649924163 -0.30198300827156377 0.2598158879852106 -0.9621471692728139
P 7.871593736119077 3.255332266754146 3.43168892875637 -1.1518020228619066 0.7262877921032008 -1.2446514999944758
Ni 7.683957149578303 4.128373197898762 6.9825449061884655 0.02325562809383092 0.36137934795200993 0.8333187029424746
Ni 7.109556617101433 6.637891696412281 7.3966316633792735 -0.5653488183915618 -0.06915470461879057 -0.654063190309835
Ni -0.09605844153602142 6.887033381245041 11.71142239467302 -0.1226282510568985 0.5331812325200818 -0.4236218988319995
Ni 6.609560680327784 8.39664287236166 12.975824501630559 -0.7351521844723661 -1.0459296511071083 -0.45162326914093187
Ni 2.0977750119088365 1.0607603838357829 1.809299527689347 -1.0093359111434748 -2.545604502794158 -0.6117970825517721
Ni 2.871744856583129 2.2883211210634222 3.6130470233023373 0.24291294158228485 1.25376966024566 0.1693876186996244
Ni 2.8614326245341735 6.705077729681236 9.233233746153235 0.79210469059801 1.502198903660484 0.09378895822770299
Ni 8.940576283543892 7.49785819049483 9.210985105507612 -1.3297138769824584 -1.5122164357974859 -1.2431168085175042
Ni 5.323275464521361 2.3524318994177777 2.390514419933568 -1.1244352008131795 0.7217757631654602 0.30110986163799114
Ni 8.398410683570052 1.278818054920975 2.574770067538291 -0.456958051090284 -0.7080373305334452 -1.3270903233166822
Ni 1.1303311207660582 7.569712350235945 3.453708306385903 0.009943998586589325 -0.34882773653924437 -1.0773912120504994
Ni 5.510175463058638 4.160377946650699 0.3586456196376102 -0.8134168218122249 2.1443180342345647 -1.5082242839189572
Ni 4.413883915404177 4.848231446366168 9.665540007610538 0.16719446770304755 0.6474711389146139 0.49201272870157203
Ni 7.611237498933079 4.964805705269585 4.708973959895068 0.16831084069567787 -0.18478801241509465 -0.42811824404045623
Ni 8.758123435077728 4.894608868536338 0.19944317150182314 -0.36254277213249175 0.9827679308469592 0.4060442949595523
Ni 5.392376626599407 0.7179385159832932 11.542393862570588 0.1958671530473917 -0.7142971954002278 -1.0505131567127326
Ni 6.5943133086554 -0.07224178917795583 6.420600076850726 0.969875134044691 0.06627378352656974 0.32927526832861354
Ni 0.37568842456851803 2.458436120471015 4.301382067425092 1.342507686313017 0.2621386225811163 1.1058628371276311
Ni 1.8474271642203517 8.101851146012185 13.318987962169672 -0.9794702339322937 2.1457442251581305 -0.6978786448328884
Ni 6.256154963600051 0.3136262815988884 8.976989511496758 3.100577891488667 -0.8086078304593558 -0.5737398706687346
Ni 5.330227013804363 3.1859640915248324 7.3976021180738805 -1.1365859772431006 1.0117923431037672 -0.004669380451211313
Ni 6.510130507205757 6.642992568336497 9.830767745614928 -0.9155595513212619 0.9455363001890101 -1.0514760348466343
Ni 7.610427252129232 7.67169295932008 2.7233960326788678 0.9859967221969018 -0.37993499946701015 0.29053414300467384
Ni 6.68042044626418 5.806716585916417 11.972423146362079 0.05966784817427789 0.0916225467040035 0.4315460387750826
P 1.4801735930268767 0.49397893352008243 4.091953524800866 -1.0883862776094222 0.6628468500397359 -0.6999830927704009
P 6.8113397565356975 2.9335537974265566 12.341500693599214 1.4189280713552852 1.6370800039428064 -0.9513104836686261
P 1.3325797718261998 4.119598593307106 6.315124357689998 -2.292750390838761 -1.1960399096343595 0.28631830515111334
P 4.7137673063278225 7.654392348587949 8.233834825948756 0.5363593731377472 -0.46847350792905124 -1.100616501127027
P 3.0853461702471656 8.933541868110497 11.508919620751675 -0.26062090038500924 0.16342805868207982 -0.011608273662889685
P 0.21238502272326243 8.834793038891704 7.205624265987498 -0.019352950605315056 -1.4547201413532302 -0.1756423413600846
P 6.796120006913444 6.3961158916144925 0.5203561499253039 -0.4170630146675592 -0.03501559684323647 1.7343584633810067
P 4.1255005046851245 2.7052483457427146 9.317066668301218 -0.20524679449007877 -0.4795469921343935 -0.18467874053074002
