# total energy = -381173.4373459084 ev
CRYSTAL
PRIMVEC
9.19073728680449 0.00000000000000 0.00000000000000

0.00000000000000 9.19073728680449 0.00000000000000

0.00000000000000 0.00000000000000 13.45157303319680

PRIMCOORD
 96 1
Ni 4.272415217859991 4.097625780558816 13.470270498139953 -0.9236896366275641 0.8064838421378175 1.2657697700303299
Ni 5.5381451435221605 5.995136162079649 13.08848819997258 2.511841290300784 -0.23524436929343354 -1.899067188547723
Ni 2.454156561959519 2.7772385416339427 0.20102531529675413 -0.9139754946635937 -0.4550544063096679 0.35815055660206707
Ni 6.822826368990569 4.380810770679953 7.425201061643578 -0.91631545565068 -0.6781199741487225 -1.3444079886595233
Ni 1.7611749880553986 6.499367569096914 9.624102364316672 -0.4110345490852921 0.1949022180309611 -0.4428087561730955
Ni 7.765299690974281 6.377948741870821 5.523067739384366 0.07237372577672052 -2.226689751764262 -0.1521036348081961
Ni 3.029744851467388 6.196468447994021 7.518056916251909 -1.126729396163995 -0.683293805040178 -0.868216286150608
Ni 7.716607166059904 8.498775652340225 5.627183165958081 -3.136745856768791e-05 2.2052963736901505 -0.7717559517383289
Ni 8.646902761446496 5.462496186827137 0.9375397343328937 -0.6787115849861343 -0.013114425894770961 -0.2913566389059692
Ni 0.25800604688681733 3.7867766719038407 12.569136192353366 1.1885824249150496 0.28830242546067764 0.6224694746639537
Ni 0.6651088256391465 5.009732907314688 7.539740622184428 0.11211809555419401 -1.5556066298576627 1.28398140794235
Ni 5.6579004473414 8.89700109817168 4.2799268072545775 -0.5935797882127971 0.6514157253846588 1.3833020946215595
Ni 1.6338924705885796 -0.06902703064730631 9.446878300769777 -0.90315912077438 0.31133462468979284 0.5089141324426009
Ni 8.193826996874195 0.384625912212012 9.930785311864872 0.4955351400325336 -1.6347287301018107 -1.1492414612235822
Ni 5.028445247957509 5.882402581369995 8.770855474878493 0.5479355080111208 -1.1112043039452024 -0.10924591621272153
Ni 0.11237514196453156 6.208875943017503 3.202845950371664 1.2595950086781853 0.15999923550618897 -0.006226954746318308
Ni 0.8235240458041462 7.7565317278243535 -0.09129710560389881 0.8732481921475606 -1.1227853239145824 1.617066536935357
Ni 3.601197309300763 6.929981172308183 0.12973552518664686 -2.7636955002367563 -0.28630930629004886 0.4753985171836586
Ni 6.680250465065176 7.396429459294681 2.960960456278319 2.07271563940623 0.3506257089799316 0.7578627386960045
Ni 4.245495549027561 1.4148680158444271 12.441292120852522 -0.3262899604480445 0.7869989939403285 0.4629703187226349
Ni 0.14808115542099717 4.595984306598299 10.234050224302532 1.8678005172239573 0.03160811382358428 0.7100404770064029
Ni 3.690090118091223 8.190738909223906 3.151273048464428 -0.6644985267105459 -0.7992533858276494 0.18512277004669406
Ni 1.5156628291203753 0.7652308769627103 12.946708213876102 -1.2659497472516197 0.756580272439155 -0.10720188919949923
Ni 0.18436158994336477 1.8884391240481089 11.109922870221308 0.6232649739820556 0.6108943682318447 1.4157566156058392
P 2.4760580883602286 1.2837621517629645 11.114066054485445 -0.12698138581927165 0.2808313138946131 -0.9507854644030916
Ni 4.448436213926459 0.44093847721821805 7.558909742458856 -0.047768782743846765 -0.9523422673672503 0.1237111997084321
P 0.11920018330115224 2.6944943359328977 7.308710307626073 -0.08230923972287761 0.43198852562913986 -2.42968785942948
Ni 2.7965390894482485 3.7404185942012886 7.423734220009691 -1.9689184050129058 0.6645000693724427 -0.6915791849774219
P 4.877432247416149 1.5449077544275756 5.8579451109944465 0.9433786304160592 -0.683293547929862 -3.2587655277074132
P 1.9736832102279593 6.943445602092925 1.9415055207266898 0.4003109920202009 -0.09499249161750092 -0.43802521874152306
P 6.629508405787661 0.7981410682072179 13.513046026538685 0.5086346535289692 -1.4588917562324164 -0.920432563142847
Ni 1.1152959415552388 2.4472635091686956 9.13069856462323 2.319984801074682 0.7389401907598887 0.6814590658242844
Ni 6.908235888437399 1.6946891962036426 6.825758214110932 0.951748085426677 0.1809439560786561 -0.3245830050592668
Ni 2.557442064977218 3.428788272896687 11.293765183521097 -0.6875595222950676 -0.9843820694116143 2.6536445716242367
Ni 4.914875310175902 4.373954480837348 11.318153723368736 0.176978800783321 -0.4349920883421541 -1.0146688933206138
Ni 7.361201364165046 5.060410631432822 3.3102433891475154 -0.28130285421439294 -0.45631758929280763 -0.5972369253494102
Ni 5.117209386429208 6.351635661683985 1.818746684038062 -0.5919944460035482 0.06707956725731673 0.4327757974171257
Ni 0.8135052233411106 8.806656152926621 2.2182992723001758 -0.10911170462770241 -0.42184320966502187 1.0633419330462848
Ni 7.378332898034506 4.422784866807541 11.894620647339009 -0.6539698592650802 -0.5711335433941389 0.29181378104804584
Ni 5.109985467104424 4.39515751122192 3.0120223532053285 -0.6983733250811198 -1.3861313365402383 -1.9210858589106594
Ni 1.8628153491403545 5.037893325649465 0.6524495044203728 0.016028257107456267 0.7733868024735325 0.3847923275593115
Ni 1.2890468255692624 5.687025893066894 5.467633808840564 -1.1744017625392937 0.22916191054477952 1.4009573458094777
Ni 6.995814421829075 1.6072393331307289 11.361454042853278 -1.5038783482454356 0.43138354505528925 -0.05568649492902668
Ni 0.22672169702723863 1.780447963658541 3.5306069342804984 0.2126538855874273 -0.09382366812038034 -0.1891923121303774
Ni 7.0203444990273525 2.661554734329816 2.38453305247738 0.031184653132920487 -0.09127801888039118 -1.35397429219172
Ni 2.790436440044106 8.350538254389303 11.612285800395407 0.11607090955435494 0.04299887215902917 0.24328549443035521
Ni 4.963043963078176 6.271915208473848 4.476858568267288 1.4622365043349332 -0.03404963338554136 0.04143538432665122
Ni 3.5892953048152747 7.8875916382205435 8.946856251323442 -1.8577223070523488 0.08505106413407287 0.1982999308586004
Ni 6.14152622188263 2.776245942032064 13.167085545114666 0.10567028304632124 1.1984014678880008 0.8496398087000013
Ni 1.4960589869832734 2.864421873332278 5.523982217721282 -0.08147054587166615 0.2864502027432873 0.2609667137602022
Ni 5.356095023947986 7.460139648555999 6.669168274324942 0.8914886264149873 -0.5420415111241891 -0.07629594364926215
Ni 1.8879152520360063 5.8407133980910935 11.923016348542381 -0.10769734077867903 -0.27177897388435773 -0.12918687811102267
Ni 5.439859401462073 0.018159977345850814 1.6035887723727085 0.09759984733336094 -0.7988571788304951 1.131156064476781
Ni 4.780313728961973 2.892527147244729 7.391316652271301 1.9379060157917913 -0.4093149952910241 0.9334076352462763
Ni 6.477943961023033 7.547258645094954 10.802876888559457 -0.5266406031880866 0.05652158923581233 0.13773939566672408
Ni 7.251905119113748 5.0411560373037885 9.639181606601875 -1.80602205046458 0.7367300704824473 0.6585075992344336
P 8.02478177023204 6.033195004222049 7.789644115284059 -0.9890943872856192 0.01332782745715769 -1.0234512674989342
Ni 9.0308182296842 0.5434299005544142 7.772574159352863 -0.22315298534653824 1.6628314018752977 1.7403833294188478
P 2.5653001451587567 1.0331675152368407 3.078742508851972 -0.0772883894695185 0.24671791715067187 -0.9619751624713239
Ni 2.9306687060206187 0.020623094876438403 1.1272999632220315 0.785862309232724 0.14215192291212295 -0.5381120941627958
P 7.809222223357408 0.1886775600641257 3.170024909276584 0.10051830653173657 0.08373363087422998 0.42953595032358927
P 6.66466297502086 4.457112269705842 1.0474177530397364 -0.3438084289477821 0.912942425413389 0.5126861978905235
P 1.003086232857687 4.20332844742183 3.9253169231886327 -0.7222079656068723 -0.19440008158356198 -1.1791282214806853
Ni 2.3068750006622576 1.390677995917164 7.41267776333321 -0.16271046378976495 0.20932842075862015 -0.0767379162826872
Ni 8.295531693118532 6.536360285740999 12.147496424802043 0.11117347225273756 -0.797183133562182 -0.3039833265310442
Ni 2.8855329963463068 4.461946597396473 9.547657489792734 0.616685263882009 1.9948302397826614 -1.4775669640444165
Ni 3.8002594831626912 2.0366305683137593 9.451021485033916 -0.7236459836049794 1.548738699093236 -0.1699964559282169
Ni 5.032250213098044 8.421316120445479 12.716551938411621 1.4375827103419951 0.19330993384317674 -0.01890197911082551
Ni 7.431740271057806 8.183349556632145 7.946422465179665 -1.6407556530221807 0.3379586550352244 -0.8046609299964658
Ni 7.215234078266567 7.5466061027640885 0.6801871488506466 0.22901947142964432 0.5551667356522374 -0.6227409831577856
Ni 4.720215499363047 0.25303845350889725 10.416642597362918 0.38358956550046197 -1.8012197439799302 0.7174205715205579
Ni 8.34826814233686 8.949425062330157 12.196245013212451 -0.466509699334461 0.4556838123635507 0.35125074415844026
Ni 2.746201422601128 3.874428731191952 2.573420161346347 -0.01762259817776965 -1.2628700798850314 -0.29323328710339175
Ni 2.7130688155199034 5.846282984746079 3.869587050911677 0.6654058690161637 1.8900500726507772 -3.09929259701834
Ni 2.796208222914289 0.6257108931079159 5.176353617521883 1.3575913201190168 0.2843892064492005 -0.2908215923381056
Ni 4.081744186928758 6.556377711045551 10.860288665717372 0.3416597580358955 -0.25563784534812106 1.0212077228803962
Ni 0.4106026114226566 7.496415487709839 7.589364168762419 1.030552911540722 -0.6695900823008404 -1.7128704687105596
Ni 6.041714817471506 4.1081951281714115 5.027202660307751 -0.43980493634976514 -0.21444723004242422 1.4817722603750156
Ni 6.9772950866643955 1.9085025030379326 4.547183330986679 1.2332604845487147 -1.2935783076021659 0.07526313150937361
Ni 4.378411988308747 2.104522542934843 1.4578411450898316 -0.547773785622276 0.4611504919050768 -0.9772837678039364
Ni 0.4318451619765637 3.1863733923490067 1.5281116824606025 -0.07560714511235365 0.4885659078035521 0.3747441992946901
Ni 8.248226969499374 3.752145974682743 5.38602282101833 1.9120988249207003 -0.10285801040850674 0.37802672670070375
Ni 4.931427827610932 1.916415727641798 3.5709891947502586 -1.6100301989138657 0.12125913862351376 1.594042822346674
Ni 0.8587328403859672 8.049909245338855 4.572580094689189 0.29013690756625515 -1.0103797790269566 -0.11381913740570077
Ni 3.373156741506214 7.495891615697736 5.492560006805887 -1.4218462734433448 0.8935658206589902 0.4662525890183325
Ni 8.669429257966906 0.9191656128136747 0.9187704111203342 -1.0520072247597558 0.5966046910820498 0.012499932239223634
Ni 3.63422881827439 4.103186176476747 4.97287161821048 -0.4332895038287506 -1.3343189798546375 0.23975819800338707
Ni 8.097443737384374 2.902195802625991 9.043842423164033 -1.306857541209575 -0.8241912867199096 0.4004248918902459
P 6.0337280669712055 3.185739231492251 9.912491149758026 -0.27751381948560594 -0.002773191869762966 0.17444497861787378
Ni 8.502810385907122 7.030169396938539 9.59566622387026 0.9181105998778898 0.21043425222828918 2.5717611065848676
P 2.1792983796096963 8.4445870666673 7.2426224746887735 1.7997231048297457 0.25705555163125404 -1.049329935037909
Ni 0.5412765108625609 0.6858909202666266 5.771854557931884 -0.36180512263551884 1.0035275319918135 -1.2377285476223974
P 5.584080447320209 8.020149638756607 8.83437449680908 1.0802302241611912 0.6582800566046599 0.9443726188982122
P 4.621157735390386 4.909296532783862 6.656389473524461 0.8307985076237822 1.7620690419223977 0.37760018068624646
P 0.7622971936949358 7.683796234775585 11.170051429252513 -0.48417806314850165 -0.09886920096408779 -0.02277457469235433
Ni 6.208453169113 1.2526790790448779 8.917881533685643 0.2504077072974332 0.006701323279575557 1.0700399138917507
