# total energy = -340869.3418752193 ev
CRYSTAL
PRIMVEC
9.23050413741328 0.00000000000000 0.00000000000000
0.00000000000000 9.23050413741328 0.00000000000000
0.00000000000000 0.00000000000000 13.50977583875953
PRIMCOORD
 96 1
Ni 6.656107342680059 5.217404037226182 3.6808463107271794 -0.0531632142865407 0.8847590210006376 0.7429495690295979
Ni 5.508626444498354 1.97810627894877 6.923624892135569 -0.13711667448106063 0.31439320901045853 -0.2316160285122269
Ni 5.94953993825968 3.6081394753039957 8.634691761745998 0.3404708799341169 -0.5409451927362167 -0.029977777309012892
Ni 8.211567295664384 1.4424970426769779 12.56911756059807 -0.21357305496758702 0.8198309528686848 0.7000720529397814
Ni 2.5814951075058095 0.5744493518128332 11.405831270087614 -1.6902424468983988 0.6902468393192436 -0.2839978845480528
Ni 5.79719969706729 1.8904718721455371 2.227154512565584 2.610431269461556 0.9065552909401225 -1.0623991095170415
Ni 8.06986059530171 2.7069191984729817 8.37239960071384 -0.19922861332045688 -0.43836434724849666 -0.3672975132086578
Ni 4.993176629382898 8.200047626432193 6.146150600609537 0.9092323235516535 -0.2116313578601839 0.19085273055193583
Ni 7.628328657759489 6.22624276243711 13.11485819827151 0.585259698382876 -0.19145282602977995 0.4864457761367557
Ni 1.3792680889586142 2.785729243268221 4.764803802106781 0.03317597253133641 -0.7877255876937078 0.8567388816386277
Ni 6.110603005913947 5.38484538327744 11.382364559279118 0.3070285411152712 -0.2871611127673828 0.4735146698973845
Ni 3.4866291181144278 3.8991588114839333 1.5189043872309196 -0.1851399964378747 -0.5117598294215122 -1.0773310482365253
Ni 6.252245092747274 8.027594116604428 10.649134843498814 -0.49728503284410486 -2.152659464220725 0.31284926156210635
Ni 5.014951388772916 6.490595172005024 2.4924724328720305 -0.8964536837297464 -0.7614851659399402 0.4955587941816175
Ni 1.139662661130689 2.478934975423366 8.353608140278826 0.8838521929156519 1.8782687637451332 1.543586208358019
Ni 1.1761231526909135 2.555382011145335 12.942203463452348 0.8305619661329439 0.05011645704041691 -0.24974873355719568
Ni 4.3977444954397615 1.2793940335961769 9.906800158383065 -0.03067248938319234 0.205389233605214 -0.3981754337344368
Ni 6.617865363810689 0.7929252324937939 9.010061291337491 -2.010071739322764 1.317258681938241 2.049591394683941
Ni 1.3762958666086416 4.994948886187852 7.608435998174315 1.3434667077921767 0.3200810034238552 -1.0958856713102612
Ni 8.29752175070459 8.564541775984127 5.144292905719369 0.13894061506367686 -0.2088954469862596 -1.1651331927531738
Ni 3.3503407237127285 8.411426172439569 9.655571679675992 2.167672135579473 -1.5742805521180823 0.4872549023016125
Ni 6.325839902673773 7.674250416116987 4.1490682511419035 0.29093549220815057 -1.9149074980140892 0.2484546973361205
Ni 4.492541773496344 5.872575994302933 4.938971416563085 1.9175421074234587 -0.24235501219628586 -2.479347945658769
Ni 8.232806685811239 3.9360531367412035 12.679830073983297 -0.22930872053528895 -0.139828674095585 0.9288524117754262
P 0.7386129458253482 5.2240684612531405 12.953388988432774 -0.780209996042953 1.041740038505793 1.2019403342791943
P 5.522195285661273 4.66792135315312 6.670019558598937 -0.9050339691995897 -0.4083968543521289 0.4183858472440408
P 0.5884169507568665 8.993621763370717 12.260311042839259 0.40415093459158136 0.1147655604793701 0.762700269293964
P 8.012345323678481 2.3391759114453006 1.1807005597199554 0.13659062677426154 0.7924175938527386 0.016847924795274208
P 3.7866851178987857 2.0518395464381554 5.418879175285467 -0.5818730412988301 0.19369405665547287 -0.16087675301513585
P 3.228165770221303 7.320066739748033 1.7718885078353988 -1.0068362846500725 -0.4026560952136098 -1.1026813540758558
P 0.3183277828333361 3.5584516712359737 6.59267624091988 -0.337849897371502 -1.61736452779175 -0.6861536430864763
P 7.43512497450707 6.281090418348718 9.862555582637338 0.13650603748025522 -0.3525344959668703 0.6657213433740534
Ni 8.21185344129435 9.226525845154914 10.732882284986601 0.7445238554952532 0.7917995006527653 -0.5955641656326776
Ni 5.923039160723121 0.5876462036567959 11.904084655892513 -0.7798806377279924 -0.24942477455887369 -0.03533955584155849
Ni 2.6251738533445392 6.874657990444978 3.906189686527332 0.2910720177860148 1.8713815497069965 -1.2449173520613526
Ni 8.968016344740827 2.7791202022664185 10.786637049201822 0.5488256239255581 -0.14611939220030318 -1.186417556053247
Ni 6.466125105390808 7.637577622960336 8.445731341270854 -0.5361644835181217 0.43110920834798017 -2.0044160836988834
Ni 3.2393900633193367 8.681584569144544 13.551115825718158 0.512719108010988 0.7198831741284376 -0.04075481331985884
Ni 3.022177838662324 1.1681849190853963 7.420352475597454 0.10325267474376411 1.4638586133193885 -0.9667108773840964
Ni 2.682606050430037 4.623347248407722 3.8809396423088525 1.0466996965039135 -2.0323809443429255 0.048434698462619816
Ni 1.4790221477665497 0.27934274837647344 9.09549699204208 -0.9712941258794047 0.1644251324880265 0.9958268209134462
Ni 1.046609948366481 3.1111968210944267 2.1862467640854315 0.15370208964356757 -0.9707140850062186 -1.2427697095907306
Ni 7.261129970479164 0.2321194889278385 6.936635287794844 -0.390745716929269 -0.0972370646773035 -0.9892998184282058
Ni 5.945053913222144 2.81864522121854 4.617532953816889 -1.844573942595849 0.09109032834961732 -0.49885212022090863
Ni 8.963696468778755 4.734990196615548 9.335781784978568 -0.15857253036199143 -2.4821183093150547 2.326439298450774
Ni 7.515818042157571 9.20495415685713 2.5028207511222 -0.9032948750212958 -0.5331964020287333 -0.16542991960345704
Ni 3.8977834663592565 2.029483265284013 12.540111624223677 -0.8382799036024917 0.9463896493282411 1.0220888399337689
Ni 4.461582662434828 3.5204866074923777 10.4949614241738 0.38786325317515136 0.8363796012559854 2.3347807284369337
Ni 2.5322872896557955 0.0875513322655008 2.218494453532216 -2.447973030891913 -0.028289848083628697 1.1055738451323023
Ni 3.284702608400132 4.125850763946604 6.031384972833401 -0.09115640570086236 -1.1718142043177755 1.312957997680358
Ni 7.921064867719225 1.8141817549948398 5.186281546240458 0.9731805442688402 -0.6966000352307811 -0.010782692437800785
Ni 7.474096163207644 3.901069525851773 6.258484913581379 -0.6992302737647764 -0.19978191472076562 -0.12520372509355857
Ni 1.3371123763116408 8.407189371015228 5.275310682227173 -0.45967904956587285 1.0120993328212247 -0.5505724314133357
Ni 0.8342501997634455 6.58787545568938 9.051252416296352 -0.25735637070112455 2.8149021050175587 0.5378470134268672
Ni 2.56274795349092 8.076137338152584 7.5103812751882115 -0.5299575833764615 -0.3126147769537971 -0.66371922534236
Ni 3.9911869382827785 6.237439364022565 6.963506208549519 -0.39967747220126004 -0.2867808466098287 3.3588747717261893
P 2.1001427748773085 2.6370996647612 10.488476994978596 0.3333548377146259 -0.22808179010672333 -0.13213619054733375
P 2.179875870091794 6.64168006462724 5.913634200001423 -0.28660035516790644 -2.1527684789947634 1.2298853974288948
P 2.7470995832227683 6.296514590854322 9.59031939943864 1.264227108133558 -0.2826076890687455 -2.0116290565075547
P 4.360351722956098 4.286766143533792 12.610213611363749 1.1764951547332128 -0.8451735453985316 1.5378112535474546
P 6.1870869636526855 0.48646326279986746 4.388312766255904 0.5719480688756343 1.960103120714121 0.5523567770072682
P 0.3224787405686862 4.435174189940194 3.7484357546260623 1.6864068752023922 1.7220495641066664 0.05732788718719158
P 6.461140633126878 2.3374221156487334 10.808577034616885 0.9535342307928223 0.9737132768438587 -1.3256031972481945
P 5.015209842890305 4.0244259838798335 2.908330646053338 0.6142458012025808 0.16133980869448344 0.9132481295792659
Ni 1.6513648915440051 5.595208573823646 2.2243576697952676 -0.5399087810519024 0.39299568930571027 -2.174901820558693
Ni 1.5926311933673702 4.896357870908166 11.007279329216752 -0.9023476806166782 -1.0240174244150493 -0.3393336810058801
Ni 9.148011176493833 7.142536452614413 11.148456198638781 -0.4648497951335349 -1.5142725469955665 0.9276959295734798
Ni 4.759414110708802 9.118104342910257 2.8568447397686243 1.2682357150723191 -1.6605541758053466 -1.2954696110876076
Ni 8.79349520197395 5.717023537651565 5.345966499618791 0.3098045611985116 0.364146883394818 0.777106674527281
Ni 6.111673744400272 2.646311707945277 12.990365465177357 0.3117521718431857 1.197656619302176 1.0303824474011287
Ni 9.229534989521657 8.050439614480771 7.446358498109296 -0.45067427496410123 -1.4671956481124215 -0.36848407731759125
Ni 5.119533001273509 5.681181489872237 9.042322826540564 -0.7258357921674468 0.5257605145759785 0.6433797424540597
Ni 7.877423043897265 3.44978094537812 3.2640696623787218 -0.4884013572012298 -3.0796496259764314 -1.2145932471565146
Ni 5.283919050437063 7.163905069819963 0.13795265430760031 0.5353820968261425 0.13966926569958527 0.4062438125648681
Ni 3.4321045298495556 -0.008686827495525861 4.669559767647282 -0.3618886834882606 0.9801754875294344 0.7524469669970719
Ni 0.6624049801619638 0.8966760996170652 6.792918183619052 -0.3031559455337424 0.8911474410254847 -1.6747438370421672
Ni 7.94234117988285 5.818392934693182 7.782387618832516 -0.44580100603219996 -0.27007638937095424 -1.3957848004696025
Ni 0.8251959982010598 7.401645935801011 0.6450608627843281 0.2851811062228766 -0.762330287549055 -0.7768354231437653
Ni 0.04617190502111349 0.44738223109940317 0.9509597717225142 2.0241310456293076 1.164139718491653 1.153128197872498
Ni 8.610814293500939 4.989576732747838 1.550989619803917 -0.0961731421891634 0.3740944815258332 -0.4185753375470275
Ni 6.030260697422759 4.772161436998592 0.8901242877412557 -0.5334090322601718 -0.5665425815893469 -0.14955772845789084
Ni 2.2844297910798095 7.471345472958291 11.754680638083745 -1.8877954722886454 0.5755095609746474 0.07703205048433831
Ni 3.4058991284471563 3.5579716850179657 8.564184555471877 -0.8557837168142101 0.25189071960086296 -1.1982050356064784
Ni 3.6917124602625453 5.870896042539905 11.341416196580518 3.2023285277656077 -0.9644688754274552 0.16896570067085737
Ni 2.8738251752810773 5.625623085137808 13.621366423975726 -0.5332779059989461 1.1416957876658402 -0.3424272323295393
Ni 3.7581628599440786 1.9598668026644657 3.077013494918482 -2.0519352123257697 2.0845864227018875 1.4384643416160001
Ni 7.6768718793076465 8.496069895884444 13.309115082052289 -0.7938635822706457 -0.4984160611247545 -0.23572002337827147
Ni 9.12973477819276 6.8949835606767795 3.302167645382689 -0.5612504799524721 0.5832568090202341 -0.5692424970190133
P 8.635505892215773 0.5091776875166777 8.613576060355323 0.8959893424988182 0.7695376039307714 0.25332462383391213
P 7.16460658813859 7.09134407636302 6.349675833649967 -0.6270992601264812 1.2904870702713516 -1.2179292535082833
P 4.4912495029094 7.9515624535711185 11.835360783028378 -1.1958352498227212 0.7816017341841571 -0.4092540601461016
P 0.2749342595741536 -0.14226699196715697 3.3275386092060897 1.421318940184965 -0.008655618792468964 -0.36534630301955795
P 7.115048011129263 6.755169113673559 2.0484870273154536 0.5686904811702851 -0.13192536008810826 -1.0046966125992502
P 2.7381552246602725 1.8616357770482863 1.0215131305175964 -0.5493547569561507 -0.22748118040824697 -0.7060056448153971
P 5.943189351375266 0.43128884703984594 0.5248861595514093 -0.3435459193150148 -0.33778947644721186 1.0150507021400645
P 4.759681795330383 9.371177076354982 7.910378713015612 0.8399994573967599 -1.0249080545501188 1.4788545725075886
