# total energy = -381168.1773583318 ev
CRYSTAL
PRIMVEC
9.28521772741409 0.00000000000000 0.00000000000000

0.00000000000000 9.28521772741409 0.00000000000000

0.00000000000000 0.00000000000000 13.58985470825622

PRIMCOORD
 96 1
Ni 7.647026939457196 0.965978363247192 10.841932083119328 0.8831911622928854 -0.6517702805106002 1.7254984418872155
Ni 1.5994902129081625 7.613906567062568 6.525345685083488 -0.6556498180706644 1.0936632097376455 1.7395055547995848
Ni 0.3807598606178165 8.96712494452842 12.161534257552518 0.9231180803948101 -0.807332563291358 -0.2986169200128083
Ni 1.3840824419008801 0.6158021534825926 5.241158260398086 -0.8885778805260955 -1.049081823582845 0.27865256107573944
Ni 5.357208628308659 0.27791585818435993 0.7259396946085024 -0.5315665797347942 0.960349711052759 0.8230875121327695
Ni 1.1993716014056923 6.18783636963365 8.469197704281758 -1.3220216505445233 -1.6947511334020295 -0.6111319381639475
Ni 7.130100286260186 4.92871439077928 11.538887969925804 0.29971092440793545 0.43268246637237096 -1.167546687290673
Ni 1.3144618777811938 6.567601783410013 2.392725453063989 0.21913460821576453 0.2736358245874384 0.12088581444449503
Ni 3.815843879709545 7.47109991513395 11.251027643326909 -0.048781283168761146 0.1511844654280364 0.709848415600255
Ni 8.983197656783846 2.2303186345842585 12.386649723916847 0.3753404381177923 0.44796073268768016 0.12696081699398135
Ni 6.675774572419662 4.277737046171774 9.12912135637517 2.3095679766167323 -0.23571745227511015 1.147628351100191
Ni 2.8248697097658737 8.68933907939523 2.056281152111954 -0.0248427700752927 -0.3865620178652246 -1.3356662379111515
Ni 8.856593710161823 1.8916031693239175 6.708196696425146 -1.820928278152451 -1.6967182844307294 -0.6568291830907462
Ni 8.169728998213346 2.007640537929375 1.4588433026725616 0.5313542066136719 0.8810941705545405 -0.48035920362304374
Ni 3.032180770728829 2.2107175395113514 1.0629429656805705 1.689919002120709 0.9693475436759951 -1.751326972914545
Ni 1.070502061606129 2.92762921671607 5.758306830303878 2.7336395613916404 2.801612586997504 -0.5631628664838365
Ni 6.190816924592628 5.331237873728403 7.181966585155379 -0.4796223254570191 1.1150349905452022 -0.6385733222043518
Ni 6.229526998187583 5.016831109036926 0.14988291652125743 -0.7278739056433982 0.36626855772351113 0.008840738220081547
Ni 3.2956024037076905 2.119843111525306 9.533704300663551 0.9445212286609347 1.0521267810567558 -0.7595429546119049
Ni 5.638829288451376 9.462565603410551 12.004544435219415 0.033953474127309265 0.19065449849820068 0.5473449256149735
Ni 6.050396573674782 2.749845148804676 1.4364882119584303 -1.879406734004318 0.7667042482470344 0.3162541734785973
Ni 5.616684043662706 5.696128368363697 4.6927537898601654 1.4690147035990313 1.152586209326099 1.5023403143343548
Ni 3.236000589746065 0.06548957065785002 13.075125421178042 1.0009482013004116 1.8327959761243144 -0.8338884594030155
Ni 1.8260773863160986 1.0187926828941345 10.682292259585939 -1.3190808227486444 -0.7654238388727141 0.6601471917203856
P 2.3873130995263305 4.1954514447809155 7.183516288029689 -0.9664594234949226 -0.30464435715381083 1.9632483512113221
Ni 2.5775207890424383 7.725032055377373 9.295011988626266 0.5473896628099798 1.0085080159255406 0.18623657193616314
P 3.115729161759629 9.19165079955351 4.1330687080460375 0.6145371071907545 0.24643355314103363 0.0004391444199476308
Ni 1.5678740458199347 5.672738904370967 -0.03136175211665144 -0.12165148896592597 0.7748926975950977 2.089873125022123
P 9.404440139101505 4.924805314026228 9.928734612734493 -3.1432286362796575 0.8693709685803415 -1.2678662475480424
P 1.2231231888981113 0.07585187387971852 8.453881737288503 -0.009526708543512626 2.1528903492846085 -1.340532564864517
P 2.229000133636673 7.762767181088549 -0.03747885369601251 -2.215259398440133 -2.6977909271241476 0.5094139548971549
Ni 4.155218595443678 0.02840162463714277 10.196183244734254 -1.2255114367309152 1.9585853985180142 -0.9450318497487661
Ni 0.9941497144794043 2.7353694940350586 8.409986797995439 1.1205420364063605 -0.5778214969372758 0.279227459742603
Ni 8.810938293547192 6.381340311518722 6.41564826328797 -0.5756394016842925 -0.09060644673466332 -0.272967337765504
Ni 6.843883443236803 7.803399294797238 0.8216182943570881 0.24541976716453862 -1.078076153932666 0.48575980581332473
Ni 8.460792725001797 5.7807909855473865 1.5795353510317132 0.18508754593338447 -1.5066993626339986 -1.4106876857233641
Ni 1.7099935916209374 1.404528491806395 2.7330964726831644 -0.1256798933990287 -0.18814767291594695 1.814700037854552
Ni 6.271988299830598 8.770334035492327 9.912304419588349 0.9470540223851174 -0.5437566940430829 -1.7940566505725877
Ni 3.404128030999087 2.171663912852589 7.090914809506665 -0.4773397000704295 1.1400168573015204 -0.63978148357984
Ni 9.429695931900325 8.387290939782881 9.772043774419084 -1.82136999367556 -1.2530096421511838 1.5775409680369088
Ni 4.148189685462536 1.9340273300951696 11.99482745464443 -0.46704808833643435 0.10124207207163853 -0.10443795330111691
Ni 6.409493092315052 2.8587886109034057 12.351425321136846 0.09322820062822654 -1.0392527533075648 0.7823442687771365
Ni 7.97290094830549 1.1657312568063825 8.570347154441029 -0.6483404288934447 -0.18487054482657195 1.0238533880333591
Ni 4.236882087232507 1.3591609169479277 2.739606338981419 1.6880420968129703 -1.0734080590330353 -0.1053920896842701
Ni 5.686676016500021 2.202769392954076 10.166556899850725 1.1118529932727947 -1.3114276770787607 -1.1328367946133135
Ni 3.2680810177313298 2.087400560040352 4.622140635942614 -0.9469498927070852 0.8262584536615835 1.0156304859029346
Ni 0.9695995982440815 1.3552054141051715 0.560322976286657 -0.1448397541569312 -1.535752057025581 -1.2470217999988653
Ni 5.142738664313392 0.8757102599926768 8.039852940789007 0.6868295861075784 0.9688171250938217 1.7988730981246244
Ni 3.7383587359940496 6.27113405978005 7.579782462608545 -1.1371886438241061 -1.4278675399367602 0.7534540681053475
Ni 8.917774011173375 0.30965551867119956 2.8046604329178484 0.7160185489667088 -1.701632176792579 0.3618362329837704
Ni 4.535188284014738 4.024259881607447 10.871421935299127 0.03566685727399018 0.7997897179470935 0.32062453463215107
Ni 4.781766531649092 3.6929168793920564 8.439884271242834 -2.2929447662377545 -0.17771053674302298 -1.564424485259609
Ni 1.4284472132217474 6.529625242032377 11.363483703372623 0.46715890288268574 1.1830735792816784 -1.16959971316496
Ni 6.6615310480985634 2.564112934336006 6.984139445797098 -0.2783982789730883 0.1349777737611869 0.9505674348550145
Ni 8.83503343410342 2.255741561306011 4.014945879491089 -0.1816841766787903 1.1837847464160902 0.26229777386679987
Ni 6.368768126426955 1.7657884662268586 4.082134645032095 0.4273682532483092 -0.8722295210750592 -1.08553800952735
P 4.345500566703311 3.690502722727463 13.406405283911436 0.4097502830562298 -0.3578829047629772 0.2731344594709877
Ni 5.813688512711436 5.49466699470341 2.3748950490523817 0.19660068877930656 -0.05261711197508357 -0.7487306944877492
P 6.86148821645245 0.28458264466581296 2.365585689544994 -1.3607856586865985 -0.00999619198076343 -0.23848627326949892
Ni 5.366419564505876 7.836436100230399 8.04747703324015 -0.38459898060158276 -0.12301365942077525 -0.25232780713828157
P 9.145893245541533 7.933308779006165 4.1360724760498675 1.884475149666161 -2.111455222068273 0.7469031543607073
P 5.980191040824829 7.563385696246988 6.07456971006171 1.6982935993376491 -0.2810526858767999 -0.43194507398571413
P 6.9070043547979685 3.845770137132557 3.6055652630927284 -0.4098294730335974 0.2355415888188782 -0.774139364368841
Ni 7.381785403761949 7.145773734144159 2.9841687658008382 0.5161258196996917 0.8993063226871931 1.1252975488134749
Ni 2.2839871942817496 3.2529089716161566 12.550910800419343 -0.7021731584431843 0.25077691771139393 0.20160019887642702
Ni 1.0679579118903655 3.463479144076312 1.7446246689745244 -0.8709653096506549 1.5860191807112491 -2.3003359164955026
Ni 7.315071112857716 8.763082280280607 4.7681228324069655 -0.8172032854378506 0.9272164188338999 1.0180311249246274
Ni 7.59342337628529 4.501603650723073 5.509571626541889 -0.004527455556708332 -1.385861884928936 0.41194703359723245
Ni 8.52561283144612 8.629078014959813 7.240769870374101 0.7783099508067629 0.15383424434605766 -0.3609430317455396
Ni 5.1430822173771995 8.130350388926658 3.1038682243621243 -0.6828888562922756 0.176108996583858 0.18164920967579684
Ni 7.688290447985855 6.772480117272494 8.545899175603054 1.0283304499681065 -0.1303616151454142 0.13919823960043767
Ni 3.584957650395045 4.722823968161259 5.612569763593163 -0.7134947541035905 0.804583539791311 -0.7171997137590036
Ni 1.3525962678638228 6.310865507348487 4.933361642358622 1.3445154607716652 -0.8254390430840818 -2.078031395192189
Ni 4.5186420256443345 7.201011495673636 0.6725106935338826 -1.1570802405417107 0.08734371682299151 0.8579167039968127
Ni 0.00019313253316744134 8.173990913248147 0.8435267660882697 1.2107839007127537 -0.38225310607722557 0.6372983121466702
Ni 2.9413249131786645 9.165392203217092 7.335558946243964 1.7396027424990814 0.6344245901433009 0.13996185723933963
Ni 4.938408158309416 0.5089738640307635 5.830781670418549 0.45554805811663485 0.5690270385740974 -1.2983150509562027
Ni 1.9323002795581914 4.200354039853627 10.252852786870193 2.901569364598816 -0.9277949170451893 0.2853536272449989
Ni 3.2677096090137003 5.222582253385836 1.6223021363449786 0.4610044532455157 -0.36458319960128827 -0.08065782016238367
Ni 3.939782968782574 7.6859784287186095 5.585308363719142 -1.2495188553891061 -1.2671388824637144 -1.2127065716567629
Ni 8.35600904054052 6.484944773301525 12.97037516350135 -0.38249761798786386 0.8199319972229233 -1.1199360273912453
Ni 8.909045906309077 5.389771887626843 3.8562299351428035 -0.34327106838707333 -0.7174635089433515 -0.7147427675780786
Ni 5.894330630526785 6.305247950494337 9.894610508280472 -1.4605454897857555 0.03145976117117808 0.9263543279439206
Ni 4.459318768220932 3.8027331519772165 3.385015338389863 -0.5217796755513594 -0.24508063865756502 -1.6380428820767081
Ni 8.652086785016973 4.256028206626318 7.62114996557814 -0.09486959288639145 0.4385844336791027 0.6870275610509975
Ni 8.361078769536165 2.9422348645368577 10.155617056072945 0.8072821696693968 1.5802629949537623 -0.397227982219503
Ni 7.746917314063702 0.33680921001710656 13.198793381887201 -0.7175349856112352 0.45547863833128005 0.5470343363530902
Ni 3.7173091469223865 5.658235393947527 12.510684450734665 -0.10700314292513184 -1.488724523323133 1.0512232954058798
P 8.106394526639543 3.9170898961353995 -0.00993146910941804 0.2174201966278191 0.018786022358251515 0.574420955896159
Ni 5.239379212640639 3.245397230302096 5.361646033962541 1.2131506011727171 -0.44218783475964496 2.0082799375296636
P 3.6530740092083307 5.7269738623628434 9.93839681052363 -0.34427277017871033 0.6636256371872894 -0.477558500949455
Ni 5.8403185177654855 7.119199440397754 12.371293830486445 1.2233272845954029 -0.6957384585614341 -1.048358572263575
P 7.636274657081816 7.852369534216713 11.223222129681561 0.8982015196587886 -0.2630444222248373 0.9682010887763778
P 1.5056352299631386 3.412967558478674 3.677876683371642 0.44359757062297794 0.22640285974240362 2.0130783873595717
P 3.821990693986316 5.948268461544556 3.6867505661576097 -1.8549131197383277 0.573465019740793 -1.1497878206453553
Ni 0.28456221718634334 4.673890869613547 12.077929226692278 -1.070332762541821 -2.044772633139059 -0.4605321415947875
