# total energy = -340867.7305271368 ev
CRYSTAL
PRIMVEC
9.25886278449125 0.00000000000000 0.00000000000000
0.00000000000000 9.25886278449125 0.00000000000000
0.00000000000000 0.00000000000000 13.55128158529525
PRIMCOORD
 96 1
Ni 0.4525130310097382 2.3664171896343196 2.0487502364300556 -1.533095079018708 0.6091210783815058 0.5366023423864887
Ni 4.70797433265317 -0.09338581607757417 11.301294787513509 2.112468493824136 0.5480566069700175 0.023508881755217575
Ni 4.497390757151406 2.1512227004586246 4.509256915714678 -0.2837235478407436 -0.6894773081430706 -0.8506805912596898
Ni 2.3642598746021393 5.1997217947739145 9.22782616506881 0.6264896515669405 -0.8560781081261772 0.4620220958767527
Ni 6.357209268735293 4.247308872948862 0.35886241145611103 -1.8253801432762176 -0.8953383391783807 -0.46328887840431826
Ni 6.607189305447047 6.624901509981644 10.03927753020961 -0.409448692655411 0.7746109046886207 0.08230641150940018
Ni 3.3663373364813367 0.8102828966555604 1.4678880716409421 -0.9441306780907353 0.2600891962512553 0.9135044685644461
Ni 7.599906057036398 5.4356468777566995 2.3481114919943034 0.05214094366961343 -0.8006196700475567 0.22622031141795235
Ni 3.531321012697743 6.319636803496717 7.301471613638335 -0.9463138017849831 0.7448082195048915 -1.4474788864097845
Ni 8.180853403363262 2.8480817501668905 0.11151744709696852 0.40388199720091084 0.05760788032145563 -0.5079576820666025
Ni 8.606437031921942 6.381347124052436 5.982227177146022 1.230931579305222 -0.653805565773074 0.6150155894890698
Ni 7.3631847118528935 0.6150884770121094 12.01794095290964 0.12419405288212157 -2.102471530512424 0.3247706955900407
Ni 2.245070533789872 9.330896751634196 3.684241316573257 0.7075801883913686 -0.23902054850641416 0.2224068512091331
Ni 3.7571631940923544 4.137915408977997 5.621586138146212 -0.4191183545346911 0.7271537396479218 0.23561435103834263
Ni -0.02165462831443575 4.710724214904491 9.136518037803343 1.2296827944997855 0.8535486568361043 -1.2793950741232483
Ni 3.7356548558101434 7.562490992465405 2.352190946943568 1.2767419527711172 1.4779978809342482 -0.3293292614950005
Ni 7.050827716463889 2.9771410387229538 2.354535291004289 0.03862645412294639 0.07920103311119908 -0.9592888738884126
Ni 0.8981967248188916 2.487606444811184 9.774918479570921 0.6988021850884224 -0.041586308082218706 -1.558952149291128
Ni 2.911310524221655 9.092555105460859 12.977385055144298 -0.504333197940138 0.6140655668709747 -0.9677634870183269
Ni 0.42448460154443124 1.7268056886126266 12.148845532821555 1.0227303301725097 0.5455019588689638 0.9265700434991527
Ni 8.499811967927995 2.463505624945237 4.107569486154086 0.264403507355893 2.223576917166893 0.45725038551972225
Ni 8.575179111112323 7.036939422265302 11.925032894152496 0.04701442107632548 1.4224715657321696 -1.1142217506152876
Ni 0.13049811583503645 8.90341505620171 13.370249714343668 -0.02685337274741827 -1.1096847819768825 -1.0314072891212174
Ni 5.511347340001794 1.2044021317642026 2.375838082532361 -0.8237904517370652 -0.1620437767400435 0.9079711974510427
P 2.197822556926281 2.1374918069276223 4.214435280580807 -0.5328241062909791 0.6999828356600848 0.15455003946615964
P 9.068343179241324 8.242693347998166 6.987569314048168 -0.9587548557618133 1.0157346155809668 -0.500524365717009
P 8.304486998319078 1.7006771777936862 10.521323555889502 -1.0099113240309705 0.5900424644835 -0.8546133506551927
P 2.8684975426388126 0.23773611654628057 10.628067133327278 -1.5860083820779716 0.6145327363153804 -0.15266773484178223
P 3.615234086245601 4.4023022362050845 12.336287506643357 0.09262013473058242 -0.6367506671733163 0.12654455539216916
P 7.432922466455395 0.8588530391268564 3.1895384254470533 1.570981055431204 -1.2302551220634876 0.16928554590412134
P 7.59417482096378 7.535806949878522 0.21980169930450613 -0.7383015287346253 1.2249558213377614 1.10238156344725
P 5.821019265179071 2.927994994985556 6.05858872219497 -0.7643362622354901 0.522528637902242 0.5537875959165237
Ni 4.618598530053868 2.7731960678481133 0.8450647406465 -0.26036044763477095 -0.435951624041946 -1.137724461722918
Ni 7.32863063588681 0.6210206304074656 0.8522903571748844 0.3415270891127731 0.17762774722122956 0.5376158712526676
Ni 5.916876271737714 6.696741026439532 3.5262193792954624 -1.0758680905377536 0.5932666278477524 1.4586978950540554
Ni 4.589673842669612 8.399844026286571 5.92144922407417 0.1756048032539298 0.3068292806202716 0.11149665992011121
Ni 3.091812054489281 0.6193049631308002 8.43865440148138 0.7990795792539465 -0.5633767822668555 0.8207344385195606
Ni 1.1614132317881785 3.6012809800074215 5.516116580229588 -0.8819611465405263 -0.694788435943339 -0.25941659566426295
Ni 3.9902550650586277 2.481217829479834 7.368007653484922 1.1452426244768341 -0.40766974637811726 -1.0463893643523463
Ni 5.007118930827921 4.582785248747113 8.124115092130637 0.8944515656980531 0.06780796078290903 -1.9497204919282165
Ni 0.21161038338617996 9.089351538932386 2.163882343563776 1.0634447771727362 0.9684294027370998 0.9305228574993135
Ni 7.653625978996529 1.7788590152689279 6.326917047315616 -1.1703203933810682 -0.5945017858064342 0.4679706001507038
Ni 6.708962725334287 7.848386157974704 7.498303926110939 -0.010916904022819909 1.449565079514852 -0.5242990995391035
Ni 7.328278799100446 3.603780872963167 8.963969870680106 -0.6762839493812481 -1.1420428865926138 -0.45805462658857243
Ni 9.167616706172819 7.589767602271428 4.146556705628357 1.1658716135810954 -0.00039157901146384173 -1.2105414456846442
Ni 7.229699686878881 8.41939874451818 5.104334212559184 -1.2508062067419619 0.5930072035387788 -0.39749511983796054
Ni 5.148853602555893 8.605418557014044 0.8148558489920149 1.5615697894196332 1.1776570362517975 -0.7723177377790699
Ni 6.319359037612745 6.097748156517303 5.895837357799416 -0.5394308129742194 -0.02466356418495107 0.397503861588709
Ni 1.663965786795423 3.7795881597916714 11.445100666849632 -0.3994864392363765 2.474096467451842 -0.027636273660029825
Ni 8.448240102137245 3.9682004538712725 11.172543819088654 -0.16477351696638073 0.3317273294135319 1.1170736182417857
Ni 1.0266597426106951 0.7278567964732306 7.481296321035351 -0.0752847287759284 0.2471524335849292 -0.1422604234655292
Ni 5.539614648127316 2.0135989638134335 9.389587757031142 -1.669658966320092 -1.2511509916758905 -2.5633276311055333
Ni 5.82820414271114 7.39710918514864 12.275564180862016 1.1328733042782038 -0.6402640796432134 1.0361126650166865
Ni 2.55572389842385 7.622775448150069 9.630773725856352 1.0783029252314913 0.30133997537092616 0.6932185203530578
Ni 6.042093132232169 4.237475960656263 4.228772629625149 0.5321813305006577 0.18505257893039098 0.7819166943214146
Ni 3.4757585770405988 2.3517141155094166 11.335023898804195 1.049790162503779 -1.1270397283155622 0.0025579905351633364
P 2.081207179972152 4.687567799044047 7.070611128606635 0.13941472648661798 0.9321665637503236 0.587641054130859
P 6.433687475455508 5.3444285614603855 11.692059536630053 0.5536528701108724 -1.700946206469148 0.8677869119226731
P 3.5005630704792736 3.186752433630817 9.278264746052955 -0.8033458107294681 -0.4737239576947132 0.22402433220789802
P 5.176824627071845 4.227318988165696 2.286290990971276 -0.2704507419912375 0.16321337156811247 -0.2585431919203741
P 4.332194127090621 6.248075052922801 5.243451403773863 -0.8325337451473339 0.39753805726075403 -0.8216492370243461
P 3.8797968318658715 7.16594315764457 -0.06299174716710801 -0.9554350473599611 -1.0149198329891553 -0.31335988264993775
P 9.303120163237026 2.7293090581805806 7.702900720926833 -0.5640673805759769 1.2466901276910594 -0.9272040775387257
P 0.40498636237589597 4.398820903792639 0.8243924776750442 0.6768164248459504 -0.009322820062822654 -0.4289659367527322
Ni 5.097281736765142 4.253780818045403 10.303215302590944 -0.19974797615903664 1.2141739002309089 2.1466582523319673
Ni 6.671186565114133 9.046251532602772 9.558924950535667 -1.3197667930720753 0.21891966399148105 1.1626194251923847
Ni 5.478320976397556 6.195993949678103 1.3283227514667886 -0.3608612706650108 0.4239222036812377 -1.0644305381247734
Ni 8.030045046092212 5.379084484917257 13.247109616775044 1.5406021860290307 -0.44557012096831644 0.806956925119494
Ni 2.0372738759906235 8.163307858359047 6.143988769108357 -0.5702871362334437 -0.7315397845307595 -0.42259525733969805
Ni 3.561616011776259 5.43642462223182 3.286199101296654 1.6091053731067513 -1.4367543009034287 1.2267679348458356
Ni -0.09086185007855106 0.6200956700138397 5.094428155250473 1.8562606349051578 -2.118514957128532 0.3384512784009268
Ni 2.554307292415594 3.1344676354045387 2.360579476639514 2.131557906355419 0.5900080117011388 0.9087569265771317
Ni 2.745632433295319 1.0650655055011857 5.995709933154011 0.47550547507516816 0.5069171566172302 -0.8080406451019762
Ni 7.68250437206679 4.12088836029053 6.325900424180279 0.43119611163483157 -0.18378631062345765 -0.038765807914288075
Ni 8.685859557012256 7.8672186849079875 9.79566573933105 -0.31889212532207656 -1.399616515510867 -1.7874067493562378
Ni 7.364425399467967 5.836453789465101 8.074923679965524 0.5825011618011322 -1.5213297109526638 -0.1592718704218612
Ni 1.0995918048788713 7.007635121506285 8.103436347955222 -0.9380369064881716 -1.3441087122515496 -1.0196920575668182
Ni 2.3418997209424153 3.0663224052034757 13.613481891847467 -1.158222838786586 0.3425416464202165 -0.3954930018062673
Ni 0.1572562293243127 6.748340668818679 1.3306319118488734 0.6808417439552596 -0.329911873471348 0.0417616573178184
Ni 0.7918679444345149 0.1992886887731942 10.314950911188749 0.6517152589029485 0.06671292794651736 0.13036521468984
Ni 3.8455482983721576 6.301582021038555 11.235313353548586 -0.060847470304675855 0.01268325189462332 0.19250157900926848
Ni 8.272479109622735 0.9924297268425795 8.49043366579883 -0.8533949048670592 -0.5182148410182364 0.544298939699798
Ni 1.7379163239714956 6.979664096990332 12.936419216689867 -0.08679838584248277 -0.6515923601718391 -1.245287848026894
Ni 2.406230299670267 5.636323470063473 1.3584075743597661 -0.3574381039160748 -0.1357773868443468 -1.292273215637497
Ni 1.8150704276760419 6.1817167832419555 4.6454334921043765 -0.047684450560156584 -1.4713842322724724 2.8090628726279623
Ni 0.6836346159723721 4.645014065619579 2.9495311098561636 1.86728963902581 0.08663152124731532 -0.6121788913712232
Ni 6.4534644063942945 2.62655419883664 11.211937502639806 0.41293613698337917 0.37242275025036503 2.774536042495686
Ni 7.554204310260249 7.880468117573438 2.39245126005271 -1.445070019857976 0.6161970113916807 -0.046640582676674515
P 8.469868805635842 4.789933786150427 4.278329766870824 -1.9802762532278864 0.4075183084019175 2.426124567558254
P 5.490450086664321 1.181588293827325 12.955093417069287 -0.35295821376785014 0.6685109903040487 0.4515250530001707
P 1.8576149022377113 7.304807581904836 2.9896293928663225 -3.021668164365641 -0.014148780696556278 -1.5363508669518444
P 0.7261800164203213 6.0401580299071655 10.68570077659257 1.0413217200214517 -0.0741704126658271 -0.2026828904176445
P 5.696052393980192 0.5924801858293708 7.448312548199987 0.19358169944732467 0.3833568806643656 0.7538662159421017
P 5.0674867162777755 8.852185768334525 3.7402083645347197 -0.5183649934428557 -0.324911334932963 0.40717712301241493
P 4.71268709381789 6.634993670432617 8.980719153483603 0.040725245633504055 0.29229586289078696 1.3948442909332042
P 1.3197490445148612 1.1754126323403535 0.6389143086529242 1.173370750171618 -1.2223510367250625 -0.7038765142875362
