# total energy = -340862.8110786005 ev
CRYSTAL
PRIMVEC
9.25785219577000 0.00000000000000 0.00000000000000

0.00000000000000 9.25785219577000 0.00000000000000

0.00000000000000 0.00000000000000 13.54980248654999

PRIMCOORD
 96 1
Ni 3.842897363093451 3.7722136625344995 1.8283156155018014 -0.382124036698529 0.17776812945383577 -1.124061876634161
Ni 2.8230616368493737 5.573893511844008 2.983503916373519 0.37194529639331425 1.2555046406588957 0.20695015033443068
Ni 7.793222841614023 0.5763383228024834 6.143818920517194 -0.9843306473483886 0.8821280111356936 0.35438620446362834
Ni 3.9298841411487104 1.3574418177022674 1.5179711210358764 1.394941992853333 -1.0227804666841547 0.5123640386644144
Ni 9.565397916374563 5.794498868834087 9.605319626073358 -1.8998248926493535 0.005101325782307343 2.026829161286761
Ni 5.11699999645627 6.71802515998782 4.587217560146368 1.820588635424845 0.5986996259378657 -0.5529494162859444
Ni 0.3160149288591611 8.453659492625743 9.779868094797461 -1.0043927082055863 1.1982047784961622 1.7069957550973376
Ni 6.815723272888753 0.9659087379328929 2.508949196590719 0.5238866945920332 -0.13279542139788741 -2.0075574575413424
Ni 3.6740619148821088 4.533523869707363 7.181015896749248 0.26757650576723596 -0.45664540494587164 3.1956223193900257
Ni 2.268340398631717 7.556749526174953 8.877559874804312 1.3583245987406156 -0.3797197981324105 -1.281027724630665
Ni 0.5201487154452471 1.5672432613259681 9.940446464747044 0.5969019106074946 1.1332242598597195 -0.44778795455524173
Ni 5.16989936318762 2.2199403480066744 12.208236021180563 -0.0018810190727967604 -0.41608805234879953 -0.7367439544395183
Ni 2.5407064065484626 8.828500665111843 10.800872161972848 -0.5428125849622587 0.6157506678828816 1.5316778869562073
Ni 0.5864543777600167 1.8599209966855872 12.232978556624419 0.6178630862401939 0.25865709179041907 0.39823971131346897
Ni 6.117616421801804 4.239781481359626 2.6022664938918476 0.8830438380817437 -1.14740595067674 1.7573826921903217
Ni 6.873557074773726 7.348512659551183 9.316721826121249 -0.05709674501299199 -0.7921376007184745 -1.0415888576399095
Ni 7.519810696413301 2.58731043387181 12.450953757841244 -0.42395459958106985 0.05469507755003483 0.907883779943559
Ni 5.001267587721831 6.122143511464322 2.0828889575240805 -0.7452489065867358 2.1063994048119206 -0.3718162270146177
Ni 8.251912380303454 8.272020435000774 1.5111554903415083 -0.8015704639966001 -0.6649649248240032 -0.18801654665472137
Ni 7.366685823165749 6.5057333541571305 2.8162450803697987 0.12618537228053753 -0.585327575506334 -0.15882681246464259
Ni 3.2021614212879466 2.453923301238756 6.117979329602972 -0.8277892884838132 1.0071083073645366 -0.06517129449101035
Ni 6.446418295940863 8.581677071057854 11.772502252485365 1.2536786431937506 -0.32151413632595593 -1.7657416056779784
Ni 7.7134479303217525 1.9256887777950555 8.218415619941647 -0.7891895738337441 0.437885093619233 -0.7617170794450882
Ni 5.665833240757032 4.6602823802578754 0.32202975534942313 1.3898355248647032 -1.3802404249771003 -0.20524730871071103
P 7.3679726646035615 6.557456973675515 0.03264966689734826 2.130473672152305 0.49069786654489034 0.7396282179658488
P 6.121745423825287 8.493533061493771 5.99512392948542 -1.2082619056218482 -1.817498683645612 -0.16737444492433756
P 0.615240742988308 3.401121920136987 0.20378106242219657 -1.0627387522446472 -0.7567422519383161 -1.155006131621501
P 8.341269168488784 1.3780035071510468 4.135088135434157 -0.5726414953982332 -0.18025387199016701 -0.17526978851201427
P 4.412607063813392 2.5859495296174333 7.855281001398806 0.47329818301120424 0.3561934328756962 1.158754800030656
P 1.926892298564232 1.3800587503107176 4.849718400896693 -0.7286742900575064 -1.1591810889347973 -0.4640059590760009
P 1.3998612958897088 0.10513124232840818 2.2886836027716306 -0.195457833424115 0.7534846642329669 -0.40126847083746375
P 5.551202516418992 8.39160411019658 2.5662923323159506 -0.4201347116143474 -0.6387407010201516 -0.15537073559524212
Ni 4.2037962103612445 3.6844399670532395 10.02670464984435 0.2890860977042376 0.4116899232811039 -0.057598624350075
Ni 2.6876840660211423 0.624115319983175 13.088444822496006 0.8294918729972166 -0.351110361925834 -0.26819639873942197
Ni 0.8625670384097297 6.846237153313416 3.8836170996407318 -1.1160804010905812 -1.424398093330921 0.6637143402463538
Ni 1.2421352701630741 5.1354694113370964 7.739687460445425 0.34023202445043343 -0.362661299988227 -2.5569975751224483
Ni 7.879043130308388 7.072286127321001 6.274574971591787 -1.4018752296380566 0.17817693485648023 -0.8486864436477964
Ni 8.582288089294513 2.7126154616472404 2.2811773363127963 0.41278829855160515 0.4224559035483563 1.2000199773280302
Ni 8.574446688590726 7.125453971762397 11.528713382340115 -0.9741624485661352 -0.12216031028154443 0.3586146407226791
Ni 9.227514089354255 4.638665295673049 5.806293372372018 0.43398935810925254 1.2063088956605355 -0.20481253516613757
Ni 4.293791790339445 4.910864662252523 12.016831781191536 0.41987631574663814 -1.4334504333411764 1.249680834888267
Ni 4.193760698716725 0.30941778347365895 4.038532441478735 0.21435389899766957 -4.26439622208516 0.6239224050603964
Ni 2.7205401830196645 2.3762684380706505 11.289911717105293 -0.4055740401913532 0.18099229281808826 -0.5235344534589371
Ni 8.805244940710523 4.422799958943112 11.615988079594771 0.848279695127681 0.7580568569846816 2.163800825549525
Ni 0.3539137978805336 8.755039608931716 5.109128970625855 1.2989046049110855 0.9359103470634721 -0.014493565630484716
Ni 1.6683482637888771 2.5587314445299 7.972297474215437 0.7491374430078646 1.673657545956524 0.053890322260552355
Ni 3.668979354095355 2.289290917867461 3.8802703861172136 -0.7533231989544381 4.15992715843579 -1.0729298338450362
Ni 5.419333671525515 6.842108151289933 13.069191267544802 -1.1065562636502297 0.5970011551895202 -0.0743287926205623
Ni 0.9137972144127513 8.406907339669266 13.075545857206054 -0.3079112008305407 -0.17630182932095442 -0.3633536980695613
Ni 6.094962457785072 4.112291600495537 8.2737942394575 0.30332615256301954 -0.7486224510446591 0.6787979740523536
Ni 4.65563493851844 8.781544839409813 9.538017818875794 0.2215722711229797 0.36451069449214 -0.4070884199533505
Ni 0.10098927931202639 7.293863558778492 7.943097282999592 0.09137032148388136 0.249645375210112 -2.399605952442435
Ni 7.228012457000388 8.577714710371643 4.113503453331577 0.1600066917053567 -0.7949236481040438 0.11146812067502093
Ni 7.952744890642352 3.59713842202758 9.860868745703877 -1.1436233437058563 -0.32004217976611976 -1.750598836499269
Ni 1.9450654621787995 2.264572452838987 2.184526286481048 -1.1822009468687382 -0.9330086000356448 -0.4609044373325417
Ni 3.224111788547314 7.494379376775392 0.0612101405351171 -0.17597118545441306 0.2526813338229584 -0.5552569813731986
P 1.5594944391428847 6.821759392438777 6.1205409772709025 -1.408260307228794 -0.4185334285654985 1.2707777647678824
P 2.427519907133434 5.684228592821294 0.8089353755795973 1.0523831200419358 -0.006250866005718267 -0.3652131198758033
P 7.8987716130708145 5.3854406750950865 8.01888113426423 0.07180679752965698 0.5172151961091287 -0.5143828688666561
P 6.6680235009545665 2.66739085428241 1.1644480045127215 -0.12367469004354183 -0.2714305894060035 -1.5078172782885257
P 7.686220587382149 9.088248220656375 8.62990955456042 0.8945901481584465 0.8214512620809271 -0.909327197258305
P 9.017925576328176 2.7883539494367335 6.7939525079595535 0.8892260556330557 -0.7324831222806353 0.7128944015154304
P 4.655403492216674 6.423727300515849 8.534817527017358 -0.24445251815526284 -0.44507775471293026 1.5883015489875227
P 8.931947904148611 4.9712073420486265 3.4345492466082645 -1.087196113956063 0.20842339244584748 1.1555743454201453
Ni 7.504701881834099 1.1121828006482082 10.39821299558504 -0.19350482346280223 -0.5698585333364573 1.1681305848186012
Ni 7.3235720060730145 3.0868363580446117 5.491057028871993 1.1696737609360048 -1.8919424045774833 0.8109112817815518
Ni 3.1997173483413106 8.156936075911275 2.3707276136064026 1.3190330002298445 -0.11979129582873563 0.2620635463688067
Ni 1.4495667036567041 3.5428966667459956 4.232131718193697 0.21950176174719616 -0.4311570308667801 -0.0066722698138530255
Ni 3.2402482247063515 5.07082183032817 5.2178661463357585 0.2624594962556448 -0.7595378124055822 -1.7094789265305073
Ni 2.062621667771146 4.859039206361363 11.778477270211724 -0.2010931773330214 -1.7311445844293993 -0.5541820031414649
Ni 6.156591979018986 0.3482591018358175 0.22801719335779305 -0.8284963418531668 0.5868483830262345 1.0400847622905571
Ni 7.161328148535932 5.228547856054805 4.951327956297449 -0.7379204912461227 1.1603478555493887 -1.995729611668479
Ni 6.290367941439006 6.015752275469107 10.971803587892971 2.5060105425516195 -0.6170842990926405 0.8467316339142709
Ni 2.404967779489478 -0.04477930468023472 6.771798467954634 1.071436280018645 0.07669857840431951 -1.194231395670711
Ni 1.1251993406594571 7.3746753495026685 1.692153904603191 0.028252309977473924 -1.3846280125218347 -1.1714645342878405
Ni 4.183178973800041 7.729380693735237 7.0078218517830715 0.6116531007747402 0.6901686777831404 -1.1289605994873588
Ni 2.8158497700863845 5.235019094652146 9.347331062422239 0.08757228789402983 0.6266811987524562 1.1030531355929778
Ni 0.5209550743605955 5.892789484267537 13.149487395908645 0.2663482897870897 0.8511482749247277 1.466448742644068
Ni 5.580623970299326 2.0999678430239044 9.568613168398679 1.1244837946629278 -1.8298363792753582 -0.15345217841629055
Ni 5.861062825221626 1.762074758151526 4.308471040582573 0.5135205208663608 0.7625280053821577 1.324841122271189
Ni 1.0745774055374733 4.450240232480339 1.930751897092461 0.36468784349995254 0.5371129634743201 0.7439088476190736
Ni 5.6282371034983685 5.69498621692732 6.722571691139686 0.8726074732397682 1.1501007239000838 -0.8555510319781137
Ni 8.195217294223163 4.744732506845793 0.9482799360200762 -1.6702163814854591 -0.38934086616194236 0.09126439203363636
Ni 3.017791297302155 7.3030843794408 4.792091049112894 -0.3465605377716225 2.056250551871672 -0.6774620288497494
Ni 0.45809888772732754 0.573363774932203 7.5499635206072115 -2.0359033556738875 0.0038921359655545874 0.8809303912831667
Ni 4.291144044647257 6.701342510556618 10.731050367441668 -2.585893689331508 2.0491905597010964 -0.9557975729057023
Ni 4.942452453517374 0.9841837379202367 6.456169591526815 0.6907502613182233 -0.9858856505403343 0.3584737442694407
Ni 8.490487228162548 1.0341761391014204 0.5197469246653835 0.5569377115097311 0.303181142344723 -0.02002015187566875
P 1.5644011007402971 6.752131087015872 11.091542795003564 0.02284322314676066 2.158065208617329 0.20099984628826675
P 8.565235125780488 0.1254901848168417 12.045272828537595 -0.814340876288391 -0.11700987642885653 -0.0423776936352625
P 6.2702691445937555 4.036525339149832 11.418418110126732 -0.07821218683536853 -1.919657353994249 -0.2467716532067427
P 4.384065105879764 8.706695105419097 11.880453436554475 -0.4616271744311791 0.23825898775004126 1.0787677806830518
P 5.393096918757464 3.8331673605672614 4.842537085045537 -1.5378032831276547 1.0318490046443263 -0.4167693946865403
P 3.4124813046276 2.6163708315213907 13.316447203290487 -0.17767248441623595 1.1974828127284731 1.0822544536800716
P 2.307760332748287 0.6926197221647098 8.939048676686754 0.3692746915396866 -1.1868271327868398 -0.28525798220739906
P 1.0339724663558674 3.7958119274624322 9.83460884830565 0.9622189030510139 -1.158824476926327 0.708818945894476
