# total energy = -381169.9206179514 ev
CRYSTAL
PRIMVEC
9.26493102565935 0.00000000000000 0.00000000000000
0.00000000000000 9.26493102565935 0.00000000000000
0.00000000000000 0.00000000000000 13.56016306963119
PRIMCOORD
 96 1
Ni 4.140877469803685 5.362792143065993 3.796167378194796 0.15240522520901495 -0.28221251051285584 1.1972431859138413
Ni 4.967003561055071 7.178320202363128 8.71400473058025 0.05559624920806554 0.6159491570469328 -0.546264290956285
Ni 2.3973749831218485 2.2741328726344943 2.3275479786029756 0.6808535710298016 1.7711023557692596 0.09275794586002735
Ni 3.438521590099479 1.6670853368322134 4.458188381338583 0.19286204767248075 -1.2083061285962222 -0.5272602390499564
Ni 4.295601815401252 5.133614812964114 6.527605194365012 0.3935613320011932 -2.05674214679611 0.3677477133721989
Ni 5.188991304798644 5.207882498850946 13.460726221665668 0.8281284169907868 0.8810157519081214 -0.046067998002656145
Ni 2.5034213819068625 5.421124147849362 13.130848357893136 -0.4742831726322929 0.6400689329132718 0.4157278407959034
Ni 5.235890384883367 0.6635552756965393 2.8409085334063002 -0.7813579936044672 -0.13627078154099756 -0.3172569037114988
Ni 6.441174507226655 7.4592607012586365 12.505507216079934 0.8292203645033848 -0.1974041585172084 0.5984818535001049
Ni 6.652915237423467 2.6741092034005125 3.072109324411084 0.508636453301182 -1.3780390464504073 -1.003360153176014
Ni 6.775981314224213 3.2689085005872256 8.88981235287493 -0.006241867144653766 -0.4344899518947549 0.34610673806365555
Ni 5.778982102861696 4.645056478110771 2.1580321708649004 1.0474098351970607 1.7828808364614264 -0.3725435920989455
Ni 0.5523649872902217 6.037427349594875 1.935862834476195 1.0091867871601201 -0.4573406312406833 0.113917610656778
Ni 7.233029619174722 4.336793698067525 6.426676743394854 -0.08327803139405013 -0.5849465380178313 1.4216169310413582
Ni 1.892093448040745 6.39880597833937 3.855791840835103 -0.7205046097625204 -0.3481646490339488 -1.120874480045115
Ni 2.4370381521938955 6.412944262853254 6.040103061631316 1.3007604271729019 0.08575940305500714 1.3127664504948422
Ni 5.584298110404113 6.921802061251763 6.316432404430783 0.4128793156035147 1.1723428231277357 -0.7848397815054806
Ni 6.32932826171445 4.823285953335942 4.566737237952693 0.8897407904859451 4.191862059471175 -2.5607436724284414
Ni 7.8325077064528585 4.761739017539258 10.478833235148103 -0.1534418940036454 1.4537991722008574 -0.15305802830166543
Ni 4.698802342111459 4.793480670713945 9.162073464527575 0.3729901927180609 -0.7586294416586999 0.28477307215118053
Ni -0.0005568223455337538 5.740458520287165 13.263290544738476 -0.019641428380011334 0.5867162283237444 0.6896889099332444
Ni 6.774063473533273 5.784188994012944 8.165781167390753 -0.019959988061694658 0.10023034297767254 0.9231445627573716
Ni 6.8221484647698825 1.147220800555267 11.80532859513114 1.0310056828074246 -0.6655377666083376 1.5853815471272503
Ni 5.745859974986768 9.193507521997242 5.1010078152457865 0.2946769615284538 0.18347752113378724 0.30703419754222605
P 6.378552839448574 6.849415156332375 3.7213697382619655 -0.3086393372458168 0.6890407348262843 -0.42205943944088603
Ni 5.074523083849067 0.2594199174611351 8.450476742769537 -0.12534924953248733 0.5596558817718426 0.3381656288397079
P -0.020926699365342596 1.3127202607594175 12.276341003895103 -0.5157812918760795 0.7272308727427604 0.4146716316172471
Ni 6.943028017884339 1.504319031235924 6.74695428579564 -1.3332727979783103 0.7325481711906159 0.3873544318595329
P 1.225398287270971 2.4118004804928312 6.139676053214593 0.3030677566953103 0.07760283538614376 -0.1766754106102893
P 1.526239857684058 4.1062173634036565 1.108265472202002 -1.4567001478977364 1.819584362530047 2.2183714617065537
P 7.296781608519444 5.295760368191838 12.618138201237175 -0.7015362961901338 0.13328701632232529 -0.47726513807875226
Ni 8.996294203411027 7.800247217149223 3.5609391217390383 0.2680717002360996 0.05179667295631724 0.19495106899102552
Ni 3.074659959880725 6.261388523614633 8.411735434319462 -2.3553294991225626 -0.3812411198729434 -1.6772321506816599
Ni 8.783349032200581 6.931826716457546 11.335374241473001 -0.24172740591461597 0.6319020808317634 -0.6376050447538116
Ni 5.713942288125475 2.9942496248243615 5.168618648299573 -1.9137510158121431 -4.112173545200595 1.9565200313485533
Ni 4.127100517593891 1.5925674978117808 6.643598422936465 1.307113365974123 -0.9128249259989182 -1.486061117558357
Ni 0.3525269137873731 8.321909150015745 1.497312890508925 0.23393027846770034 -0.4119429198321744 -0.9219842239006831
Ni 6.976131615897519 2.4927574464707667 0.42631930872036294 -2.0855171620462727 -0.9637569369620951 0.6972291841743475
Ni 0.874902246331202 5.830837920964067 9.398562678075299 -1.2987320838889633 -0.2342537232453901 -0.18691945693580067
Ni 2.943273975155032 0.39139885776277106 12.368115703161644 0.08366575375077204 0.4724607747115734 -1.6883580853914923
Ni 1.7684436805949297 8.030462219509001 9.56815909071198 0.6705814996798322 0.8302287511632412 -0.357520636327552
Ni 8.81142177274912 2.6889423577299554 10.38734204276631 -0.02352919347019174 -0.46475646408878024 0.3957920211039248
Ni 6.028403306923497 9.171799788959213 0.4331688721155893 -1.9737343383443104 0.6997630063397948 -1.179347279470027
Ni 3.406955970611401 0.717922816558879 0.9470213947483284 1.3319203977154739 -0.31291096803797724 0.7693573695991653
Ni 6.148949322526486 3.517996167137558 11.766844851759368 0.3830889717149596 0.5947684092042596 0.33801110553971464
Ni 0.610513546442284 0.5761740066504986 10.332138805139126 0.08789110468602929 -0.1868343534211621 0.44716729025210733
Ni 7.289879235018235 8.470324077688046 7.574300568443144 -0.5747168898700231 0.35833901846378935 0.9317718994150663
Ni 7.521808249589723 6.389920909631102 1.4916724005927695 -0.6228705667571144 0.6981822921162363 0.1395959892594886
Ni 1.4452365670517515 2.404444125378791 8.580464649426327 -1.0876293448387397 -0.3947052157976493 1.0757637037494054
Ni 0.675234647556437 7.964597825924985 7.286526256534896 -0.7843399590509266 0.08763168037705554 1.3592676793801752
Ni 4.013039953602775 7.396861391821534 13.16236209376832 0.6994850700880598 0.004192183704476651 -2.1636776697080995
Ni 8.241841617401723 4.0621904118899055 2.1078319959097334 -0.7763476848740694 0.5357240535465935 0.5695073206446256
Ni 4.92685861557757 1.7809235424823502 10.690371063358771 -1.4666477460287515 -0.025025575510060124 -0.5329521472284112
Ni 7.87958282022419 7.906015668008013 5.5612942135367955 -1.2783154679058242 -1.1570442450974523 -1.060468468153232
Ni 8.784229200633622 1.0632342021814987 8.11282838147289 1.6789712448599536 -1.286521143645068 0.41788653901011896
Ni 0.8842023839426293 4.516283203891575 11.480345394339396 0.4711217441851758 -0.43868470670239285 -0.49220247611487483
P 4.920326839311326 1.556202644130916 13.023519692675144 0.10302718899651934 0.4455598365556714 -0.6265752693022112
Ni 3.6059944805798145 2.7162739038085677 8.502425210180647 1.0156065746435345 0.32073972005377666 1.827906509242497
P 7.686325627121219 0.8874358448176922 4.081555043909874 -0.9178059241532774 -0.6784135941297413 -0.6893266414978193
Ni 7.193968670609492 0.9401681253807522 9.61088709891718 -1.2697066431908908 -0.3350278545416746 -0.08479395381794429
P 4.578728837983048 3.279526111368951 3.349618092910823 -1.5963066786801863 -0.9536432455668606 -0.6554595564367292
P 5.308712741553838 3.299445712748278 7.326081025915716 0.6069382117975741 0.48533788778455766 -0.05196816553717502
P 3.808155272252801 8.334426071626662 6.88997331772686 0.7785161532802979 -1.1022823188652242 -0.8688474919767037
Ni 8.89022000983339 3.386341499416516 13.65060912694429 2.5418352655597127 -0.3400098811372983 -2.3291417849836016
Ni 3.328352297075488 5.680523682462575 1.764095648535712 -0.8664946754738109 -2.0830627869685094 -0.3688908258377066
Ni 7.329310780818429 8.910853010890024 2.105445349716564 1.2588951543976836 -0.11347718068524974 2.0744668177693826
Ni 2.8943273453471314 6.3731328548872215 10.71191851309268 0.6196574591364553 0.07418583928479482 1.562987495702766
Ni 4.985904020038246 7.2348826053495445 1.6742193336052746 2.009981493601803 0.5384895321068726 1.406120892288288
Ni 2.6348629562178005 7.721022793244745 1.2768538603595794 -1.5210908554689804 1.3304214445724443 1.5308841874103183
Ni 1.548744374777261 4.369989945389446 7.180499314104718 2.0565598555819746 0.5081363737363119 0.1161272167135871
Ni 3.9858473814872744 7.498460623786977 4.195704551237381 0.589946562335584 2.745794194476303 0.11471490974709275
Ni 8.923925828353386 5.728664263284428 7.276654472688537 -0.17297122228582468 0.2607168025329252 -0.062426384756021525
Ni 4.5482657452689885 3.149390892311262 1.0093410257799131 -0.5464280702276589 -1.2318000979531043 -0.3288440943284659
Ni 6.8415677598820075 7.739710158817816 9.724047111627332 -1.2326979271770253 0.3956120438826348 2.7441070365818674
Ni 2.2754114330951207 0.46023173519885213 7.4223584815870725 -0.7085433236355863 0.7359641388507002 0.9111542231647146
Ni 2.282017328808358 2.4995671706632345 10.964679724734596 0.05036199739231972 -0.549431375830357 -0.3788160553712186
Ni 3.884507567586306 4.458636803992889 11.65836362914064 -0.06384820480421262 -1.7623400361955972 -1.179589220277504
Ni 5.526244053546966 6.169702767684482 10.965263415379663 -0.5065937118395404 -1.4391770514123086 -0.497731119242588
Ni 8.269645674954916 8.806029582980392 13.18443764456205 0.8696900424826569 0.2276778698000853 -0.10463952778896173
Ni 4.78306688841145 8.461290770085792 10.966252909997017 -0.4167398270001855 0.5124923367121625 -0.4074668863386919
Ni 0.906158417128085 4.097656567275982 3.3283828713473724 1.6427145765207645 -1.0464243313553399 -0.17771207940491976
Ni 0.7648533974085743 0.8888311434073326 3.22555603604111 -1.8273514080699755 -0.12897141966610692 0.9905648011835585
Ni 1.8820687928349622 8.640446738398374 5.347002847870343 0.5036042901939134 0.5332249412738236 -1.6901419167647924
Ni -0.3223797552161205 0.7054021889756126 5.828266902646502 1.7158213238087674 0.35764147817613245 -0.48070630254981733
Ni 8.43883257764696 2.9167762728550897 4.670947327438459 0.6367432109741485 0.10587931373333377 0.47829255090200207
Ni 2.41978685090631 2.884636227652817 13.408913022245322 0.9582406351295562 -1.3401785239592081 -1.9873298176405578
Ni 8.88888585978752 3.2191836165859002 7.548969320940252 -1.4027496618232098 0.7383722340715607 -0.40361923045782744
Ni 1.6728110641124105 7.6784967605325996 12.551775354372129 -0.9872095115580806 -0.20135774384831773 -0.09805698947543758
P 3.1146381366024913 0.7189234290932826 9.648150650892832 -0.4430062168958822 -0.2623751640719546 0.6926022269252975
Ni 2.831205371301849 3.837432453814975 4.886255982514889 -1.251885812959386 -0.006221812539995736 0.7918943743594168
P 2.697669922613363 0.10604732527810151 3.0127563242453874 1.1154445672787952 -1.2908861054819831 0.05723815568686272
Ni 0.9327747105432159 1.1289688867332788 0.779333557871714 -0.5345002084418214 0.4530018946560134 -1.5605233504329898
P 2.4154786580498513 4.304764832035742 9.687163421817518 0.5799449710381819 0.2017063854369881 0.06018361146843183
P 0.4464177232655605 6.762658343627249 5.538947200268453 -0.11005324260536531 0.11391966753930702 -0.7945932613478186
P 8.73394842077985 7.775695150332843 9.209262536948659 3.2529342657376166 0.15333262211929075 -0.8053157899716452
Ni 8.608899648772045 5.461417332220848 4.282773592112965 -0.8661264935011149 0.2484888930081656 -0.14190406856737497
