# total energy = -340861.5123361204 ev
CRYSTAL
PRIMVEC
9.31267321496665 0.00000000000000 0.00000000000000

0.00000000000000 9.31267321496665 0.00000000000000

0.00000000000000 0.00000000000000 13.63003858953965

PRIMCOORD
 96 1
Ni 0.6867426003386078 2.9537843861746405 3.679374802941598 -1.2170041705908525 -1.5213549077636446 -2.275528884754152
Ni 2.709336026249494 5.916313372523372 7.313292585255111 0.20540954532018818 -0.017074696094099628 1.9603370911017983
Ni 5.550977201245857 8.912442483928674 10.058382757882013 -0.33777173583539893 -0.0799988464221461 0.7754048613448259
Ni 1.295802605563055 7.029876275416794 12.503093586360583 0.4522714442478921 0.6533947034879005 0.5878002054165425
Ni 3.8260838633916263 9.175152996081076 5.583477499592565 -1.1044024505320207 1.1926527383296814 1.0517110336755757
Ni 0.17253496588430806 1.1555258085211682 8.503563046374271 -1.465034893015677 -0.7977163803578325 1.0087597269250304
Ni 7.797352302623591 6.284685475277729 5.569847471035804 0.6349861190737257 1.333116217795788 -4.583192188149003
Ni 1.4359862758725233 4.993781335839884 3.831131332288705 0.9559608379564439 1.4153372686802335 1.5181366579366629
Ni 0.8805495744419345 0.6938304759429748 2.085914016351476 -1.2528713168011067 1.334125890007225 0.2871965939910086
Ni 0.336763958504216 3.5810022416860336 12.162696754024722 -0.9821148706439925 -0.4530126932892907 -1.3113484871013932
Ni 5.475013725612141 5.55579185331189 5.708491756458395 -1.500685552339751 -0.3714866115893408 -4.117754895943115
Ni 7.384633249891575 7.99998675969286 12.419132386946771 0.9017992643123759 -2.282739286459662 -0.483658700309922
Ni 8.584217315519904 1.7601324934013658 5.17705660777401 -0.5304262954827639 -0.40760444035782056 1.8697679253629735
Ni 8.770759473227269 4.250043312726546 9.88774757733904 -1.991772426792944 1.049096478870864 -0.10311383517305468
Ni 4.623258005566661 7.951169726559118 12.564564679895343 0.019026677614147874 -0.5992778670388389 -0.947665173606555
Ni 5.837109086601495 8.174003371889945 5.017707455932827 0.5305039427982348 -2.8875306271175627 1.235372645795711
Ni 5.36084035166714 8.571896648820946 2.839042007894564 1.4393053494600565 -0.6868748375232171 -0.6073765848865733
Ni 0.22783268832704984 7.606302811067173 10.379015303796708 -0.9451228668006756 -1.2919628834859298 -1.4004708930913623
Ni 4.951231731797901 4.585653431016097 7.727346144062681 -0.5305101134458218 -0.8134384190787798 0.6426791168426093
Ni 8.964230259826566 5.777005093498636 2.6375353155548815 -0.618243095287432 -0.8478413220386819 0.1466670371736571
Ni 6.823349120932433 4.766468294679728 11.41827890576473 2.1224664855771125 0.019741444292985355 1.1830954336585495
Ni 5.321578121279528 2.9576584582432477 5.658796538237947 0.11610304834387103 -0.8240868999315614 0.7011102643963086
Ni 6.667436345517491 1.270174128801502 1.5261143275070834 -0.6543866350875246 0.008865420810429892 1.8013945789948975
Ni 1.0160964647442892 0.8165966534882235 6.3852092640521585 1.3895398480011554 -0.7040870876364455 -0.6130808343602022
P 2.190359371828046 7.057553540291552 3.650765339475331 -2.513097017084756 0.462608564507842 0.38338439146819137
P 1.8360866563618403 3.8896987343066582 1.9285689517919384 -0.09782661863218635 -0.696536014762065 -0.3325585670655756
P 4.526182699693686 1.8437696117863611 9.624919725503792 -1.3419674975388307 0.40149678479818596 1.5627481259984504
P 2.729972910153419 8.953371682826576 11.657118242596315 -1.8228182960863122 -1.651185590106253 -0.7871126367000574
P 8.28648183930493 1.6292614963337406 3.125285645329104 -0.3728678082075836 -1.6956425348680473 -1.351276947865215
P 9.289838567054378 1.7980723241886356 13.282323138465909 0.4067302652829834 0.3638067264465799 -0.6390834290715509
P 4.99805585285789 2.5314080912908343 0.49974132784042025 -1.3603161752493476 -0.5207946859302708 0.5127679589710523
P 3.0962682867748446 1.8866824100847754 6.749581573649144 0.3639951883083022 -1.115700134933027 0.16588886151774657
Ni 2.3340539199496897 0.9801774840504992 4.003332904470955 -6.011903307032982 0.18911852146964847 1.3208178600444092
Ni 4.161889547819257 4.318510086400579 1.9153337805806308 -0.4351460974215151 -0.8035561269680612 -0.5825962926180999
Ni 7.443144775870078 3.4834147387847576 3.8796950607102705 -1.1330715363319388 1.4470202016058111 0.5624581271073281
Ni 1.4598174066984007 4.767101556460173 13.420885472363972 -0.5662021675307927 3.7718309633142266 2.3028224303627827
Ni 6.623219772965219 0.7556228567045782 12.379905544717479 -1.6863487682709475 -0.7521970557697949 0.7012030812204311
Ni 5.910651267192331 6.761317404468515 7.406180913238552 0.0936999980583225 1.6287043782846016 2.3027956908899054
Ni 2.0092837533136434 9.276474880952332 0.08545122713250645 0.37752459025330465 -0.015082091144103056 -0.41848971981175664
Ni 7.187083512412352 4.606932889373709 6.6308636151621245 -0.9952251827737054 -2.8404753255009725 3.3534823970660246
Ni 4.191336220609966 6.476442730000525 3.6280843237948215 -0.12163709078822278 -0.22979414481213972 1.341593916249496
Ni 2.263789800339981 6.037340873974369 1.7013285494830699 -0.47925260082242627 -0.5753542663437059 0.0655091374464033
Ni 1.5804724012197233 5.184095126210195 10.867407276757294 -0.3158073157491658 0.30262475562062074 0.22374716728711141
Ni 3.5718665092357855 3.5528314051294574 11.461771883606113 0.2359215978661163 -0.4476581138455968 -2.834931255754292
Ni 4.180086511333818 7.064873301459642 1.1464701650607996 1.3722671769636368 -1.2769514976787621 -2.126119251838351
Ni 0.7973408390260639 7.783224977315714 1.4974638882785525 -0.2725109669543758 -0.41378382969565514 -0.015063836311657927
Ni 1.6374659614598046 2.9384371006720826 5.646162034450738 -0.6215490197322134 1.1808860847120566 1.4112792965607759
Ni 1.8995338991585191 1.7806483125531465 11.81301798026872 -0.20651023458353465 0.31635958870820996 -0.4230470001651359
Ni 6.614698676948932 1.7788509666174708 9.039714132788328 -0.6675931064754695 -0.5729232883047102 0.48393843633386974
Ni 5.8026149449137066 2.6963820977700896 11.227948352582585 -1.4510347220818427 0.5348185110131886 -0.6742170395498904
Ni 8.104335263367716 8.474076329088623 5.827059780906222 0.2783581697637722 1.8055471677106907 -0.9235790791916286
Ni 5.875300359566294 5.84405634083991 2.235585438159734 2.8361648710510767 -0.12744726971209663 0.010664678802697763
Ni 1.392598531238775 6.715256922614357 5.588138492550108 -0.9908527647376226 0.6907978267267071 0.22955066134276594
Ni 6.922985411946915 2.7194216513704106 13.35553006282004 1.8171986359066896 2.5159113466050997 0.7459307631451089
Ni 8.185364833244995 6.693288326436848 7.6554886260612935 2.051994090588163 -0.4814850896973708 2.5362816827313353
Ni 4.449911905842988 0.43376569425858086 8.052422697648383 0.36351259224492877 0.06848081848021755 -1.2452611085540166
P 8.92433476765851 4.425438200563424 5.591763916243158 2.5690537349560336 -1.57774279963507 -1.31036246903904
P 3.482651099578926 5.508967732251901 12.786721293881488 -0.13932679475850196 0.7166191586651852 -0.20231110890052253
P 4.1465236369702145 0.8390951407731929 3.6524546584014015 5.240458201666852 0.22610435466537832 -1.48942669159648
P 6.831404583286628 0.9883260731371121 6.541382794317872 0.11389138540453288 0.7605022332013807 -0.007134039941619971
P 6.294063337232266 4.179816443809805 9.355071980578842 0.6029964535410067 -0.25200410525027567 0.13344925293180243
P 0.24507975917094382 8.405162547098982 7.36203325446827 0.1836299875512515 0.20799607510044177 0.5453170965516673
P 1.0540269828583173 2.9292734302021093 9.767054400857427 1.5935460852159136 -0.6038994249712503 0.3931293866700971
P 4.6711903347424295 7.100000704927875 9.182461582041276 1.0281926388386615 -0.2817445697375019 0.03534546937882945
Ni 2.747722865352372 1.7835911172975691 1.5052874650690249 1.3092018730720358 0.6904802954862883 1.0272747550100823
Ni 3.153997548201031 3.145234322680457 3.7700550960993997 0.6043959049916945 -1.2086267451604344 -0.7535072899407862
Ni 4.716645492835867 5.346564023587394 10.649571743155365 -0.3532610897202497 1.5972898685290622 -0.2828997663878676
Ni 2.4317718002763518 8.468339722371647 7.708836274727194 -0.3215491033289494 -0.458771707260255 -0.7639205148543101
Ni 8.042927496011 2.2878351226504208 11.303732093622733 0.9627529211776128 -0.6789594393308823 -1.2249226541069806
Ni 2.9745516475039513 3.3050491081837308 13.410445034392541 1.8144773803207848 -1.7073441395756919 2.8618370790062
Ni 0.34389001606887454 8.71387766506609 3.9047470829981528 -0.002248172604228386 -1.0835621167479017 0.374218151587891
Ni 7.894809428099482 7.173524260172228 1.2663643141782637 -0.043940667247008194 -0.4875006997638314 -0.268876198415266
Ni 3.059427351430112 4.290711756773676 9.277353997306362 -0.7187246350439621 -1.0136867319130025 -1.105265055642632
Ni 3.2705084031297336 4.620995025968893 5.480406694686492 0.5147952738137264 0.9728270175841632 0.6184966060591348
Ni 7.104331097985331 8.723702535336235 8.02692087324292 -0.060756967473398586 1.3032137738094007 1.2240723902915436
Ni 7.982767626868692 2.6795168465291113 7.632521711312259 0.6127280790064739 0.4023233944645394 -1.5369645892764432
Ni 6.356700377456904 0.8874241898290633 4.374574241851124 0.20177092012633635 2.4272895344006327 -0.6260168256955799
Ni 2.6558905945145543 7.229744868533237 9.76390578603436 -0.4926092246349904 0.012750100576816751 0.9347276396092805
Ni 2.29369279411954 1.0930843344346082 9.207963406446739 1.9457085425553455 0.4803144664280373 0.7145635616877372
Ni 6.836843184459865 6.585438257623061 9.953321834704157 -0.180057953929277 0.6974454139502118 -0.462986516672551
Ni 8.637252989632202 3.2994056281991737 1.6602745607637275 1.4760968072567935 -1.3273366349995332 -0.689299902024942
Ni 8.42379720625591 0.1917917116137918 0.6377672517597535 0.2098207870140064 -1.3084500825076757 -0.7228330007853809
Ni 4.5983093539517625 0.2440153206194011 0.749715828067277 -0.5302761430581449 1.2298249765046045 -0.4597595250948211
Ni 0.6153414033260705 4.088123863070615 7.8200575312545295 0.6862881117818116 0.8031645479565974 -1.124323872046296
Ni 3.0356614093169276 8.459082925169255 2.376042901062513 -1.4976827609576853 2.2645739284045447 0.5046023924411245
Ni 5.519761120539197 4.737990139906172 13.471371336542655 -0.6562085187876118 0.03035367259119288 -0.025818760835316826
Ni 4.198814297223166 1.045720078326593 11.95125437060332 0.926804785217778 1.0964446291375245 -0.010766494487884684
Ni 0.3375881300861192 0.04828714202628209 11.766471376871337 -0.95586879246327 0.37298942138711244 0.6126563452282738
P 7.36783318736329 7.185789050831736 3.5332198465494598 0.2587172556043931 0.40286923966568045 0.5730616136547874
P 5.033229819692332 4.23480777930289 3.9831877297141998 0.5706820576790171 0.891740080304161 -1.3022953757601894
P 7.4402950978580735 4.771720642388129 0.9543292282004386 -0.9410463827384569 1.540101335133212 -0.18699504736874248
P 0.8296604715118814 6.277803409752006 8.564816223355173 1.1833785121166072 -0.7823188148558398 0.5572449583375049
P 6.15425217385247 8.088913476479224 0.8073314748799135 -0.9382032568627069 1.1813329424414882 -2.0179287734733378
P 7.535684809874275 0.3450839007784789 10.49908266863647 1.6560038374305028 -1.3857729247595554 -0.49996772188259053
P 8.762843700971702 5.907643273735216 11.679921254296294 0.1652769389653605 0.0989447913970296 -0.12234003039251833
P 4.1465236369702145 7.18626399716707 6.240553648051958 -0.9697630339468589 -0.13346236555792498 -0.10284592622364867
