# total energy = -340897.71889435966 ev
CRYSTAL
PRIMVEC
9.00042386940458 0.00000000000000 0.00000000000000
0.00000000000000 9.00042386940458 0.00000000000000
0.00000000000000 0.00000000000000 13.17303010966392
PRIMCOORD
 96 1
Ni 6.265410991747089 1.9021405576949482 11.409371882724216 0.4228600809653104 0.47421555261915105 0.07135865424864483
Ni 4.659789394931392 0.4632077090164441 5.923331885778423 -0.25560493522765654 -0.8017391283639805 0.20192544342632968
Ni 2.7278214328851362 1.597233201868377 4.644507575423823 0.37739834908808556 -0.19591060469081745 1.0998037754177445
Ni 3.432491610578844 4.170805372299466 4.879487938906816 -0.27589196761146684 0.9540649064853118 -0.40366499609409834
Ni 5.1591599065860745 4.6184054464681115 2.646607009100106 -0.1739965782265455 -0.9188333369765272 -0.2946659057848603
Ni 7.19639682496694 6.049508826514991 2.5318696069665894 0.31838407533740654 0.13974614168410773 0.18146640424102942
Ni 4.809646450588989 4.4289015241335346 11.621563173238739 0.36182029214417044 -0.2042839163561772 -1.3849082627664149
Ni 5.649052972018086 7.799182205661009 12.262233137636947 -0.7413613986068717 -0.1135579133245141 0.4529921244640005
Ni 1.883473678810032 6.562865996697715 0.3175700520190442 -0.32386515305663577 -0.6256833536155612 0.4179976106666866
Ni 2.6421103973880014 1.5089930472937774 0.42376155178938407 1.1049526666085356 -0.41983389254447695 -1.2082724471448094
Ni 0.8807193665446488 -0.03038183045512218 4.575901845288686 -0.8158123186275951 -0.14100495379187328 0.033778382002025695
Ni 8.540772121631441 2.179578620196175 1.3022677141306573 0.33190576397292515 0.9218322717038511 -0.28808156769912324
Ni 6.813959818844 0.6976300462261182 4.486048814775717 0.46993723695877127 -0.20454154089293805 1.1605615142220915
Ni 0.7213821645372531 7.296391532976303 2.401495768629233 0.1357411342897727 -0.2372860823138107 0.5358392389682192
Ni 7.4453035441387625 3.7326107409633833 3.7292319818826707 0.8846932007597087 0.3249671278715629 0.5261785759500034
Ni 7.67596640434254 3.9894378330468383 12.573235580435972 0.28842275308862586 -1.1344859001809622 -0.6199996729672226
Ni 8.050051017213214 8.9306434777828 6.5755682947547465 -0.38380168151126803 0.2706790559519596 0.4741427903996867
Ni 6.772899885636194 0.6799199123872322 0.39441387002465567 -0.08709611958855969 -0.15387743887916724 -0.5398679005116379
Ni 1.8521882058090826 6.30494985333891 9.236006255051791 0.6108897402461544 0.8887815118964693 0.11383919201035878
Ni 0.15815184619777964 4.931080168002341 1.4187223971181957 -0.3495381323427077 -0.7584461220033002 -0.4044275852917358
Ni 6.294356354569602 2.1080792538211632 7.032804222604295 0.61504412873416 -0.48376385842921843 0.006970003559929931
Ni 3.4148867816979878 4.312796057588009 0.4796523832742216 -0.23120568044768572 -0.5760613197130595 0.33507567706047453
Ni 5.873928559742114 5.620953649029317 4.805402750784632 0.30816522582287575 0.05368154868385593 0.49927635224252076
Ni 5.200570856320645 2.6433794571386153 9.338031458662137 0.15741476260846438 0.6703927807077938 -0.11129328566005349
P 0.24845489789890887 5.625174847774267 12.318798100861653 -0.47008121873580333 -0.2716663595658934 -0.05621974172467737
P 3.9918679474629077 6.117768040335244 12.638020630683624 -0.03906199899846821 1.2196850598571252 -0.7334899662785948
P 2.3509736899191553 8.46027233149321 1.3415149619925502 0.13469238131028416 0.02355747560496588 0.7977009537388648
P 6.414521012232339 7.757663250841279 5.7708017042631505 -1.0151918557036195 -0.2351099005980983 -1.074367337622511
P 4.71542101421185 0.8897134900112337 12.71924585497717 -0.09053934094215374 0.20081832640507996 -1.4042162190664076
P 4.007771696252515 6.130539641655252 8.331941589350105 -0.4705378466572477 -0.28593855321419137 -1.236620145049567
P 4.694243017096994 1.0884842486524209 3.814737807718004 0.16846382133377438 -0.3568534350571983 -1.3124733447344559
P 0.14052361621513884 5.47529079084538 3.734869847327951 0.20616622098055462 0.5184364701107395 -0.95321361422861
Ni 1.5573253229022637 1.22635273985741 2.5285106488181563 -0.2819050065747661 -0.75197954044235 0.22104982296060638
Ni 1.7803018212122521 6.554171587342446 4.888077043304056 0.284344212143878 -0.5686370022245304 -0.6065373768147296
Ni 5.949676126133365 5.637172412650637 9.176358646688186 0.054487332414602935 0.7674542390391814 0.03593373778213166
Ni 8.536712930514229 2.479382735749001 10.147935491037778 0.2022046652296453 -0.14511100554044687 0.10822184582358135
Ni 2.439672866105679 5.107875491983252 7.039285427756188 -0.39229943456963406 0.2082416154523446 -0.15293332979834307
Ni 0.5309872002501177 9.186552526642409 9.111323384659917 0.45662226501742004 0.14702879138845001 0.6403445551721617
Ni 1.4455490601868464 1.1295891839790422 11.489424351801414 -0.5109836133771198 0.4811801568624423 -0.909743201749801
Ni 3.97093296178966 6.663652741998242 1.6278571437227298 0.940345242906374 1.2990473011365369 -0.7258998126361628
Ni 5.523164044841942 7.891634558556795 7.707341881581121 0.7098869821476742 0.0958448123154672 1.511324777221152
Ni 5.357196230648182 2.8723952397937236 4.828508638669567 0.26811772298268666 0.3473994887331501 0.2206739276784264
Ni 0.8524481354620016 7.536873855505753 7.099644069597088 0.04936158115226338 -0.6915151645087059 0.22104468075428385
Ni 5.113725767429345 4.565131938213618 7.179327521299996 0.5019269024914904 0.12584058734660908 -0.796059818591016
Ni 8.383723727387032 7.204407202116205 9.235993654458522 -0.8837958857564199 -0.6200338686392677 0.09485750870153341
Ni 4.684396553500034 0.2517130513011942 10.318289211731352 -0.6180034684728002 -0.12497026892651382 -0.22885852037174778
Ni 8.12397149758053 7.353877239551983 4.535447640600146 0.1917338476053085 -0.5906037363036086 -0.21380471136241888
Ni 7.449668749663925 6.2049011427869685 6.971312427411606 -0.27089040063181735 -0.41626700112882503 -0.07936712637541815
Ni 2.289005772309392 5.121493133137003 2.566396132564674 -0.4856171095878734 -0.38678287562677904 0.6520536160789738
Ni 2.367984490831639 5.294679287188863 11.383736875761816 -0.6043493680244753 -0.4800298453080829 0.15862240976332037
Ni 0.9928547461682184 3.3113369063021527 3.910571619821632 0.3838592742220808 0.5766416176965617 -0.7870874398890767
Ni 3.64807876097923 2.675690978448572 2.540260702041038 0.37251530996417137 0.30568256861033805 0.19815980573631034
Ni 1.0885472516187633 3.306737689759148 8.11263726393551 -0.7053024481007852 0.14125923589452447 0.30392162005517337
Ni 3.636567218986073 2.7776477788383174 7.207517748568773 -0.16186868461475992 -0.7649970357479405 -0.7086579948365795
Ni 3.987106723292165 6.809918628574315 6.084701383471554 0.5051394958915172 -0.11618146699029024 -0.509086139244091
Ni 0.8373355239211805 7.526487366482999 11.374424137294014 -0.233663655069875 -0.5329848002385595 -0.15054708895435362
P 0.324827993741704 5.559579759387926 7.987480071211315 -0.48792955977113395 -0.6163263378806934 -0.2524530198622362
P 8.368594015041062 1.6651864012806807 7.951411773022591 0.24481067282563 0.6032869881982319 0.021650231279924007
P 1.8998094479402745 3.274354165059086 10.504885097148035 -0.7779291704285763 -0.6073413607732638 -0.4785548034244532
P 3.899055577616593 6.10374538011215 3.677975468593515 -0.022360369973071167 -0.167371359600544 2.281973869048547
P 6.611540288409205 3.946865828646813 10.495677663638263 1.1030744757492164 0.2071635518968174 -0.6156393391159978
P 6.370013916723221 7.78274743186937 9.978912933018782 -0.27785680464732143 -1.562727300062844 0.5351437555630912
P 2.5195786282755375 8.4097439524865 5.9577135045539205 -0.23764526542544234 0.6683554385627909 -0.6737264730667171
P 7.035298240029083 3.9571263117368822 1.5481205895196195 -0.6254735515976002 -0.2847005670420323 -0.009794874603234744
Ni 5.3103580253843905 2.8115433747306 0.4316234219465559 0.08767204669668772 0.4639324255255881 0.1894550788734608
Ni 1.318400073683851 1.024185221287984 6.9233491691774125 0.8502936402339163 0.7930878804468857 -0.005427341663158396
Ni 6.90192096028194 0.7326848966991036 9.267055016907769 -0.12419945219876029 -0.10996711064946223 -0.9250368946840778
Ni 2.641768381284999 1.6215163451815418 9.177834716185354 0.38147920402567853 -0.7936188132496913 0.33238501760218886
Ni 6.337873403464766 1.925028635324814 2.5098707712045294 -0.18283320268156897 0.5059434798500513 -0.15828250992539836
Ni 4.019004225109013 6.844489256248839 10.380914160275832 0.5651390163736009 0.2797735620540601 0.48288171293458126
Ni 8.051878103237147 7.205685262290583 0.2063050133733778 -0.23874184092373077 -0.8044369869111179 0.36903352206315804
Ni 7.484437386661239 3.965874723634731 8.294543028529176 0.6235668214931905 -0.4416533024124136 0.008116972680179569
Ni 3.0966677991256155 8.294106507976661 12.310894828755169 0.9291288053652643 0.20408234186833238 0.5658262722486127
Ni 0.10542286358096092 4.820941982411829 10.135671513618016 -0.10009433162044051 0.02660140463761225 0.6074107805586184
Ni 8.476806109946244 2.2359302733776896 5.666299584033167 0.197913236943143 0.338439708436701 0.23093262929195713
Ni 3.7740396915454806 2.359002067915947 11.363266311954751 -0.7761142287070246 -0.048843246754948146 0.30514700782184223
Ni 1.0926784461260808 3.449322403016064 12.60840743641788 -0.265245286530898 -0.10181465674565691 -0.6588935218189428
Ni 3.1200779013337483 8.183572303740569 8.203530743435506 0.09268775474372423 0.7311155525091473 -0.3704178040051943
Ni 5.4842822141848355 7.851501668996601 3.592825159496828 0.5163065682519302 -0.33905625897477737 -0.02695056044691487
Ni 3.1292763344197585 8.2779957494405 3.5510802940406423 -0.6484065062446898 0.17510600924064038 0.017292468531860544
Ni 3.405616345221872 4.206258041502785 9.250483436674928 0.23112726180126644 0.41818838652125395 0.22669956504721603
Ni 7.098868233068699 6.011518037810444 11.269500797231911 0.6369077615764708 0.30935410392465434 0.1626220178410167
Ni 0.49896279245820807 9.037055487935339 0.2847824082920136 0.10644932730419088 0.2734795015152322 0.30460861881986895
Ni 4.566022980166176 0.3093517650808489 1.6237601508257122 -0.38215437571583216 -0.5854851841301207 0.461850860406211
Ni 5.984237753384127 5.413952902899042 0.24773306391309874 -0.3044816063237014 1.530929695936273 1.360670987485605
Ni 7.786248596713263 8.665680002617396 11.437140890160876 0.21173214510410635 0.5462506641095302 -0.503171830642185
Ni 0.1819372660768386 4.726527537135661 5.815813723545385 -0.1728814907854958 -0.10973056915862392 0.6318889682056407
Ni 7.858053977496224 8.780471407293492 2.3507405789436877 0.5582579729830515 0.10277367822481655 0.5518271297560432
P 8.637841691917759 1.571428986939228 3.492447033435152 -1.135350819284419 -0.16286344442786144 0.5454150555821122
P 1.7714094025341915 3.127251239073034 1.448598403757825 -0.44512969099678823 1.4182364446048994 1.4290330209997713
P 4.6947740420990245 0.993574780069276 8.106129057512325 -0.6537585145852225 -0.30352258484454175 0.16050857104243968
P 8.29614960417091 1.6775619839551068 12.184671085815031 0.998173723879068 -0.31951896027279814 1.1756214938790075
P 6.233207475522292 7.6984854645981144 1.3525800829670518 -0.3999937178900982 -0.667993941458314 0.37505324589467665
P 1.828985113347504 3.111257486045794 5.99699585406849 -0.14984312090879354 -0.05296961021849587 -0.04239440580581086
P 7.028799934072039 3.97881733300624 6.0920385289233305 -0.9533573388953258 0.9417516363355974 -0.9862867426334948
P 2.390818565918926 8.482449375645782 10.26670418297484 0.08182792921108488 0.6945809479182232 -1.0067702072988274
