# total energy = -340889.79662811646 ev
CRYSTAL
PRIMVEC
9.08581726791136 0.00000000000000 0.00000000000000

0.00000000000000 9.08581726791136 0.00000000000000

0.00000000000000 0.00000000000000 13.29801198007163

PRIMCOORD
 96 1
Ni 6.617318701781965 1.8731956518561144 11.198508519589968 -0.26828664446038314 0.2279465500804397 0.9488499379432755
Ni 4.651320514175423 0.49243038886243745 6.0087597589556605 -0.1580184576307343 -0.9122608259653321 -0.5377716801042416
Ni 2.9129674737420705 1.81988007717592 4.680248847206144 0.488383616589417 0.29814692235492524 -0.503043789704753
Ni 3.4401810961675943 4.3757931109414585 4.471535817101993 0.7558732190698014 0.22120280359870292 0.5998208840265025
Ni 3.8023054220799724 2.680634044950786 2.42553064995193 -0.13707553683048004 -0.23652066490269588 0.009935771056473211
Ni 5.0688228952472745 4.751882337720139 2.333561283628594 -0.3982384257618883 0.1051169816460125 0.4347992556050576
Ni 5.237937208730993 4.5760263479561365 11.552129429288442 0.30150786840735816 0.04120887013814194 -0.38921256811419425
Ni 5.678708367368621 7.902870961751415 12.536355108398771 -0.7558745046213821 2.3626779690678346 -1.5627481259984504
Ni 2.029517134878055 6.790439860602079 0.2609855529824897 -0.6639822491957597 -0.11523118726187898 -0.6037657276068633
Ni 2.985136118882627 1.8559598568376536 -0.1315135680412312 -1.939744097441795 -0.828376785556167 3.3410385148757165
Ni 7.966053733790623 8.60310579900907 6.870484091995667 0.5566278935787962 1.5276152868510593 0.6876649375246803
Ni 8.716960172955478 2.533298435030194 1.1249177395752041 -0.4303368489583298 -0.38365332885886183 0.22368751769376963
Ni 7.04848615175617 0.9632238129083419 4.868907661830723 -0.7598388885857689 -0.8855969435209007 -0.4091041648317987
Ni 0.9541289100019215 7.531697162018063 2.3203968432478623 -0.053827073122784716 0.33691607270332297 0.5243795750680518
Ni 7.760241805083096 3.927090033984845 3.748350205876689 -0.09018607136779307 0.04493774105295487 -0.6811644174020011
Ni 7.66851139574921 4.145722050605418 12.58256557411511 0.2800728384620338 -0.8931451881818038 -0.2915499858636979
Ni 8.46348404779732 7.256087986430295 9.404380373790339 -0.2670859392840626 -0.15736051233176124 -0.7971556227583562
Ni 6.9791886248158415 0.8773910074471404 0.3082408876641005 -0.12063333211405675 -0.5544293432655807 -0.9453709782557398
Ni 2.014307477070515 6.435547845092808 9.173101808363127 -0.31500924532790264 0.7731857422063201 -0.8914518596397809
Ni 0.39587086774557173 4.809977052189322 1.4362387192325876 -0.30702956955653576 1.1654494384420122 -0.5647248116543178
Ni 6.309918252198627 2.2987117236007557 7.068877451049755 1.8042377048706477 0.01970056375272091 -0.5506639626858775
Ni 3.4478222683397215 4.2610664985544755 0.2401890262467199 0.2606982905901639 0.5452931852922673 0.35595791982612246
Ni 6.246799080879044 5.728480473383976 4.439767257649147 -0.37821647411400666 1.0425661339515142 0.28477718591623863
Ni 5.690837933182878 3.1677156132927347 9.286892581589909 -0.6027344581288716 -0.4828930257884909 0.02461728432804793
P 0.5377540788308565 5.7926808569371895 12.445476040126156 -1.5919586861241357 -2.041976044230528 0.6131939628992988
P 4.140570392315768 6.246944453952474 12.662512587265843 -0.29335438606228836 -0.22405878499025927 -0.8204354192219031
P 2.523767412903486 8.789746653658108 1.280094409643889 -0.6942683017738107 0.8147044302753969 -0.8193079904856793
P 6.278617612325881 8.024884399444042 5.736815801981728 0.4834244728119288 -1.0843337048066035 -1.0233077999425344
P 4.74522243379366 0.9978589476528718 12.422298120731272 3.023138064042948 0.4314017998877344 0.6467057215034991
P 4.091988528339114 6.169360661826676 8.22509946482454 -0.631129464331797 1.0614156625578492 0.4285324487597394
P 4.847810394549296 0.9060594861091067 3.8408783499510184 0.4557951411304344 1.9644871087144298 -1.0194269768308895
P 0.18441392088044337 5.9280595315682225 3.538335178183637 0.21180336466167393 -1.4641979989366782 -0.3275521149899197
Ni 0.8568070888312609 0.36789654550923034 4.62206963463803 -1.2387983836478085 -0.3996808146353697 0.25548872136476647
Ni 2.0057758948236333 6.487582319563407 4.7422968006908945 0.7501242324011662 1.1056481500136635 -0.79904281247874
Ni 6.194519289347034 6.093012540825026 9.162303314752455 0.12216390982597025 -2.6686148197808235 0.08052977922495164
Ni 8.365847857355368 2.1963963373577986 9.57536636559446 0.327028638386282 1.0123487298278695 1.8590826777349851
Ni 2.575474797958869 5.1384929406882645 7.07644411952175 -1.3987837351969263 -0.1036080012006538 -1.5365190170985925
Ni 0.641527738716651 0.15068736784484651 8.84203371384379 0.8298523416604289 -0.6421954923379714 0.3271116850183915
Ni 1.3826251297518632 1.0507929180153146 11.175742187709231 0.7860973080616654 1.0408609783349494 -0.8189482931534154
Ni 3.9274352950342393 7.143605570864376 1.3477001574421834 2.388304668497003 -0.2196884238367055 1.7665435327539836
Ni 5.6498063832074585 7.884799271560735 7.850720188822073 -0.0843650938106418 0.4280601371090112 -0.7809381324582292
Ni 5.347693879170111 2.958923536579907 4.629875260099475 -0.16380858194995015 -0.41525990002054936 -0.4154599318464974
Ni 0.9771796279575544 7.544980626602665 6.816015527126837 -0.40893524335410214 -0.4000510534905949 0.5356808590134838
Ni 5.438642908234315 4.9763565347291525 7.1827618081925575 -0.5880220916193615 -1.8593266754249913 -0.42133078880497765
Ni 1.0286053526831682 7.40719421044296 11.261860287827039 1.1045829419739426 0.9512377214491617 -0.7296225129033886
Ni 4.695822846278967 0.5229351111581575 10.252367859972985 0.7728407001620754 -1.4295289867995833 0.18400639705406374
Ni 8.270555807722465 7.57480027828985 4.518544926140484 -0.39899124476751285 0.011491802689683434 0.1604129260048399
Ni 7.373740231920043 6.2973162238957245 6.754166553036343 0.545428425318551 -0.6266901976135207 -0.0017190395736357488
Ni 2.4685256450003528 5.434072742238382 2.5426459236516976 0.8657369713721801 0.38639001106373455 -0.831442311855368
Ni 2.549334902192863 5.351182832932415 11.47736769195059 0.0469300888926353 -0.6766485318095186 -0.8541821766550449
Ni 1.2005635269158477 3.747636060653467 3.6870863584067477 -0.7571829390201604 -0.49352248047787906 -0.18415552103741833
Ni 1.5088271291226714 1.3721037535624179 2.591210524575881 -0.599563773710374 0.6987494774736159 -1.4996743374664172
Ni 0.9470601443064219 3.4030291900893195 8.203437059720157 1.1928306586684425 -0.15920836417377743 -1.2262377733739787
Ni 3.895226073452561 2.6695220906505344 6.846653810933769 0.09291092649812385 1.6575899509707002 0.26373373498237807
Ni 4.060279026697349 6.805822148934316 5.960475001197828 1.0548472653117125 0.4824726504216207 -0.43649926901529984
Ni 0.6981051217319155 0.33785247413993935 13.44920987710899 0.4982476538676903 -0.12957562890900912 0.5161613009233175
P 0.23752506467612802 5.781241813221722 7.911173581407645 0.2831509631667253 -0.42769761156326985 -0.054632085522583335
P 8.591475953134726 1.4975516301148115 7.642833059491343 -0.010665450133646148 0.5488279379184031 -1.8522134614189778
P 1.7867986171536656 3.2332788694093475 10.231197906154845 0.5890232791903662 0.010684733407355792 0.501716329142581
P 4.251944338196787 6.355865229219374 3.7130572579748913 -1.432563402750533 -0.759647341400253 -0.7372748872423237
P 7.230874844007402 4.3840793761269286 10.152300304877931 -0.6600026957227215 -0.25151765253216035 2.7592120105441063
P 6.322829198282567 7.721545310099635 10.319895469744312 0.8455440413640729 1.959269311958916 1.5131278918681617
P 2.438642392593543 8.479475085874542 5.639992792169272 1.3364496530443952 0.5853967381813725 0.21043476644892145
P 6.836768441940578 3.993461927822408 1.40591934760549 1.740228034787906 0.12809750170158585 0.22813963992785222
Ni 5.491486020425865 2.9309210483105885 0.24479644409271967 -1.0639934505873545 -0.8481408555569715 -0.8121333271141109
Ni 1.9457368154973338 1.3439740638538489 6.8470399581600665 -1.6372802928790708 -0.6443115102397097 0.0631923163877686
Ni 6.960853445929572 0.32286905317792347 9.123140717352312 -0.03398509869619309 0.5820424769971589 -0.20452868537713165
Ni 2.9858811558839524 1.6378820750595298 9.0595100145306 -1.0437151599542929 0.14914969438619474 -0.25894556956511533
Ni 6.413541996102448 1.89851782408408 2.519560679591126 0.45106893929935865 0.8455232154284664 0.050871332928570455
Ni 4.029768852911375 7.02959673802745 10.247594171674253 1.4714950468187238 -0.00971928417029294 1.0175618985976926
Ni 8.464183655713198 7.439948581049999 0.2617869220497687 -0.061180685274378505 -0.13542411726998613 0.9928001182719806
Ni 7.770844953626346 4.136136513576174 8.160045923046638 -0.28586116300903675 0.46531182237161794 -1.9114321378709789
Ni 3.17198594732472 8.65795687677736 12.129808405573236 -0.3522010238868515 -1.030364706789316 0.4110121804877889
Ni 0.33516034653637056 4.9701418358400495 10.07940116004339 -0.5660674417251413 -0.30337088975802595 0.9411003759048437
Ni 8.81403304273789 2.4898228002577447 5.514100619161209 0.2856199935325081 0.46544551973600484 1.5622143649821676
Ni 3.746981881823036 2.5327351143706553 11.251700527157748 0.4960038521388361 2.143627950146076 -2.0004064483188584
Ni 1.1393614630021138 3.609549812529814 12.586010007373675 -0.30756590167597997 -0.5079234863945575 -0.7815870788961379
Ni 3.352075927852351 8.354872190311456 7.755519905941771 -1.5549641111776575 0.37313237472287997 0.896956591508094
Ni 5.680361986078879 7.98782335153666 3.4367112226211782 0.49302497201617024 0.2628721583130311 0.16698132325097692
Ni 3.002217455010569 8.875480423713036 3.4249032947318843 0.9606068213688875 -1.8040415296994412 0.2672278641785656
Ni 3.4918157946862625 4.207678237337567 8.978086556102852 -0.0760660870266432 -0.7653263940629014 1.4453533554263496
Ni 7.563215861500953 6.364814759052366 11.69581435790254 -0.35944022194776803 -0.7047355198537217 -2.022238713702601
Ni 8.215105066026275 0.005465118979232627 2.322883631385212 -0.1738885918937715 0.011463263444593162 0.2167008019632913
Ni 4.717855952720594 0.43733126828760716 1.5292047996906233 -0.20168324550853656 -0.26055739413692547 -0.4917664170187208
Ni 6.113582830715273 6.024251077092971 0.32755642621430936 -0.17161008027223995 -2.0680927959222384 0.34565088147315953
Ni 8.293915443459134 8.744617400175402 11.420518643004355 -1.7036741469232721 0.7843319886311266 -0.3585876441394857
Ni 0.3930170125978128 5.146661090251573 5.63938131667916 -1.2521892031324178 -0.7335398456799237 1.0213403918035184
Ni 7.507438030389549 5.915984480656501 2.173573673411108 -0.11067364979818359 1.3146063319170587 1.6144537819028584
P 8.522723575219757 1.8679531353955705 3.3876950565876554 0.3245961176853894 -0.20904431385929803 0.3236404386403394
P 1.8868879782097363 3.282042449727787 1.4869303099373836 0.3930805357100327 -0.2819715981466434 -0.2594600473076886
P 4.873795831424783 1.0661933779817307 8.1045797354614 0.5396773817673867 0.30089620296528824 0.48143341052382893
P 8.655540049431599 1.6859006183766443 12.060804350524894 -1.1906763313296012 1.2791410491309132 1.189290763835984
P 6.551146695920366 7.9637731937012015 1.3540302462083205 0.18776714964807661 -0.13413368059333672 -0.045156284821664165
P 1.9213686540637476 3.429723320697774 5.7633318505752325 -0.19328833657662195 -0.31323569836724763 1.1715280405359243
P 6.732863037706988 4.109996617810168 5.75279957140528 1.8171567269251605 -0.39863334720746185 0.4140054587881579
P 2.5908661721081954 8.637441101789651 9.92499769300901 -1.2754659142721712 0.11041936769553241 0.1852335845929455
