# total energy = -381162.0830714947 ev
CRYSTAL
PRIMVEC
9.32388451076780 0.00000000000000 0.00000000000000

0.00000000000000 9.32388451076780 0.00000000000000

0.00000000000000 0.00000000000000 13.64644745420316

PRIMCOORD
 96 1
Ni 6.491847745506417 2.697446373500896 3.726271748766479 -0.2865293927206549 -5.235890122680196 2.7359334996321394
Ni 5.91609788441283 5.748827398453009 1.2704146789226471 -0.16723149158857006 1.0348407402827984 -1.516759060862846
Ni 2.1677285296416255 9.522016933470871 6.897556062199422 -0.3010610106779267 -0.5124866802852077 1.2124409767002025
Ni 6.947058429203764 5.901664511376833 12.0589973918399 -2.2811680853178 -1.0353025104105653 1.448403455106583
Ni 5.284609842434749 7.657342618163252 10.588646930384876 0.09439830967692775 0.12216313849502186 -0.22666176983074512
Ni 7.520188278783711 0.2521234282410893 4.834472284234099 -0.2971917575305075 -0.6710957203120894 -1.2176628872207738
Ni 2.7618744146370373 2.348574591273548 9.165690705673574 1.983201397294481 -0.6965208452534133 -1.998158789935262
Ni 7.224854240724774 4.024673344789785 6.4417645005045685 -1.705597332087914 -0.2546903938331872 1.5974600755583392
Ni 6.886303998517353 9.267997027144819 8.555134784151447 -0.1189312618212855 -0.05770789623442965 -0.24625460436100816
Ni 4.768178533831484 0.5702897943946984 9.840139477367847 1.3945941225956109 1.008720903267295 1.7280060388004177
Ni 0.5330930900085161 2.5872473838933643 1.3562634120567865 1.0613233599543592 -1.1810154112010691 -0.6909595491155519
Ni 6.816813088157346 8.101373964476773 1.455584225746296 -2.329010658722376 1.6702778308510136 0.8536304179166331
Ni 8.427411553832572 5.782710394326921 6.009226706478821 0.8330209691963977 1.1994993289378697 0.22870888216776095
Ni 3.0945226380254733 3.6858433860506605 13.359025659974195 -0.16077185200615537 -0.16964267213322398 -0.27833940071069485
Ni 1.5274200930304345 -0.38709038434269444 2.9022995726606533 -0.1866191520865625 0.10734638519716351 1.4030412249216997
Ni 3.5259667404122514 1.212776290399435 -0.07078133595960907 -1.4253931102543387 0.3528003480337472 0.6462033279457838
Ni 4.281266643207527 5.177842042282803 3.1166305003030277 -1.1416896170182531 1.7039906497224264 0.5807836648893933
Ni 5.091269775719986 4.198657027510536 5.6033813286852805 -1.7682106360437613 -0.8987851600764004 -0.326028993477174
Ni 2.5309684177142406 5.0699274043508655 11.571123276346876 1.043503558164119 0.24368427253067063 -1.4538945601281412
Ni 6.39384439668124 4.539808633462815 3.0463507893236104 -1.2413936551788103 3.7480891396125964 -1.4037842737353114
Ni 9.410316798476519 8.691799619600504 9.060995605021565 -0.7406378901772858 0.40727559626349213 -0.6525364692526633
Ni 2.309777908326011 6.890350564342691 4.407297588509584 1.903948170789108 2.264668287890564 0.12604524715824741
Ni 8.852795131365733 1.5663939297813851 10.92720183453449 0.4044684658320002 0.4746503261637244 -0.15209874971218967
Ni 5.065190871080653 0.8777915015828202 4.621819655781957 0.8061521698300117 -0.0621186237076156 0.7309265764267928
P 3.8845167146366064 8.816431982244033 5.851951424585273 0.8726797212386004 -0.9758917725524161 -0.5505850298188258
Ni 2.0849977034475624 4.279299303601199 2.307901010398268 -0.030999533705307898 0.217162057870426 -0.6675427128535083
P 1.0798083751110845 5.273430505050923 0.4958385775391147 -0.36612740415995654 -0.628542163220595 0.15469427835350777
Ni 0.945656326505181 5.304245942960467 4.649139569433622 -1.1742372119369713 -1.8676033136114865 -0.4513412191241389
P 9.48304309671992 8.608276263233275 4.597119753643932 -0.4723507314962703 -0.19997680434039108 -0.36769449153676026
P 0.8853895349723775 1.6719869205001685 12.87388064544218 -0.11292516483652167 -1.0420565413049472 0.22448353123250372
P 8.096628107322172 4.655424799901042 4.075907157125384 1.9651255136293766 0.4321829010281331 2.2597801065603274
Ni 1.1672011435002374 2.422121391343284 6.774888241996903 1.1604653549638597 0.9352781127961117 -0.25567229813048226
Ni 8.024256116685597 1.1387260005726292 0.25301199442347344 0.997463842296237 0.11032526531982935 -0.19594480036286255
Ni 7.599338733371945 3.9362735968864935 10.961071776970257 1.385686021472704 1.3987186862869458 -1.3525108202723157
Ni 9.476889333022402 8.739565879331394 13.22982086442572 0.3811321050989049 0.3201316541561325 -0.2599249027592491
Ni 8.942313745395849 0.5352562311870378 6.733170386069922 -0.4242757303659145 0.3465291703130548 0.3171044372940345
Ni 8.582113443634432 2.9392613151602034 8.097405719280312 -0.07325304305788029 -1.9457507086471908 0.048604391271264674
Ni 7.17011371547003 -0.11733082877758051 11.083221189200682 0.10969483082468204 1.0697347239465063 -0.905298535714886
Ni 1.5391495395932804 0.921454319793592 4.801120749770427 0.5443423913432238 -1.3963828390649176 1.0761293146189403
Ni 1.8818395864699398 6.999784995430229 13.126312694256582 -1.8677856048256218 -0.21381730976790916 -0.5690787177476392
Ni 8.971441560230769 8.912262866006298 1.796117658163507 -0.9732491927232464 -0.905308305906899 0.33372559079048325
Ni 8.666177585296289 1.5263291985567835 3.1804683395572706 -0.03968034930875747 -0.29900027149415603 -0.5385828631516273
Ni 5.4067620518304915 7.6078607637045685 4.0186193466552425 -1.0817260919804275 1.05246719511531 -1.4905289235217232
Ni 5.761880836599261 3.0726954246680624 8.31596782565895 0.30099724731952676 -0.5755378431094217 0.4175782637410808
Ni 8.549955366372702 2.8185822794981092 5.236906052729274 0.28042250849196865 -0.9405869266035349 -0.16086955392628421
Ni 2.4756031922053543 6.731928444669151 7.640536316549953 0.1965891188150808 0.6376076158569728 0.12901204309605524
Ni 0.893667279533979 6.612573400590462 2.413251580122907 0.0709652754649681 -0.1523823423908795 -0.7518116474059182
Ni 8.670019025665045 4.478923668394943 1.9817916271326645 2.0134769083495714 3.001403243469018 2.837538611470152
Ni 4.4798467329495715 0.7771951805087338 7.589581288357623 0.8674878926250156 -0.9039101400077918 0.08051203861313876
Ni 2.7460984022488533 8.955115438663563 11.841827341400716 2.506640719936451 -0.8593711770551522 1.7167317514381788
Ni 1.2322632087749106 2.891681533117117 4.112165878741913 0.31263765977193253 2.403081055475229 -0.7980118001110644
Ni 1.133784341845834 4.870032646909805 7.093000529621049 -0.3752622765816892 -0.11291590886514102 -0.074100221549524
Ni 6.315160136312515 8.064423410638492 6.348914462581844 -0.04834136741786513 1.6352830599433834 -0.5670730001715202
Ni 7.54609935350402 7.011113514964297 10.21574376853028 1.6964287782147687 0.8255292888050427 -1.4066698228132226
Ni 0.7667915903061715 8.263805354438091 11.11836104469039 -1.5053608463282333 -1.0864417522885417 1.0546287215430028
Ni 5.7049864940503845 1.2152844153003937 0.6938275330108215 -0.44501476268547874 -0.1449045459565956 -1.1327789447921846
P 2.708299374931065 4.228819793512767 5.425322176097582 0.30627880743344027 -0.12350576856584537 0.42736388237293493
Ni 7.782469146679462 6.723331823261406 2.994576191693382 0.43004168631541423 -0.3673826167232963 1.1846362957831083
P 2.4876682986062466 1.778204611473094 2.6428662190576633 -0.4815231420241578 -0.236034983515529 -1.0687178526462175
Ni 3.653825167054784 2.2049215044740516 6.089877374065436 -0.7536918951477665 0.7508194586959779 -0.01704281441489968
P 4.225314012982059 7.459620325785104 1.8875355474439006 1.1200049329559678 0.20851132417396348 0.9435524369897621
P 0.8045589164170328 1.292010659947181 8.631432130116286 0.12379013257548359 1.6274352817641908 -1.4427223455614056
P 3.5326519655200106 4.512387089471298 9.522831840966573 -0.43479745583284474 -0.4922477275305136 1.6318408670310542
Ni 8.446711994520244 4.150974682739157 13.51316252238201 -0.5989387385318653 0.10736181181613123 -2.62512075315293
Ni 5.132099065464582 3.40331104125944 10.964702497551794 0.23244032418573518 1.1048359385250135 -0.022388394997529183
Ni 9.176697551196181 6.242228712612531 11.986493002044984 0.9294707620857154 -0.6517165444545292 -0.011559936923457512
Ni 4.34428677780075 3.027782273560568 1.5399196924439091 0.5610800158128788 0.38787816557348687 0.19768697986494985
Ni 6.346395149019616 5.958782627151072 5.089647419836095 1.4894840271969767 -0.41437184098864116 -0.2254006437301344
Ni 1.9256152236818327 6.734063614194502 9.98054785239956 -0.0022679700985702876 -0.7943132682135546 -0.5977884269775059
Ni 6.5536557751289175 1.5969389750436134 6.455124694447256 -0.01611875993873353 0.40038452557061366 0.6190370519436372
Ni 1.629171643380464 0.9013082027917311 10.528424893497146 -0.7811533337928289 1.181964662488216 -0.708666993697644
Ni 2.489505103831112 8.609618902585462 0.9787505217596844 0.8868439285541243 -0.18350374638603234 -1.3239386650615779
Ni 8.003128194657451 4.919551796906049 8.834832668088053 2.057183862319218 -0.07012349628996309 0.5726540938037233
Ni 6.83422078031381 6.352837953133231 7.746105997557762 -0.7498447534875344 0.8921704829733603 -1.0455977216889865
Ni 3.386089826790778 2.0300613766206244 11.381519290107258 0.04314413948764182 0.19616231569030732 1.0856771062083754
Ni 3.392896262395609 5.874009870275559 0.8737980818985063 0.25827528297096813 -1.0372166967141427 -0.29364569205046204
Ni 4.521449905098552 5.054160715847072 7.804607777775504 -0.15298449475125267 0.039937202514569926 -0.17610025483310962
Ni 7.023486309550066 2.2435503575025657 12.065370266820587 -2.3754530093453154 -1.712470919279296 1.7409289175096727
Ni 2.964435803013688 8.78980296842568 9.177918047662855 -1.0446361291066655 -0.4991076878751404 -0.3775420737548014
Ni 6.435438244945831 8.095630451692424 12.842139345812688 -0.6114075604228373 -0.028627176818389406 0.3357559909569508
Ni 3.842428700499336 6.818528682885138 12.112654481728503 1.847675207228992 -0.26737955926508145 0.21581865646865414
Ni 3.7896275431977493 2.9960530949807866 3.8234620548728326 0.23805612771061585 -0.3272150433654752 0.7659588854405777
Ni 4.807916929102429 7.551413967606422 8.229244512169013 0.029287693220523756 0.6270843477281458 0.9339354827252883
Ni 1.3752636236670943 4.068113322163632 9.49141780967918 -1.2336474355744884 1.1557988027261257 0.2981368950525963
Ni 3.8231002881584937 -0.04860634171444504 2.9897594730174157 0.21006941268970272 0.24648394676299487 -0.6825494706749858
Ni 0.45456826806286293 7.638368513429237 6.493443994514016 0.8586607812516889 -0.4814390669507837 0.22840112111935504
Ni 4.448061611063449 6.599174978721774 6.1819498000300195 -1.483454018952813 0.8615733269127935 -1.7537448383274186
Ni 5.917524438724527 5.381708774474079 9.6826730558443 -1.4961097600436104 -0.031031415384507845 0.9602576655595849
P 6.606279778627091 0.7792343140248662 2.4735416813666853 1.1036164642956154 0.003349376088207135 1.9452310886982949
Ni 0.8895983363861045 3.6875030374721125 12.06067569103013 -0.7305936185674062 -0.9271930217951323 -0.09807935807294076
P 5.226400832186858 4.677830094090644 13.104560071974294 -0.9613272444746799 -0.10512932294118667 -0.34419332309102657
Ni 7.2085281191575685 3.0195399597596495 1.4973020816732765 -1.795712441008456 -2.3294755141739367 -0.9370868838700764
P -0.06291477469961458 6.709774895358084 8.503756451607801 0.18031994934141204 -1.8765463817373875 -0.28734906040847286
P 5.145180475264004 0.5982717038380663 12.231188091592418 0.19214908076585616 -0.2733100658169035 -0.7779764787267439
P 7.159503135034004 1.888804528109404 9.569639605382154 -0.7726422109980242 0.16016969964578223 0.22919173534145043
Ni 8.20811379297555 6.5727790620131765 0.6072235652410778 1.3336108980440193 -0.42038333729004373 -0.7818012517894729
