# total energy = -381173.23577989533 ev
CRYSTAL
PRIMVEC
9.20151593443351 0.00000000000000 0.00000000000000
0.00000000000000 9.20151593443351 0.00000000000000
0.00000000000000 0.00000000000000 13.46734867352833
PRIMCOORD
 96 1
Ni 5.266956882635145 8.08060560534712 3.868442410256828 0.5361855665640443 1.4836805331413223 0.7867519109265289
Ni 6.630400697445645 0.5425158544901888 5.143463338211138 0.08144277795752425 0.4151310877521689 -0.7937170293904524
Ni 3.931872139720538 0.3302433245460151 12.957851606704002 -0.17437375906030617 0.8113439984435963 1.2777824782204896
Ni 3.034521909535153 0.6049932270618725 1.9113535979007452 0.9045356894069324 0.027079372715295296 -0.8231399626372599
Ni 8.91810917634662 6.524362428617521 1.323414460343042 0.11351574723266902 0.34232284554119113 -1.5152593363888678
Ni 6.063044430726334 0.8218793970607513 2.0485859256627665 -0.024655336654834957 0.436319548904326 3.84975390104395
Ni 7.554720570631311 2.373935884071781 0.9771190913705547 1.500345909612145 -0.8981071601727694 0.5980252255786603
Ni 0.9343219209309079 8.166446546851596 2.836493326149981 -1.1640479301087951 -0.0252456619406662 0.11776166699321655
Ni 0.6703019060652133 6.766555527699876 4.941924376523473 0.9329949731888899 1.2423393069215314 2.761541172897915
Ni 0.46626289251703107 7.829652663161295 12.141582373866134 1.7100180868634292 -3.262114132464672 -1.1918389841791344
Ni 7.619066771075173 7.770808969204695 6.469646534677954 -0.29973946365302573 0.950466390500776 -0.3402829322930269
Ni 1.7731137041515077 8.128379875718139 0.6860861863800141 0.3486536728552253 0.504963118214653 -1.2809094538852457
Ni 5.102102524398015 0.5635505197575519 10.843168432128266 -0.5261744621849455 -0.21872117482742975 -0.7898007250551817
Ni 7.328022824265595 9.010133536512368 11.272332652980838 -2.36509300626723 -1.2553912550094832 -0.6317056485502411
Ni 5.7885264064102735 2.7630863930338645 11.576681071579602 0.5643018651842863 -1.3467070691063452 -1.0837222964748499
Ni 3.5743288377546896 6.4702483138155245 10.158595895108043 -0.5594141980746817 0.8358090734644962 0.5288113855871602
Ni 5.181106739614804 3.551177823838379 4.575087543533986 2.0231378284781028 2.3892927434418856 1.5798698732804017
Ni 2.7697942980994408 8.078544465793362 11.700472745117636 -0.9378294184630559 0.11797121190086134 -0.8252307837280174
Ni 4.859854216220469 5.981693828963973 3.262249305526161 -0.746275033858405 -1.3705553364788525 0.330737711806753
Ni 0.692725080076603 2.5181788467713373 6.425016422278002 -1.1451240966210987 -2.912041724885049 -2.6032450361257617
Ni 2.2329134519249707 0.9865313219488513 10.089804442349804 1.799142292625611 0.10240035404579784 -1.2759248561864607
Ni 1.3334744776382335 7.925964929720127 9.51623071136052 -0.7501247466217984 -1.1434716486193404 1.476869680867076
Ni 2.7098188176914473 1.413187209576627 6.779948334041367 -1.7871177573609092 -0.7139508678044028 0.9508469137686462
Ni 4.739802038729967 1.8384444667929243 6.463788849678303 3.1579777695643743 1.8693393224659869 -0.38063073998245417
P 2.6535147421135843 6.837379595312691 2.226421782482222 1.0727313446809847 0.39472758439515243 0.6252066710894587
Ni 4.505319809942471 2.6304925494193836 2.7050653145955943 -0.9529806722821976 -0.7524775631246912 -1.2196534352882415
P 5.4822907569076 5.86625161092183 13.375811141687779 1.3440434062312527 -0.7533167711965348 0.35883909802865943
Ni 7.6336787782687745 8.353909029569001 8.755931539074616 0.7906820992188706 0.6819473183146126 1.130520487775311
P 0.840662451395952 4.365944449135494 4.93047677063584 0.3584562607679439 -0.7224941293887235 -1.024736561969261
P 2.336642140270983 2.887380469338126 1.9407800456369777 -1.2753126765237586 0.8375687364680802 1.896809502861798
P 6.810262728058571 2.530545684093881 3.674875641914589 0.7292131932801118 -0.48830494083268167 -0.7363449192288867
Ni 5.458247195952386 2.6006796380168216 0.3863872937478275 -1.992357866982769 -0.4809158474574621 -0.09000146616081274
Ni 3.4749064588334915 6.50466198315058 13.325469648390428 -0.7217227984403376 0.5357801035955095 -0.1596840182586153
Ni 0.3779163782425193 3.544690755153562 0.4956884201016771 0.2175621215223221 -0.8318459750516899 0.22573257314825643
Ni 1.484342531760581 1.0207701624824725 12.290934938325519 1.8749499837845451 0.3828030650434246 0.24786540049155376
Ni 4.461833445964537 8.820674324852261 6.2442572438682395 -0.4569295118451937 -1.1506280571584635 -1.2883857076576326
Ni 3.76997146807607 4.421622821634538 0.7672647197957 2.1126780387317807 -0.9699833774877812 0.3114955757476893
Ni 5.581786747955718 0.3345717176089056 8.33980402589956 -0.25926310080553416 -0.3491210994099471 -1.1696845595692822
Ni 8.351010552071529 3.5085103947724283 8.194397071443083 -0.7573814281842117 -0.6319923265527244 -1.4223568945311764
Ni 1.760958501693858 5.353948013622744 0.9822286931303827 -1.5798436480281568 -0.004893580646875444 -0.20443509722206082
Ni 8.613621814858295 0.8528351367337448 3.2943423525600672 -1.7409944806402857 -1.1779989929722487 0.9008181313460292
Ni 6.0092799735272076 4.949053711015665 6.634689523990317 -1.0848078162295445 -0.4971667620986857 -0.08091878713325419
Ni 2.545258907961997 6.055802837740588 7.985692889351352 0.013119568101093533 0.45743884738144447 -0.34399637658887205
Ni 8.843346859943592 3.055593380865976 2.9358549750664706 0.33615168373347265 1.6071402789605804 0.3373763001691931
Ni 0.8120981856962688 0.3885754142205217 7.9011456809774945 0.15961871223831864 0.1474396536736235 1.11868518570328
Ni 6.184292805279284 4.522351815808564 1.729153462106526 0.010512726605865766 0.006411045732666379 -0.345511784792134
Ni 3.071456794217216 8.642054498881109 8.28598804021159 0.7834855814704313 0.4460151789255351 -0.35088384773732473
Ni 6.256322271470413 0.27476738539600093 0.04916737987297826 0.8853719719942881 -0.9606045073760423 -2.791190106112599
Ni 0.5155167666391403 4.934064441671599 9.377839912751096 0.2283640972338325 1.875412011022628 0.45970578903875026
Ni 2.9127766531254933 5.480524065861522 5.368812142351045 -0.03488755590580443 0.5577293541730911 0.9171603201494785
Ni 5.086818806546269 7.747639552256654 12.16991752182078 1.1793809609214398 -0.47773513573663534 -1.0187960281151098
Ni 7.989759039212091 0.8980173400855966 7.0147783801285595 -0.8727324288534065 0.4501397426168699 0.7248058082410356
Ni 2.815516630432567 4.766495636254298 3.168705775091104 -0.48065899425164954 -1.1387120224471678 -0.4744068426943508
Ni 7.679805977299961 4.06367465297063 10.319570894256493 -0.3493337296413855 0.06519160620598449 1.1686743731372131
Ni 7.077465547261965 6.092351258756321 8.494422617888477 0.37330643840689903 -0.3978692153479277 0.6799068908458161
Ni 3.8111482515718924 4.071707576320764 7.226511701243044 -0.6807203878860469 -0.7546825411958099 -0.5381018097501507
P 1.4930655688005898 6.14425700975072 11.186922342418843 0.7117178647088259 -0.296192883952348 -0.9377366016389335
Ni 2.1894822970422263 4.167909424689217 12.12853278406641 -0.2508165127000777 0.26012467747488105 -0.1732671562596887
P 6.20328473402462 2.818783168564638 7.866264574636497 0.7057192239232297 0.41849460490776313 -0.6878721684394798
Ni 8.183773001225369 5.543121978291038 6.31875915737229 -0.20463590037895726 -1.3986610935761332 -1.112996619958935
P 5.559795125038397 7.85307052103769 9.650109086589753 0.5830449501197443 -0.9739485327831163 1.1364923890880299
P 6.040445507761922 6.76370305778173 5.375101378444765 0.24830223091865625 -0.6421044752860618 -0.043908271347175995
P 1.325413949740504 2.6131476920138805 8.426533833836594 0.5930272581434368 -0.10010821557751147 0.29143814287618197
Ni 0.6797306993720666 1.2994840780329668 1.3533203070558404 0.7758648317003799 -0.22101999816393547 -0.12540221425760983
Ni 2.9264317026691358 2.319104051032316 0.08642983851983473 0.06302570890291725 0.18442291576619207 -0.5886905784412958
Ni 4.430649508698092 4.539383821674658 11.37002422676783 -0.7544025480615459 0.1627109780103972 0.7870357607155348
Ni 0.7027869376749677 2.766095288721716 10.4769775455525 -0.7319794431713393 1.1966274067067133 1.0137396966381251
Ni 4.694070504880975 7.027814167654488 7.824866034608327 1.369414280895874 -0.2561505233184814 -0.6175380988006075
Ni 7.223512007071059 4.0367418160338095 12.900386299823978 -0.149912026473516 0.9287853059829166 0.21913229422291938
Ni 7.9197723095429895 7.730175075144907 3.9821869486218806 -0.35991793291513496 0.07674562959217104 0.5686575710498206
Ni 7.459291649595517 2.8595182792989413 5.774718611703273 -0.37532218328534717 0.6113299131073665 0.025192182994911452
Ni 0.6343000550918602 -0.019722529105015835 5.5814214477758775 -0.38439946299626704 -0.2589190872025541 -0.6546776839653822
Ni 0.2906823272360846 6.830745302374034 7.5952210427110565 0.6696774998083241 1.0491450727206124 0.7518977793618212
Ni 0.34283099824931906 5.532365406244867 3.263165776506314 -0.3094615760367961 -1.319421751027831 -2.038674747771437
Ni 3.1533778899632066 2.9635690207002288 5.004049331037527 -2.1506974553983476 -0.2831455638500866 0.08832690667186724
Ni 9.19710833888893 0.6032053725293054 10.45617107787859 -0.1491944315812011 -0.8851541995565272 -1.05915360599655
Ni 9.152563800586522 5.223691355037969 12.452045199757185 0.12410303583021205 1.3217596551323882 -0.5312788732910464
Ni 8.43307887207136 6.778167840721491 10.519076320937996 -0.10917675353768293 -0.34260361000640355 -0.6717912037172172
Ni 8.799860495965657 0.23658569531423215 12.892387422082544 -4.0503295153106045 3.548892665081656 4.166111175759315
Ni 1.7816711139059467 1.2698367939159747 3.7101735769242703 -0.4741348199798867 1.0584185276027385 0.6531800163739331
Ni 6.374368518502347 5.813444111372663 11.251821553966192 -0.4135046078923395 0.1244269948285341 -0.7505266100459074
Ni 2.645785468786994 8.289406403355432 4.28656297176824 1.0046246217107344 -1.3405446490493753 0.7896922245017755
Ni 7.391421268575364 7.145004673710979 12.913193889756455 0.10890807325732857 0.22677824080395137 0.8557662333127133
Ni 2.683668109603151 4.050672911053401 9.616912777803636 0.4629721184948478 -0.7390736310139594 -0.4495193354240516
Ni 4.5450703584792205 2.270271606336823 9.060212786607567 -0.9928492263423612 0.9070134615234637 0.7252518946395188
Ni 4.85531786889903 5.0590486316657355 9.034341804601565 1.641463734832799 -1.6133659481553182 -0.07039886143853682
Ni 7.115964689641076 1.6938610480063636 9.57929790109915 0.4036721951829499 0.2638165245041715 0.2132681221326585
Ni 6.724292965331985 6.887030974920167 2.140338841110497 -0.6594900177523609 -0.9215057416023678 -0.7262129730012074
P 4.022626690696917 0.6735785658647356 3.921260951625034 0.6464439832016802 1.3552469882565563 0.4697354053606103
Ni 7.255901342915817 5.076927176991408 4.004368122766021 -0.6080034198372949 -0.08704803995944363 0.054531555388977054
P 8.135722685378399 2.2842763134833355 11.900032460742743 -0.18007569454108988 -0.2859161846166882 -0.41352980470332007
Ni 1.0326493194641724 4.523179952236413 6.9499196552510165 1.240373441444412 2.8677364752097705 2.2694317707174787
P 8.032509281920825 8.481046374275543 1.7654884079541917 0.4691921312626307 1.4229829581509492 -0.5312292510000335
P 3.5531745527810816 2.142720193416356 11.445818953250914 0.408740867955109 0.5250128377766764 -0.5324410119199475
P 2.243292761820678 7.769391935761487 6.42581051309715 -0.16236619307646877 -0.30018246472771526 0.4861295304479176
Ni 4.69070275007439 8.023132937254402 1.6415890766805386 -1.1816036796043716 -0.5325595397756827 -1.416022467672716
