# total energy = -340857.4914296567 ev
CRYSTAL
PRIMVEC
9.40718729238461 0.00000000000000 0.00000000000000

0.00000000000000 9.40718729238461 0.00000000000000

0.00000000000000 0.00000000000000 13.76836949546663

PRIMCOORD
 96 1
Ni 2.1536250554141754 1.4357625798594056 11.158630798860214 -0.4794806576728323 -0.8421129041953368 0.024639138704918857
Ni 3.0245142494835497 3.8108704569805854 9.764459276226896 0.005634572577958038 -0.8155629216209502 -1.3946470873207337
Ni 9.117841194229543 0.3728877411024153 4.439955422978214 -0.27991754383109213 3.215076314349579 -1.8627418717541275
Ni 1.8807225470162736 3.491806879685458 3.9302363773032085 -0.26751171396757156 -1.1774973707454817 0.7181739047468148
Ni 3.9877067669724418 4.143019432041362 6.0968405292646635 -0.2315772048544915 0.3942601578404307 -0.22747038177496953
Ni 2.4334700681622206 7.254192692464637 11.742560324300767 -1.2573805175253698 -1.7122683163501866 0.4594543351495764
Ni 4.4880750683059265 6.273145333164673 10.801079595484138 1.227979952876066 0.14084863071966713 -0.8022561772097151
Ni 2.701386767202973 5.864751103689385 0.04223168669254396 0.3496471471167462 0.3822212243980256 -0.436581544316461
Ni 0.8203678937815104 3.741247862542362 11.456935535573416 0.9557471792837411 1.0589417470960603 0.6251146255962846
Ni 5.20557066354951 1.3317661224192536 11.721604873500794 -0.8986563478080201 0.546606247676736 0.6964054027214716
Ni 4.1893027943756485 1.2939116000547877 0.45824667873429675 -1.2079667429789325 0.5703334160903468 -0.9877550996489054
Ni 9.120644536094506 7.007188171161511 10.496454169512315 0.47862216632727894 -0.8215813599008882 -0.4961331786278487
Ni 9.035368381712328 5.282540271398929 3.124951967905193 -0.07463603944833598 0.464318090999781 -0.2951958101464013
Ni 0.8786021470730089 8.114517615009337 4.126228543132729 2.24562078434081 -2.512023324404603 -0.6166163583172865
Ni 0.9029780512357336 0.291018870020538 6.46707168062659 0.4127787854699085 0.4438328265622356 0.07567759333897289
Ni 3.2214066831535972 0.851584704669742 4.064340538229312 -1.0328643332827179 -0.11133416620031794 -0.13109746487017424
Ni 5.785316812723791 0.4765493026687661 9.57121965345002 1.6940512791215276 -0.7047167508006443 0.9759686485369385
Ni 9.108763258324547 2.5274854997006084 9.917453069585369 -1.5438569455209024 -0.049024766638134924 -0.04811228212619456
Ni 2.544230293390655 4.515845085706499 2.0113385228298672 -0.11309331498326973 0.8147985326511 -0.7256175055090535
Ni 5.0078127686325615 8.606965064496181 13.179827113436037 -0.1478991098085453 1.2478856906610571 0.1648570778191225
Ni 4.677328865753323 9.35799728305719 2.306119327118186 1.7410798412652402 1.1647249015711618 -1.1033015041583578
Ni 5.1128628310689415 4.8369312083068845 0.7749499926941242 -1.4071611606273444 2.3958272021262927 0.6133687979142662
Ni 6.954300963225868 0.25621415783265256 4.325167980795448 -1.7050738554842764 -0.611946720755759 0.06228934495752498
Ni 5.423760969643303 7.683884794363672 8.709031167068243 -2.6538726284746423 -0.8315896360665098 -0.5524688771051002
P 1.8220687331637775 8.3767335584455 9.946751754949219 0.5832154142593375 0.500792531776731 0.09781324889574768
P 0.6717766641572754 2.1142371614927 5.001291706280909 0.3220746368151163 0.14581754468916822 1.427761096265883
P 6.10182163502808 7.588627614079729 11.677257510347076 0.20173132513765257 -0.7470589632122812 -0.7828654313879292
P 6.904329983404784 2.2670851434454438 10.749255399732188 0.12904649587841646 0.45098897799104265 0.02743675605471404
P 3.0689820246368376 4.905942335559797 11.520325868315204 -0.6148209569797606 1.0521049266798848 1.0347787766966114
P 6.375034580612369 2.0272112702417866 3.32835229386444 -0.8316770535739936 -0.3003205329674763 0.07763008907965341
P 1.3042783206426707 6.527280502567269 2.2271027152760965 -0.012379347500959327 0.04819815697178151 -0.7990453835819012
P 3.8573137415018 6.012255803161261 7.81633140885821 -0.040795693860123286 0.0464534063665329 -0.12465582300988852
Ni 4.755878881097083 6.464205310605603 3.112684054730367 0.09116643300319137 -0.48808048352670136 -1.319346160594889
Ni 3.9790897832532943 8.644292784362532 11.233365258967634 0.7466110770415851 1.7871162146990127 -2.4707959423236994
Ni 1.1372725215531172 0.9270717397744687 9.054134779988887 1.9901132939229658 0.40474254542899324 -0.6825571839844697
Ni -0.06225582593334967 4.592466627619664 5.618087122572539 -0.9088260892521702 -2.282040717730741 -1.1278802219389865
Ni 6.881583404111225 6.153899824841619 7.524579718934046 0.45272781505902027 1.146568285266793 -0.784502709881036
Ni 4.955132518821177 8.33188949579356 4.347459252215637 1.0014850476404882 1.7143473103664022 1.4689774226031926
Ni 2.7632202104190853 1.8447776837074705 6.558659117079922 -0.24079383835675303 0.6072917384822509 0.31240240383267487
Ni 3.0085596595406736 3.0092181626633154 12.474019007900607 -1.0329463514735628 0.19167162690880538 0.7293998553696212
Ni 5.592300140289867 4.774777920716917 8.918007133038778 -0.7819503757728276 0.2757361587598929 -0.8599620165616157
Ni 6.444280887551941 1.0671419389917123 0.030002342986329814 0.5647492371343499 0.04209281540499202 0.5784609302934876
Ni 7.480162742593077 8.318907577090041 9.069624654870928 0.859496903999739 -1.0694354475385324 -4.660854416018173
Ni 8.293978530304296 1.5155731583236522 12.361779032083719 0.2983379553198087 -2.0181920544370535 -3.142178340638272
Ni 1.7740732627106202 4.996082005862062 7.156357942814925 1.6993310394632284 -0.12004737770359969 0.4298141436856404
Ni 4.8849360859475075 1.7387586809620603 5.383625204318255 -0.7413814532115297 0.14771064794682304 -4.510832860549987
Ni 5.83218342068099 4.051374611744486 4.174294567491884 -0.0021710395093898095 0.15767521535870266 -0.4563556416195947
Ni 8.330045687050161 0.8468989845927687 1.7587301399530546 -0.3131109998639253 -0.45987136808233703 1.5211849578446832
Ni 0.5511031447768341 4.34979881973851 13.796595248884014 1.266318186334632 0.5638005000678354 0.6023508495372077
Ni 3.0543256265643137 8.96706279351939 7.563502897794685 -0.06687979254168482 -0.27740197649809 -0.08446022462760938
Ni 6.396868662721695 3.1015026717079013 1.5172325861927107 -0.2079045438279 -0.5378207881746221 -0.6823296413546959
Ni 6.660881378963926 2.4137902319826816 8.47162291769951 2.17076054469681 -0.6449933667980828 4.810140893092548
Ni 2.9623985906434482 7.998583436674426 2.4903402792711025 -1.2092808338046657 -0.754232855252901 0.34097738725689014
Ni 8.516646657632055 8.12945622870585 5.87164563138345 -0.4646011694578386 -1.140423862931952 1.927086299468468
Ni 0.8427701700138014 9.021577444886706 12.074556902924588 -1.0921215762821384 -0.2221055179186304 -1.2599850450277525
Ni 6.670147458618249 7.977088013313889 0.91676522518637 1.2935801073743785 1.7769888964570233 0.39089124136819775
P 3.036245012254049 8.483025369627434 5.220814070119933 -1.6252840397491428 0.010388542323175657 1.151930835130287
P 3.8378690850089194 4.742925183955963 3.8618075549544604 -1.135015033211555 -1.361100618823856 0.37933953197485637
P 7.962647980553089 5.117989748238084 0.861120770604349 1.831029371142195 -2.2843081736086788 -2.6301498309364058
P 1.4083782571449521 2.579488432014417 1.6407075660006218 0.538604460418182 2.648444515480536 -0.39399841953861175
P 8.095402210077777 7.920757774765573 3.044393518037374 1.7519170410900602 2.286160139215753 -2.381204567117112
P 1.305030895639976 3.2486969339933873 8.529656797897974 -0.6045861666256297 -0.28112004877962554 -0.14190689678085242
P 4.550040212146567 7.25260287778283 0.8853649741425452 -1.071028245946949 -1.3909446987684817 1.715957849386632
P 8.478651027455594 9.352541114326726 13.671963185017747 0.3287710749986854 -2.231279170907157 -0.3612983582024294
Ni 1.8843443141908063 6.130918065861402 9.459682394536868 0.9293555766640897 0.1734355635167529 -0.18225007648458935
Ni 1.8932058847840787 5.882681203000188 4.2514382083094295 0.13400358277337568 0.055483634889601216 -0.02380867238382351
Ni 8.107894955033048 3.4828700515924558 12.81586020820793 -0.7765893685712302 2.891780917753484 1.0188291953458903
Ni 8.680312905171066 3.204539596026488 1.7470962712134583 0.9850754959342133 0.16668358950490003 0.5173656056440638
Ni 2.25646442879597 8.827968119642403 0.18561133446043843 4.0412689477702335 1.8150581925249194 0.1899497591216922
Ni 4.020857695603748 6.4981934789214115 5.37646539393764 -0.338805576416552 -0.662505407539917 1.4401741252182552
Ni 6.848338403605256 5.1903874629788715 11.893227720198817 -0.4156345097511487 0.6843728970369697 -1.0277432100060686
Ni 8.618065545706436 3.49366950280379 7.5323858030935975 0.19376424777177598 0.6074323778251732 0.7974641551377104
Ni 8.06649392299378 7.0799339518385525 12.699200735719367 -0.15718979108185185 0.49694333323397 0.893085538588462
Ni 0.9193239801772086 1.4338717351786754 13.568150167733188 0.512767187640104 1.1284882878366307 0.6896007210948123
Ni 4.010001801267617 2.6020844963085143 2.4100565192773002 0.2649547518736727 0.21525609909696478 0.9045032935071003
Ni 5.193284876718498 3.782310235832842 10.903832422741242 -0.22623753780913294 -1.0504509360162297 1.6398596235704728
Ni 5.401832815659314 0.9635593978000785 7.230556193236765 -0.28820626620244555 -4.175030332625816 1.773571643245358
Ni 6.699460254763299 6.043835731485691 1.9663439451784657 -0.4572295595841158 0.5487232940197388 2.84274946624713
Ni 7.9900511176424756 1.481077001884662 6.409574950832452 0.3609592296954558 -0.9489476398634044 0.0028518676264983143
Ni 8.119936154989936 3.0440435706636273 4.306002717770317 -0.007743905611476986 -0.73444795931649 -0.24164050262776451
Ni 9.22936340164275 5.843387380953375 8.11583462125462 -0.004526170005127689 0.5120812173166729 -0.17052995983418373
Ni 7.75732670691322 8.877054823841654 10.95604231317931 -0.21045482105357952 1.8259938656008166 4.459331350236584
Ni 0.3290239073844651 8.30457102339137 8.384799280979122 0.17751179046865556 -1.2804821365398398 -0.8800878407772134
Ni 3.7540886734338863 1.1222022072320748 9.444220741217226 -1.656184071762109 1.2557758920424114 -0.821068681930528
Ni 6.158594011387311 3.0246647644830107 6.584020894489116 2.208379126380532 3.988082336444925 -4.016450346064657
Ni 0.7039238458859258 7.508421933741897 0.19726119541872736 -2.2027936618729544 -2.104008278871925 0.8454864486532601
Ni 1.5705769834392167 0.6826607800558059 2.18376003974378 -0.09874630223297831 -1.7672791253684275 0.7695154924435844
Ni 7.0399251835443 7.0267457139039875 4.371608443160423 -2.6114782226688313 -2.7259956716931377 2.7228779519997626
P 6.33016229639803 8.279444425668833 6.590560771215701 -0.0037687230138128643 -0.03260415918826643 -0.468920879879115
P 0.6700579710071789 6.097230927544516 12.273634626243062 -0.6921283726126726 -1.2021509076281038 0.32204506912876146
P 7.708635104587555 5.384034416973039 9.541493881775201 -0.6387574131906999 -0.10821747494820719 0.6056518888859828
P 4.834560597065372 3.2544259111603755 13.35339066290836 1.572948206459904 -2.0297105965996143 -0.35439031822868644
P 7.039624153545377 4.908811527737025 5.792422061417102 1.1473678983499531 -0.37993371391542957 -0.5796392668723049
P 8.485292501806818 0.9054436750706556 8.468772539897214 -0.6373841869922571 -0.5694996073351417 -0.6148484677835863
P 0.6184087489421035 6.397113249595819 5.939000152923545 0.16100196573909045 3.4398413813782436 0.7537160635174825
P 4.512195096969568 2.8442819448163523 7.801502859255052 -2.199227284677935 -0.07849860772753578 2.0896252706773755
