# total energy = -340893.2401033002 ev
CRYSTAL
PRIMVEC
9.06188402466200 0.00000000000000 0.00000000000000
0.00000000000000 9.06188402466200 0.00000000000000
0.00000000000000 0.00000000000000 13.26298325937090
PRIMCOORD
 96 1
Ni 6.5312350825466705 1.9712588103727504 11.43438943242936 -0.25057045812754264 -0.3887693099291885 0.8488360818517832
Ni 4.805199914874095 0.18814646018987094 5.952651913442767 -0.09979762631562812 -0.058893174791782445 0.1590438135714551
Ni 2.7683783738211867 1.5878958081026617 4.92393596844092 0.07601260808088843 -0.03729179447192287 -0.2982911612422734
Ni 3.3626748497667474 4.299447107411717 4.914306810511309 -0.4254980328087898 0.024354774695280634 -0.039964713318395684
Ni 4.948069577887693 4.658451765512037 2.4335716645439787 0.25223987541016557 -0.3989326236154356 0.6281806661161181
Ni 7.226798112099802 6.028010540717985 2.339377911391953 0.09855012706177221 -0.347577151961595 0.13955022362321773
Ni 5.081759552417667 4.679964678108402 11.454283892544801 -0.03653743280440159 -0.43192630493263673 -0.02845722689942841
Ni 5.5454924038104 8.243034030468241 12.551039181121746 0.5592432197144562 -1.0452624498367546 -0.24982406687982137
Ni 2.0106961295047543 6.649220812118981 0.4869956137878989 0.3123612661820943 -0.7186454450665947 -0.8735621238435536
Ni 2.7234223673382196 1.4198703551280254 0.4678541962321701 -0.3226521065851411 0.950454306315918 0.17070119530472538
Ni 0.4538961763197102 9.078557858273625 4.850750380946919 1.0296458263454205 -0.613266468008447 -0.020696866227719192
Ni 8.512063242414687 2.545220418640872 1.5277366788467714 0.602465263627885 -0.12038033556298623 0.1260655588732216
Ni 6.9942882926400225 0.6425899743026815 4.814396820937301 -0.9745185463539733 -0.4655072262118757 -0.3069046139428972
Ni 0.627569901586391 7.164959815740244 2.3265662198044468 0.273269185276639 0.2576705595074336 0.5320214078840257
Ni 7.598099746776899 3.647942957826371 3.7431987637822273 -0.19823565327956827 1.1783229519705705 0.14440112395761584
Ni 7.8939249496868875 3.8723786386495194 12.809230379814084 -0.9749474063612759 -0.1401433771225264 -1.140499967585526
Ni 8.06553890872225 8.668552917067853 7.212131452859189 -0.46998917324262934 0.32073252096492505 -1.3130006779928354
Ni 7.0288231325325015 0.949975422620918 0.45062302382189773 -0.5820537898510686 -0.178034495741345 -0.8024556948150309
Ni 1.8201972042306307 6.429986652707084 9.086641964982645 0.19377684617726626 0.2908313625301185 0.4788597362593817
Ni 0.33296805301528626 4.862471021701821 1.4012472773366234 -1.0410885209647232 0.06337383627095537 0.2489630044311067
Ni 6.51623766454036 1.9639730556434005 6.796364059623077 -0.16433103011232345 -0.3490179981731796 0.9594860775008831
Ni 3.4282466423308975 4.308599610243363 0.09482899121984564 0.009071109063332765 -0.18172145767462897 1.5485075569190365
Ni 6.165660558552346 5.766729239584468 4.72710006769138 -0.6165947610507317 -0.7616173206424303 -0.355249323794872
Ni 5.31748634069451 2.946879364690261 9.471096018085337 0.2008977734927637 -1.040802614293188 -0.5866192977345639
P 0.20131065906465542 5.729358030002578 12.635869289545118 1.1145251407883192 -0.9662128547017554 -0.5816647819427659
P 4.03518444644492 6.20451791710888 12.598972016495996 -0.28888555165765734 1.2151028398030814 1.2128153293204855
P 2.4928427291686788 8.421235979165589 1.689784006952064 -0.4300493996248981 0.815056671408493 -1.0178048678464342
P 6.521430124067621 7.768499413357369 5.873273434428819 0.06336920828526506 -0.5319311621630645 -0.3933523013141806
P 4.631746393388413 1.185548158869901 12.452004569541339 0.0174755310769441 0.1395417389827855 1.328289742941422
P 4.01180478574626 6.080351982654212 8.22822238108376 0.04655727893424885 1.0551853653774215 0.7401398674949448
P 4.676149624947885 0.8510305236920291 3.8028159923754123 -0.24326955359075525 0.6990508107641187 0.0926846694199307
P -0.056299672863812954 5.632667727810831 3.748689359292816 -0.10856894475035495 -0.7420046886178253 -0.3654882279140609
Ni 1.4116240406955523 1.0962795396673803 2.695131165516042 1.0158377168177344 0.5406513156448818 -0.1479315057083775
Ni 1.7026011356699653 6.376059381072307 4.751370511586428 0.2968929953431661 0.3932198895013744 0.3063055469063176
Ni 6.021449736707973 5.579184488491647 9.373361786857744 -0.5971315101197975 0.4620642619685978 -0.22417294197062038
Ni 8.639373650614486 2.4885202105046247 10.27252541356024 0.4580931931359917 -0.30010687429477345 0.048574823584909894
Ni 2.3951103103178832 5.287147153090202 6.995626732905602 -0.8289725101586367 -1.0293884589189755 0.05548209222770445
Ni 0.25799908675171357 9.015777125978927 9.120516193532128 1.7021155441869007 0.4829259359089554 1.2060037057152908
Ni 1.6022135848095933 1.2733578147497535 11.260338732788622 -0.841753721083705 -0.49608124234399087 1.051625673050621
Ni 4.162150503053033 6.824495772286999 1.7526499209562838 -0.1558006240438091 0.9605708259246296 -0.42771046707907634
Ni 5.801463440924764 7.788770847846866 8.046546106063984 -0.9539420077542022 0.15938602740222227 0.23371430580215236
Ni 5.175740351295887 2.947105911790054 5.040756339731892 0.6660964673252852 -0.64587551229272 -0.8113925922933446
Ni 1.129436973193116 7.437196934619762 6.896671865904321 -0.6337553319904182 0.037070936710368416 0.3634506286587418
Ni 5.0982703050505975 4.469647412544368 7.330954500512334 -0.1545310133027661 -0.7269416236371159 -0.8710838375063901
Ni 8.046472704803652 7.049176123977924 9.149522378001253 -0.1447317678241572 0.017904133973930456 0.08286254112318632
Ni 4.547035901833732 0.5685516635250594 10.424731535650515 0.7134618439831261 -1.4705193131690157 -0.5392107265436134
Ni 7.850871938842183 7.535799294333764 4.046456523942231 1.2904459326207711 -0.3593378920419489 0.7685009351361409
Ni 7.146201715877365 5.892018847654111 6.91709644623328 0.6057912426773245 1.136752841838268 1.3155972350754181
Ni 2.2523765755641625 5.166542539044283 2.686801481750845 1.2721116530879573 -0.09112143869786887 -0.0710876599754453
Ni 2.256907517560027 5.432835062025227 11.466830070931348 -0.7164353247891533 -0.20485110171355686 -0.1851561943877908
Ni 1.0058600611979098 3.4432531222212 4.049320985472018 0.7014239389819856 -0.4083022377557936 -1.2606031382277256
Ni 3.6800854603450337 2.6810489977928955 2.797839464866696 -0.28789439138898165 -0.363840922118625 -0.12020318655517365
Ni 1.2718172944711597 3.191214942759246 8.493707490201041 -1.185869911079893 0.5232482896770859 -1.554793132817432
Ni 3.701580249173414 2.434466072493962 7.113800043476539 -0.6084165961153135 1.110459712469694 -0.42018407679504405
Ni 4.184696470424454 6.700275466528381 6.070334976089754 0.15215994196742827 0.7626871566678413 -0.19556196310214707
Ni 0.6160993688296607 7.453716749136684 11.162312708896495 1.1449582604671957 -1.5100405111920898 -0.0066092777864015205
P 0.046962307598735556 5.506825344817692 7.980217646186524 0.638293586180404 0.16860008980132254 0.10821130430062008
P 8.406845707386724 1.6895520227218759 8.038216422298786 1.0644048270931603 -0.07269922743693931 -0.10476731161607764
P 1.703008920449593 3.438432199937601 10.556061795589045 0.07512866281403835 -0.1285754697792689 0.053619842207985075
P 3.9627437458150396 6.08344208509539 3.896147054171425 0.1823935440409891 0.5584058114148254 -0.5177389298230826
P 6.963894733731765 3.9059710426068586 10.579165068825958 0.3495949537225721 0.9291102934225031 -0.28367341132909857
P 6.185904807389869 7.673802725643802 10.442623319403785 0.19121602742862553 0.11611358986683229 -0.8508613398119282
P 2.647800945427242 8.703368675364075 5.95717469974304 -1.5471405013681807 -0.6573441750539518 -0.4312524187940638
P 6.769562631529139 3.9883526299756653 1.42904641885805 1.6545717329696665 0.4744132704522539 1.6962431445665238
Ni 5.357304258954167 2.8723634926262744 0.4597438100595728 -1.2796578408663317 -0.6542652790183119 -0.6664826470201102
Ni 1.395457639654308 1.0652335251117173 7.101027317990198 -0.27733872736032233 0.5559046422595266 -0.037143441819516676
Ni 6.902527655339777 0.7511649373495807 9.287616428151209 -0.9181841334283026 -0.3932057484339873 -0.16391374006924675
Ni 2.7751385392790158 1.4951202397953418 9.253742199601726 -0.008522692759030483 0.4383800309777805 -0.6190725331672629
Ni 6.137088438326425 1.9577203556891076 2.821580694736626 1.0325876825825635 0.5767341774103679 -1.2729272070107176
Ni 3.924276048270151 6.943641423010251 10.552175153544992 1.18115682187494 0.3025543073940015 -1.392131005767099
Ni 8.09621338603425 7.35766984070835 -0.010141154375143749 -1.1021043985264631 0.41429830743822843 2.312141393770863
Ni 7.433952780150723 3.706999255800468 8.221019995687135 1.027654249836688 0.5898534884011455 0.6386077749867131
Ni 3.0677377114879487 8.50217672697971 12.374880687264532 0.35034880116946115 -0.514273082761669 -0.23056444731926098
Ni -0.03732499397353193 5.036250771011205 10.323057197263317 0.9127395653739635 -1.011184277206123 -0.7668140343520213
Ni 8.657198376426216 2.0996113352315975 5.688639360474143 0.6741666459279292 1.2773790721344838 0.851684864154488
Ni 3.6024432383039007 2.810425515542808 11.403618899147045 -0.010655422831317133 -0.3147894160076127 0.31881576355818636
Ni 1.189363212030419 3.5109816431753815 12.763949957884215 0.21152439996867442 -0.8178607165161915 -0.21238006310075036
Ni 3.1941963025925246 8.538034601934982 8.017990297229248 0.9326522451374905 -0.919910629201106 0.7767965994860299
Ni 5.6248473219259685 7.802563035282278 3.5289087682762186 -1.2741916755454379 0.8740884286606688 -0.10360543009749254
Ni 3.066269686281289 8.29046393128095 3.8697271313935397 0.432744429958558 -0.3927524629466526 -0.36068772120162396
Ni 3.4330856883824805 4.254264553828956 9.345668669379021 -0.564719412337679 0.678734982024902 -0.10719366166938313
Ni 7.3063252060112145 6.021223189608181 11.502269286846202 -0.8795913607567689 0.26751325662946834 -0.2844398571814779
Ni 0.7928804141171052 -0.21961385235114933 -0.016548812545695214 0.5127553605655621 0.6992421008393184 0.8678190507121892
Ni 4.734807200026345 0.3797101568330228 1.3285129716654112 -0.16846536399567114 -0.48559396965942175 1.0105178472667178
Ni 5.997435744129891 5.72644010335724 0.3129431017703639 -0.5921132309695997 0.3703080179002074 -0.44197854696231625
Ni 7.922424574840875 8.714904453685545 11.374506690635217 -1.5351912994261045 1.9056307006978535 -0.48246570844308523
Ni 9.109640120365254 4.618597599716415 5.85519588205372 -0.26226383530507086 0.8326090784699596 0.9057921875218529
Ni 8.398164422522647 9.079645284352631 2.127859946199014 -0.5456230578278604 -0.24887790091646816 0.16901249474839278
P 8.505321200724842 1.6342654684883382 3.5513360249673482 -0.028549786613234703 -0.13596404893385616 0.3671208784214774
P 1.8429062855139031 3.197730437349299 1.7468675327811616 -0.03160682827200363 -0.5576393655624461 -0.7332896773423306
P 4.958372939986288 1.0732079830244385 8.057964986081961 0.148192472679248 -1.0782733575451364 1.984480264006905
P 8.726014323459406 1.488668178393231 12.457244150865357 -0.11070758835991257 1.0459602472347278 -0.027451411342733368
P 6.517361338155334 8.067677513344297 1.4850561114341279 -0.2689679867981239 -0.7871373192904056 -0.22252409351328775
P 1.8254530969458334 3.2539866131699515 6.156424686387976 -0.32587884105255494 -0.6542256840296281 0.05048541034406144
P 6.915640201475808 4.003205057838109 5.984788978831035 -0.4471436361030235 -0.8427034865914841 -0.9389748449214087
P 2.2974956959589803 8.402088218291066 10.21029564381224 0.07446377553652983 1.1191670104357048 -0.44014123664326127
