# total energy = -340893.04485563445 ev
CRYSTAL
PRIMVEC
9.03337314031382 0.00000000000000 0.00000000000000

0.00000000000000 9.03337314031382 0.00000000000000

0.00000000000000 0.00000000000000 13.22125469820386

PRIMCOORD
 96 1
Ni 6.355556028776214 1.9971884326118636 11.339896625758778 0.681945775652716 -0.4019932648186303 0.5689419350594589
Ni 4.486135623623134 0.19594560336656439 6.079330839717753 -0.022533148105509583 -0.2825812067061843 -0.004233321355057226
Ni 2.5595520342393407 1.509648259395097 4.8279132904007795 0.6514226673631942 1.0686905989527078 -0.2561070716750557
Ni 3.388499505941488 4.393399016588924 4.7779894512779215 0.053219007225140606 0.32925649927553613 0.1910036543075033
Ni 4.980261125743848 4.529125445644933 2.6149392573417716 0.007532560931619285 -0.033157460588575154 0.1629583181345129
Ni 7.073293645695763 6.041881185345872 2.670667038605627 1.3089676455740427 0.16470178318818085 -1.5846076450757034
Ni 5.187486701953158 4.568357384506181 11.632059394769554 -0.30169504471749975 -0.6807234732098406 -0.8465647693191033
Ni 5.5783697842614846 7.6883127784358845 12.296031279036958 -0.7168500437290687 0.8531917877173176 0.8193069620444148
Ni 1.6742453485018898 6.688237088960889 0.5493302510889075 1.0137227273572604 -0.847617893173966 -1.877708777476605
Ni 2.654845085827484 1.51715499234322 0.37195003587514924 0.8677863977020409 0.576424359479433 0.37970282885154605
Ni 0.5072853198810344 9.088747558477428 4.4984652744063975 -0.3913303857881454 -1.0236932083064112 1.021307224572738
Ni 8.552896906552405 2.297891352439914 1.428146458338722 0.4966669396441318 0.28624194338722314 -0.446572851201218
Ni 6.798471339461421 0.7732766006880786 4.880216519967123 -0.06081918816990171 1.303334358547665 -0.4072262310827955
Ni 0.68548937871076 7.604961845930075 2.4207723251153825 0.6636896576560054 -0.38722459114988794 1.294738389348538
Ni 7.528729211334157 3.736058531427677 3.8583451081609224 1.0577978632996041 0.43198672585692705 0.11090504908269933
Ni 7.742359448987772 3.7741612986661623 12.690143792186385 -0.6061082596971109 0.22976817667021074 -0.6772190596010078
Ni 7.928862467576151 8.691197846908313 6.849799868082996 1.1059924207269598 0.7322802622412099 0.4378712096621621
Ni 6.709384215111978 0.963571829254341 0.38833205777818247 0.489907252322795 -1.1113238602422022 -0.7672043278119046
Ni 1.7717877099625752 6.396955977153166 9.41566171335033 0.15759756804323183 -0.12393180035967043 -1.0867510559988445
Ni 0.0968675684989226 4.645836624573629 1.270578236749299 0.07387910667765342 1.139595967714018 1.1886338469782756
Ni 6.438102991086618 2.0717589265790757 7.022825997519383 -0.29254808811090904 -0.42885846464059046 -0.5280626803465938
Ni 3.49520170760602 4.335486062400698 0.5476428170158518 -0.4246603673988428 0.2313319216129048 -0.17689292593773404
Ni 6.128420898514364 5.705234474422057 4.716153303203571 -1.1759773345565294 -0.04316959340893855 0.9875954341425893
Ni 5.3171246376192345 2.890507720184435 9.261250655618152 0.30770936923237974 -0.2655077961636653 -0.14209844396636817
P 0.0355029624942383 5.703066464906354 12.501885589227586 0.8260993023758999 -0.8548529774698245 -0.1054316846729539
P 3.8494544624719422 6.076596437716072 12.621868655850397 0.6421358427446295 1.6139413610428142 0.2221533404374303
P 2.3935909058122515 8.551722568064733 1.3768874866891099 1.1125639032968904 0.6210255431285756 0.8239007520626842
P 6.354020355369258 7.904887895681664 5.6452375210868615 -0.7882827457487586 -2.162016737065909 0.8849546819512114
P 4.757380714156565 0.87967618435771 12.591671896645842 -0.5082158208239957 0.298532330718802 0.30856888901919766
P 4.016689296489507 6.1026577187694215 8.110473011357426 -0.5056184924104647 -0.049734134000333705 0.8443978435747715
P 4.687697274972668 1.0638964695935123 4.072926559989553 0.1640744340168271 0.15453049908213387 -1.5161659073635374
P 0.3582897692516219 5.751629878058107 3.444256193998886 -1.6864138171809282 -1.7532270181507355 -0.12513739063199739
Ni 1.4136144712224221 1.214853165497338 2.6443302396763233 0.4786105963630532 0.30049819619592116 -0.9825362744521271
Ni 1.960151603385265 6.4617613949267305 4.59742677876257 -0.07758020967832446 1.1634974569219638 1.6046465660044493
Ni 5.97639826459865 5.536120698824216 9.246640981494204 -0.0074130046346194915 0.31333725694211845 0.8486388782393127
Ni 8.80257933577757 2.1752723475809272 10.030000633104901 -0.0885361944691959 0.5945604069585116 0.44955430242704514
Ni 2.2193190742416333 5.206772953269936 7.05710855132374 1.533760737627165 -0.3582392596611314 0.8227807795256282
Ni 0.4508999090640821 8.937691495470798 8.78122624872249 1.7199834256062572 1.2212979128701997 0.5018492551760196
Ni 1.445384844000458 1.0078443902395993 11.428835602791313 -0.17917503710369143 0.48471876614332005 -1.073349437880958
Ni 4.24344502508611 6.880647933479559 1.6659572287908155 0.0652175743479135 0.8081149499833372 -1.723643648066664
Ni 5.811719875135018 7.761970901731905 7.884680240320713 -1.53651387489227 0.6328844993496907 -0.3133614253118345
Ni 5.266673249514221 2.974454855307064 4.864839912476997 0.2507046697125618 0.04851337421935516 -0.1106088579985192
Ni 0.9041864352700343 7.077412863775599 6.895664109387699 -1.0908622499537406 1.6595362760637935 -0.23005871132743605
Ni 5.285381364960145 4.541907668414601 7.334279534533427 -0.9197057122791515 -0.8102708199840755 -1.4534212200361485
Ni 8.135582174898463 7.330437641004141 9.224826289079738 -0.2130567774528008 -2.097507758749246 -0.324729300829144
Ni 4.575195647853628 0.45972822447948564 10.40511415619838 0.3697614013681181 -1.4181726812464996 -0.3662834701218466
Ni 8.168852087591526 7.052869189383242 4.781123128365411 0.7831189421596318 0.3010270721161977 -0.20886125131421449
Ni 7.27154908253385 6.149260889984061 7.013888378290895 0.7216515788827701 -0.8712206201945705 -0.14185753160015568
Ni 2.365072547307771 5.495235652707244 2.5053481829975652 0.06030625308922518 -1.4078108783962011 -0.3763524243220744
Ni 2.2201049776910757 5.2340808397948155 11.552996604418343 -0.4240137349537795 0.5419119275248602 -0.14314128340858573
Ni 1.20870143849653 3.504433814793723 3.8215774734491905 -0.5793867845418667 0.21019462541365735 -0.17309077858282448
Ni 3.618407881708843 2.607383744179545 2.916886072629457 -0.32649539159063123 0.11079294898486726 -0.9038340353542176
Ni 1.330769407603609 3.0302630335904603 8.115099904998855 -1.666057622122079 1.6403874710494843 1.118479497450377
Ni 3.8081087143328833 2.6050983008150745 6.9355130276236245 -0.30484798852418465 0.3754209136467405 0.02743675605471404
Ni 4.040871635962581 6.624976377967262 5.913867450141978 0.36407720649914715 0.9012901858864413 0.3323099413898793
Ni 0.7986495387201931 7.4295879428556395 11.401653280150885 -0.3418551618761532 0.6308718397950361 -0.19125845063078675
P 0.18129979575069025 5.425895481696666 8.15888918052957 -0.3107658966705164 0.32088601582365384 0.15394634444388972
P 8.3991037315322 1.6709301006174602 7.966321155321013 0.562142138528806 -1.0845987855425323 -0.44669009350537264
P 1.8096646428765086 3.2801532303942147 10.250306533392287 0.3438503379293111 -0.4048816421100188 1.174142595340636
P 4.178594440447635 6.277327018751253 3.6595639290152775 -0.4713534005800075 -0.44303707013381766 1.6622557318774855
P 6.945579818474873 3.857710965377579 10.503387317533317 0.09309270349162677 0.994884511604835 -0.7818609013828147
P 6.172015956525964 7.581827377722923 9.998718965805198 -0.31546458769776636 1.6522502839253415 1.5745908842696497
P 2.2354617117606406 8.539238446603473 5.667634866058674 0.784932598329603 -1.549464264405351 0.626554957587237
P 6.794876057014546 4.026833774348402 1.541108787479847 1.267609651452546 -0.3611862581045973 0.34933038720727577
Ni 5.21971777675328 2.8772467286467163 0.39340791005682285 0.15964725148340894 -0.4065322903395644 -0.08827882704275118
Ni 1.6350134096406417 1.0995511927538497 6.94782190164903 -0.7747415167292142 -0.8413598280793961 0.21924285165885468
Ni 6.749076855995313 0.7226770652661594 9.222393601735659 0.3668838227100068 -0.5453978291909317 -0.49899841599078576
Ni 2.6546192515029317 1.3688360413501666 9.19178672739772 0.6512953977567106 0.43436216806763905 -0.12644351103793064
Ni 6.357317536507724 2.1309546197307587 2.5336018636736704 -0.8725195415116521 -0.7728193600058368 0.7195934108021607
Ni 4.046481360584464 6.821054771916663 10.462705522308443 0.26180772160425875 -0.135397892017741 -0.4665192124161579
Ni 8.138996789885695 7.244421863468611 0.4104629182470223 -1.009966602748938 0.16517512328017359 0.03857091829466261
Ni 7.592224790025317 3.7949380565249857 8.242394583713375 0.988288346444556 0.7070541406845695 0.43055076474134873
Ni 2.926397311042307 8.472093385227545 12.281989804073588 1.5179065442037278 -1.1074260678496928 0.5836067361604852
Ni -0.055053891639391214 4.785212536314407 10.497782109597924 0.4675242566419045 -0.5017582381241101 -1.1321999323602632
Ni 8.638081613773581 2.211884608277367 5.82857705245691 0.5300799678869387 0.8417804605565825 -0.3357336223594476
Ni 3.8211077380541214 2.5077275734410494 11.404191657958854 -1.1776521511557911 0.6887532854928525 0.37582226285021725
Ni 1.260020030407824 3.309873027505314 12.471344658512413 -0.7086741927864956 -0.4539380333170375 0.5126856836698912
Ni 2.9793780435823067 8.111408868798371 7.933361087321235 0.5947866640367047 0.0058441174856028386 -0.5455315265553184
Ni 5.7920903556449215 8.140053694524601 3.455453963147494 -0.6915365046649444 -0.695038604280932 1.2387199650013891
Ni 3.2053930355943785 8.426230950597438 3.6115307748575725 -0.2670026355416369 -0.3847617314316922 -0.11537516903891097
Ni 3.6097268102730475 4.336994635688709 9.749049183302205 -0.4292865533169446 1.098127673266902 -1.383139086681134
Ni 7.197339923485921 6.211265962133176 11.305032322734375 0.4220527545726667 -1.0339858484816709 0.9798551280755383
Ni 0.6176189374843692 9.115576676234257 13.540812009223984 -0.9704978552303544 0.40038529690156205 -0.38634707364094106
Ni 4.566821711099226 0.39451630492172624 1.7339414905167807 -0.45283708694337493 0.4741613023424479 -0.6525125579932632
Ni 5.97498002504046 5.573943431500257 0.32168383191626954 0.1574114201743547 0.9330014009467931 0.8058824611083927
Ni 7.69307336599745 8.724801994401714 11.361446640344868 0.4901265674224526 0.7083782588126316 0.2065264325334508
Ni 0.16330622010765086 4.930839542158795 5.870501839804121 -0.8105510702286557 -0.981847990135851 -0.8479871035879267
Ni 8.012303733811782 8.995252148112721 2.25451490205448 -0.9637736491326434 0.6115610552815661 0.5013890277101494
P 8.400368403749695 1.6116260069899924 3.5850485386232562 0.1515559898348422 1.6697029321841501 -0.08335207916509516
P 1.9021302487212552 3.339123089221345 1.5601737211585631 -0.6406176063278903 -1.0250828895650863 0.46267335630750644
P 4.830036133051573 1.0951790402305148 8.09503046024453 -0.8743733068909392 -1.1710109916901896 1.0079696269235672
P 8.55283367294153 1.7181746413138284 12.250735236892828 -0.5179551595989467 -1.1537162091654842 0.9888408765139163
P 6.272963899600899 8.002321856666565 1.4234662677966974 0.41356168638252 -1.2633796725315982 -1.7275506964305538
P 1.887432950879383 3.315446618635268 6.087686709726192 -0.4052531665168246 -0.7033779773845629 -2.1556213750625264
P 6.864604663063354 3.983356150185569 5.990114538134666 1.301506818420623 0.664832513011197 -0.44908970408580073
P 2.5585493298383284 8.431885842084231 10.065195557580449 -1.6545910162433761 0.08800423322512585 0.9222171658470956
