# total energy = -381176.463839288 ev
CRYSTAL
PRIMVEC
9.21152316338840 0.00000000000000 0.00000000000000
0.00000000000000 9.21152316338840 0.00000000000000
0.00000000000000 0.00000000000000 13.48199526464519
PRIMCOORD
 96 1
Ni 4.131027299770181 3.6788981097263647 3.5888803421924895 1.6347696106420748 -0.9911432993948479 0.396888082381581
Ni 6.539720849817798 3.2590092506556623 12.216494237352288 -0.5197024813073565 0.9525217303679081 0.47037123917239637
Ni 5.282661133652948 8.666302292327535 7.878689429700629 -1.5160167833801828 0.5054608837866779 0.3468610997311768
Ni 2.100006198264755 4.176780935182597 2.7922024196482584 -2.3884597060176285 -0.2804700739004524 2.301431977773159
Ni 3.749329415617916 6.822477763975144 10.249390052577215 -0.5528951660092414 0.8963032741948112 1.7698502285297133
Ni 2.9266667074616683 5.22236250321009 4.896822669851422 0.9885071473235814 0.9376926357748754 0.12354819176800656
Ni 8.90525841397712 2.892215610936112 12.257748964865483 -0.4812876289745841 -0.07409379379162077 -0.014098129964278944
Ni 1.8129935604189584 7.514659246921632 5.285238517826171 1.2416523081568358 0.07958824124728874 0.08510505730045989
Ni 2.567463362805502 5.18060666883834 9.347511930067714 -0.8771747808954765 0.10150175349092841 -0.4529622996673296
Ni 3.0571663557176985 7.3326487612937 7.838040820409727 0.7254622108781119 -0.36196761635531205 -0.6781073757432322
Ni 8.664054680682552 0.028397283521118828 6.51142581420348 0.6370509720225545 1.600982743999617 -0.8907918574582788
Ni 5.652816979316838 3.5988776082510956 5.59527075198677 0.4378393279829621 1.1218355584068034 0.7704017517032796
Ni 9.06588895440831 0.33699436237725805 8.91375604406932 0.5632528550944816 -0.9830368682376295 1.0089759567008945
Ni 0.7875714107727968 1.8599446938389477 0.5529953683739868 0.9657909366729883 0.589010680784876 0.5357870455740451
Ni 8.843412247647551 1.9930880492347733 4.7437345245633145 -0.011987768489495482 -2.2681459620265194 0.2720024027490735
Ni 3.881358176714385 2.1021985407709263 5.352621730712292 -0.7530581182185095 0.3970202370840711 -0.13955639427080482
Ni 5.572271421022864 2.4811606025520434 1.302758082438456 1.3095718548169446 0.43622364675641 1.3875457003892617
Ni 3.0777356868785457 3.0614405024524203 9.513057739243834 0.4567047974288973 -2.801022518821989 -0.31849180455986437
Ni 0.567809339879976 5.517453646845435 4.566136358517133 0.1906215883777362 -0.6660926106705432 -1.2339161158548426
Ni 5.1767194060752955 5.625781158915098 3.256387651171392 0.5147471941846102 -1.3753373312485282 -0.19603478897350754
Ni 4.661776839772719 2.009834598294522 7.56794238134474 -0.990977720351261 -1.2607427491293837 0.7917203106753978
Ni 0.7050481384617007 6.550645716256117 13.27994063334814 -0.7316829949768432 0.9048730181416933 0.16536564202442489
Ni 3.12761608465552 5.944416955683951 13.197970052425154 2.09685598409786 1.1197064278789426 -0.18326540512298115
Ni 7.550427591255517 3.0477613905966843 10.040581403844435 -0.37851446497039976 0.7254457558178797 0.021732506581085154
P 3.9133774311322553 0.41974515930979306 9.31628763009641 -0.11026767260901656 0.6226509945471406 -1.123642529708555
Ni 6.238826446607294 1.140451044796665 6.10106167005455 0.659016163439736 -0.15537047848492597 -0.22995252476687494
P 4.958185231216394 5.979052282672211 6.2077440040922705 -0.1833404813352907 -0.23397038767701642 -0.18647799852300787
Ni 5.327843654630984 8.541265077290664 10.641770540109343 -0.24712106612636153 0.6137927728255622 0.4215045953786805
P 7.034784949194667 9.165852403471233 1.0647866726120203 -1.0531634498513862 0.14715143300924333 0.8990453557163226
P 7.275085953221988 0.20677658672916407 4.388645967291632 -0.8397521172726441 0.25486034375214817 0.12171525232432587
P 1.9106264941286828 5.769269054791726 11.543783150856619 -0.8907370929609434 -0.5455523524909249 -2.023082292649819
Ni 2.112524658205458 0.9342787339851684 7.783007496590935 0.4716336508245877 0.08923707719096245 1.304656162682882
Ni 7.402886625199413 7.358321276271434 13.515295970604186 -0.5834529841914403 -1.0456879674099475 -1.1133712296895342
Ni 7.930421343627775 4.913721209042902 0.16125047593818653 0.6930208025199549 -0.5854155072344499 -0.31431504747435546
Ni 7.376642995787298 0.839805352710809 11.447562343643517 1.3899178001658643 0.39171399437980925 -1.8594390326331396
Ni 3.1010684749799444 0.9949734599228393 11.21456607746239 0.10301716169419033 0.2985896663192987 0.7851969077345832
Ni 8.965704428790142 7.979177935582259 1.7225133744236978 -0.6308445861015265 2.2627101357229287 -0.05409883872693264
Ni 1.927069062924971 8.519166633289379 9.667561695637817 0.8032599358838811 0.7444243538029115 -0.308471701319701
Ni 3.1726696443096634 6.281033645612667 2.178313356436881 -1.3733622098000282 -0.5924346188647603 2.0507162523170037
Ni 3.885180958815483 9.027762460151818 5.74293883706214 1.4382553109289875 0.22907757836108933 1.5592869069227273
Ni 4.026734434833724 2.6337126371936836 12.975544009041641 0.22934085932480502 0.11299689861472154 0.5340044997523256
Ni 1.9124135296169067 0.7903155235147655 5.570275283959471 -2.0752448335859874 0.12539090140370016 -1.0753081042692256
Ni 7.114888354378153 6.22241151238041 2.095304636856561 0.518835762431687 -1.0641988817299413 -0.3892297945053748
Ni 4.150362286830914 7.307363130287643 4.441508135107463 -0.647957077412097 -1.1506817932145346 0.39016799004892805
Ni 5.35437284126029 1.3535688440520837 3.679668193060465 0.7129607359769915 -0.08637543937245123 0.7026817226484866
Ni 2.554815941540906 8.130357453276757 1.0773327671221293 -0.7714975558706196 1.2831311441269129 -0.632628931695459
Ni 6.006659217508332 7.713489973794393 3.277716011838577 1.313627255833241 2.4725211525449224 0.7013084964500438
Ni 8.369368844065155 1.1898800779400163 2.364324406562419 -0.5345997101341632 -0.26516429678131753 0.510085784153199
Ni 0.736569970630271 6.5770090954689895 9.134860233882936 -0.8544032915269156 0.07393618516783396 0.4145281640608474
Ni 0.8076525312074793 0.7275914990304155 11.27039527688006 -1.5623436914711801 0.9239806855054216 0.30839662510739146
Ni 7.141104349220862 5.688014209216343 4.641648740570046 0.10387796703258884 -0.23075753716667355 -0.19902189662628952
Ni 2.106638494922081 3.377966860423318 11.878689260939135 -1.398932344959649 0.20499765459375016 -0.10706664917321561
Ni 5.930360171379673 1.0620241368237813 13.037588223118615 -0.7087824362295858 -0.5725484214637946 0.38422925596698987
Ni 8.82279685887103 7.005805497411405 5.959621495770872 -1.6829757380336565 -0.5274479295807304 0.8216461517005527
Ni 7.39567400258457 7.891585562089875 7.7838300856069065 0.7951954137081918 -0.5803342360568006 2.463056664697913
Ni 1.7931887856783313 3.4024510889166146 5.697598799038492 -0.9660351914733106 -0.9116998112555396 -0.5512589159573991
P 1.4005384005183432 7.390147088703465 2.934854830376526 1.3065091567312208 0.7895017057575242 1.2151846008836105
Ni 5.388262034874599 6.5944004511482 12.168592474744749 0.5795847594852858 -1.181134967498069 -0.5289661659974697
P 8.08842659996544 3.0271183672507562 1.238019497844443 -0.7044257019227869 0.6480547793322258 -0.8863896146255249
Ni 8.932856137290106 5.146137149266513 11.090477649308442 1.0626497920752667 -1.706281245528816 0.5290710670064501
P 2.7433573970716774 0.9953511323713814 0.17806519026913575 0.4908593318234192 -0.8797206872457817 -0.47016169426475163
P 1.6229137805246134 3.1654201756022804 7.890000258958311 0.965260518090815 1.3256793019017685 0.31278344132117747
P 6.824688529527586 3.0316504366332624 7.462351612798537 1.3316807709008422 -0.16578961693572095 -1.199571576936702
Ni 5.300973641645677 6.31056578878404 8.668140912345315 -0.8571700556387752 -0.1795229073614134 -0.38947893440170345
Ni 5.458564379442258 3.728695603795123 8.847060931961396 -0.6795579921468297 1.3559959506074388 1.3574992746258427
Ni 6.747947330288439 3.372716292236268 3.528089816414213 -0.5303779587433317 0.23212176450405186 -0.5606375289588216
Ni 6.9146482644657095 5.434955245646804 7.292451516636421 0.7199047713949924 -0.6480444949195806 -1.5690856381807041
Ni 4.997251300832672 6.997736203144992 1.2073110431687086 1.0793426793499152 0.8469077544808188 -1.2049775784436214
Ni 8.806685904907608 7.3771956871754085 11.428566340634159 -0.5325921927858311 2.0033318494957695 -0.9243951473350209
Ni 8.702070636661421 0.10935643920386219 13.26103858787476 0.9392514956215631 0.025136132945995423 -0.8010675562182528
Ni 5.533656716040209 4.7059184586364795 0.615333430038973 -0.17897397683647887 0.7016334838896303 -0.3625108904532918
Ni 0.1680697665151569 5.904899521434048 2.107451872414917 0.37808046275677465 -2.8971676359866945 0.6244178566395763
Ni 1.4915298260476062 4.643289312840421 0.6620524330759557 -1.2602946058483713 -2.230185423622346 -1.1981651835074782
Ni 5.2793726198936906 1.8964131139311071 10.72411787232856 -0.35402650713136447 0.2555324301185083 -0.7602926882937358
Ni 6.310022308919065 7.77287666344687 5.8531814247916065 -0.48900839465760937 -0.13714907038089283 -1.4869396635085683
Ni 7.541059472227045 6.145900601219644 9.50831196252459 -0.08267742169557374 0.7678900410250196 0.44328980957457204
Ni 0.6235178683445763 2.7060507283742163 9.990940505668974 0.7276211662026436 0.1160302861244066 -0.3701218700313303
Ni 4.9658860645574 0.17177556227243795 1.807841555529455 -0.5742373791304433 -0.47808352021498957 -1.293237122212663
Ni 4.138488633509672 4.268334263623105 11.223370451274992 1.1168211359113476 1.1399330393384626 -0.027519288466191318
Ni 8.968440251161288 3.6304731326047475 3.1071278148982633 0.9130097883162147 0.6360739528212658 -0.29263139185333475
Ni 2.002004803629623 8.119368106176493 11.914241134479344 0.6517417412655099 -1.3744060776835103 1.3297861249812906
Ni 3.653980939645715 4.3383142048810335 7.115972550651163 -0.10999950654929443 0.35451270273916363 0.48446988335730756
Ni 4.310301963026965 8.56660597743553 12.930945498630376 -0.8129977319969354 0.03644770130407272 -0.20987169485659984
Ni 8.453064743271359 3.8674027191645943 5.812896670664544 -0.9170914145847562 1.8151882903448804 0.5650181745250205
Ni 1.2122640791584924 5.532496064125176 6.850593174888326 0.8994793579299475 -0.2967400147050696 0.6522410494994315
Ni 6.891306264841174 1.1479952822443735 8.750853020880683 -0.7144997983293373 -0.04686581131360315 -0.21795472897505044
Ni 8.967344079908203 4.463351419917904 8.472490003258816 -0.1789284683105241 0.011371732172051384 0.03635102782520837
Ni 9.234091366856614 8.616606125013263 4.183813933096303 0.17127120887558245 0.5654601471584455 -0.3886484680806081
P 1.6290302318863699 1.9396888496201614 3.7714536518839803 0.3414802950352377 0.8224822744486028 -0.4005603890268456
Ni 8.97744912078749 2.2754304448510356 7.540655086361411 -0.9623947665072456 -1.1123978100326715 -0.5456621385959118
P 3.525738114557803 4.355475272481865 1.2665954849143841 1.4714801344203883 -1.5962909949509025 -0.4769895158198623
Ni 2.9418104514958965 9.24394769661125 3.40769520903747 -0.44838779292276965 -0.21320667276710378 0.042780328390319866
P 1.0428273226100757 7.933258492753408 7.49673085944364 -0.7501090628925146 0.7517537975847892 -0.49419868060929717
P 7.336554447103015 8.41739772569196 10.043560410426348 1.3334628025019293 -0.6697209514517499 -1.0077168874828129
P 6.110777063505219 4.939596377529609 10.572432642013938 0.36992595197044037 -0.0016617039731390735 0.8249932137959146
Ni 3.19978836841962 2.1507248446470304 2.0911649783596133 -0.38988054071549627 -0.9963073600942906 -0.8953563369005095
