# total energy = -340871.61039958306 ev
CRYSTAL
PRIMVEC
9.21111578680937 0.00000000000000 0.00000000000000

0.00000000000000 9.21111578680937 0.00000000000000

0.00000000000000 0.00000000000000 13.48139902784990

PRIMCOORD
 96 1
Ni 7.339914365086191 3.640767156988906 10.094211119009538 -1.0432428483035645 -0.6631936918561933 0.05590709558026501
Ni 7.272313987193418 4.277992138951301 7.072395932719411 -2.011687677659632 0.32639254746417984 0.11815838821100295
Ni 3.0546822892192718 8.659332995705698 5.299187083122333 -0.20190436038040713 0.19851821751699358 -0.48671111398300043
Ni 4.156479101049482 8.747437317077052 1.3083054195651898 1.0682923350730247 0.3118264767245468 -0.08727146882415938
Ni 2.1651095823964863 3.6104441642074634 8.09443369397413 -1.1446975506066415 -0.7213343047526675 0.5195500148898924
Ni 5.342437876744832 7.861797756644813 4.366895064051135 -0.4212233166928358 1.162477757408198 -1.414640242613209
Ni 1.0637180596557005 8.181183981342183 6.983054558513747 0.8313566941200973 -0.7844872832620683 -1.0271230599235666
Ni 0.059900806305285555 0.4748440660615762 8.47694185212614 0.7542909621843461 0.48111999304846825 -0.08472324848100891
Ni 0.9276698812286321 2.669933987736629 10.251713828052202 -0.2834150154613893 0.961147781474022 0.1531603582074846
Ni 4.501251160529859 4.279189583988236 7.7712441996171435 0.8432688721766508 -0.32007406144531975 1.4028352795584809
Ni 4.01279490773304 8.327474920392874 12.152335435136917 -0.06606552417050558 0.21616241296131805 -1.7727242076433984
Ni 8.598788332415168 3.9793493467399 2.728298379948371 -0.4989539359060955 0.6983044195163973 0.6664034570427426
Ni 5.307767237367751 6.867467031321617 10.714732663818268 -0.10082195381508442 1.553987349086685 0.7675686531298587
Ni 7.892627360788035 1.3219977430067495 10.223227531735102 -0.788199956226965 0.40664233355486734 0.5663695463465923
Ni 3.9422746061732816 3.309240681840156 12.305092577387052 0.17676874165504394 0.9175701539933875 1.3542817961298095
Ni 7.139305476937029 2.261052563201926 4.961545348281116 0.47876203433925285 -0.3897710117208255 0.8766263645911742
Ni 0.9286186261425109 0.4272290458352361 10.98743419097184 -1.1938768405447697 -1.4942068865939429 0.17761412037447477
Ni 6.67535079181902 4.453878392645605 4.602037345953914 -0.4571930499192255 0.8285120255824506 -0.6217007148187293
Ni 5.544769243524044 2.7403161225613566 3.244985781158264 0.19708688438710573 1.1393766526143603 -0.11781848837308097
Ni 8.485298176260807 0.24877657531562541 1.9710074263557116 0.38886058409141416 0.3223983387031222 1.6802832788031579
Ni 8.603117556779468 4.640919307414736 11.770798128576393 -0.27380628872703167 0.48839724343617175 0.922107893962741
Ni 7.266345184240085 4.997389483794393 0.6436276284637262 -0.6395284870287695 1.4127543384444057 0.0945119524366566
Ni 0.9832681754050563 5.264327615874043 10.275346787523448 0.43980699323229416 -1.801657088627665 -0.13811503383858795
Ni 5.220685349835624 5.860563133110612 6.005855587222813 0.9203294619060794 1.025074404924654 0.9232152680943068
P 1.7555465353022979 3.839496977541648 12.074291494298944 -0.6135096943675047 0.7709098016879498 -1.6113471179530765
P 0.07619803325796068 0.12489996513321037 0.043700296067132015 0.692741066496007 0.12764524465551566 -1.1452868474512081
P 6.378679178360724 3.6223080811887813 12.780514180401058 0.018004149886904477 0.7812826602818416 -2.020343039341785
P 0.7852531374282075 8.71530894562454 3.8043022256830166 0.5090588855505813 0.5503425747907168 0.6745571964981285
P 8.789992671466562 4.686947252411354 4.949223638851063 0.49347028708370494 -0.0646393332469403 -0.6379428877092045
P 1.1726763469010486 2.783092543726915 1.8969537408254302 1.1611495255150777 0.5812603474154958 0.5443115381052884
P 1.837571520332294 6.528018996697764 1.0088133624891313 0.09439265324997291 -1.270854897862721 2.020954961894171
P -0.2089882400730009 4.095593626479209 8.793929502303374 0.09510844837007491 0.2925516876553349 -1.5263883564224938
Ni 3.491694461006261 5.091775786051818 10.499542579565516 -0.07089842678277467 1.4022287563227336 0.9632589142797541
Ni 0.11533053706497198 6.875674135382451 13.46590869175305 -0.5576036272285042 0.0839593737317909 1.071844314090341
Ni 0.20467928016317133 2.1359195568422966 3.93655542445457 0.35414657764899654 -0.645595776268772 -0.7796988607344894
Ni 3.5154407172002338 6.293200024954957 4.461049246193708 0.2621157397629808 -0.9632743408987215 -0.03205574288396414
Ni 2.554233163821774 6.4330708163845465 12.54719201495442 0.08820812170581584 -1.478993669188614 -2.150156238182897
Ni 3.806171161052201 2.4185165855587796 1.692077342786948 -0.5711150314513778 -1.0086483981581469 -1.6984339815702554
Ni 2.9225948905297554 2.776644762758808 3.850759408669798 -1.32102766206237 -0.5338062676985904 -0.7456661966298126
Ni 2.4737003795301113 4.324876717705112 0.5283026180681555 1.086156102727323 0.27468200646376567 1.2875516417921113
Ni 6.202065246528592 0.6134068790662065 2.84067859666465 2.0282137003391134 -0.7947817232095409 -1.65737346408452
Ni 8.82822801260744 6.334631623232882 2.361954808683407 -0.20837814103020888 0.8106762829526103 0.4023673603285974
Ni -0.010581729680231279 2.9794090519744514 6.507120817468561 1.3895920413953293 1.179177586661382 -0.9356192981856145
Ni 7.572071324400736 2.067573078580357 7.758936306860593 -0.7342363575263161 -0.7319303351009587 1.2271554000922416
Ni 1.2188608808640355 1.1166819747508694 5.7914880555992765 -0.20061932302039642 -2.427200831341568 -0.17517234370220153
Ni 0.18001467573702642 7.1949129822291225 8.977438875325117 -0.46883654769542477 0.7739097648565381 0.07709889916653173
Ni 0.27436689686647725 7.169573203024459 11.394168504444162 1.083021156642767 0.21925467873339657 -1.0833088630865149
Ni 4.251307536859005 3.809929296245041 5.4235537246583245 0.6122441973915197 -0.14128700380866635 -1.0687847013284109
Ni 4.069774869259772 6.362808426063513 1.0503739163864185 -1.7797515468038252 1.048990035199987 0.3029312311174461
Ni 5.119685466528055 5.641283313500945 12.68139889135931 0.17522967930269823 -2.2488470045875917 -1.0526551427564
Ni 4.81636342755694 1.3633095967809812 5.220173211804443 -0.2534552358745054 -0.9189510935013141 -0.5140062022535278
Ni 2.6900602754727925 5.165197589047224 6.448827350847467 -1.3760793516208754 -0.5552484967327663 -0.4797591081451996
Ni 2.936669475271567 1.3256821892742394 11.463139496348441 0.7908546202409928 -0.4236771775499671 -1.7301930191494073
Ni 1.5848737730764921 1.9838900927299905 13.217405686572786 -0.5656987455318129 -0.19202438226253382 1.5442814346528306
Ni 5.10657804893146 4.349286174227233 1.201939140269021 0.03541206095070676 -1.445600438440149 -0.7626889564400542
Ni 2.4013654881836137 7.371444014020237 2.8424185764144725 -0.4065767704242546 1.6250793799375043 -0.18934632120973843
P 5.53035384750249 4.932847196303637 9.774526454164501 -0.39418868117254696 -1.2927159596018705 0.07860068052303883
P 8.237620487044461 0.5560547884664571 6.419693513098857 1.691579163431951 0.39036853609550837 1.1040684642313696
P 4.257147384192977 0.5222665739704401 3.223105696998775 -2.8571746405335245 0.45198939423109896 1.3029962584819559
P 3.2428745934469925 7.114113075583067 6.8369570528920995 0.7867472829408386 1.6240290842961191 -0.6126496603600545
P 7.537649385146711 2.4116174599229048 1.8314212584002862 -0.8136813883275212 -1.0751219564003482 1.0765085523352298
P 5.656960632369116 2.7179331114863547 6.6537986233773365 0.6196849699402812 -0.2808637097944453 1.2771625852483035
P 2.2045239463429604 7.162462221728204 10.44006272124629 0.3226906731325604 0.7889687160721897 1.2248522058803615
P 2.2109164606170557 2.9273201928678114 5.915045040067987 0.4608201051488515 0.7545056492983134 0.8823221294243707
Ni 3.390086644064555 1.299808165360791 7.243042903821344 -0.2662163921949157 0.28031889303456886 0.29894550699682065
Ni 7.2452240960116985 6.737240277997183 11.943279032807967 0.32150539457520755 0.1590756952506551 0.4237864494343218
Ni 7.370826869270433 7.64652477235104 0.7910239013946637 -0.19049997519820738 0.3604367815330825 1.6353622499207512
Ni 7.59999942710831 6.668359555026457 5.1110408344729565 -0.12594266014211214 0.4658448120569525 0.21493522542243626
Ni 8.311502845823304 2.313795411521045 12.557181469897152 0.2408367757795465 0.9867454274374683 0.006773571278407688
Ni 2.3633972693971295 6.256852962526168 8.60043159545047 0.6092432057816669 -0.19857195357306448 -1.7425736522019473
Ni 2.212049427844309 0.7239080281860659 2.310428748744126 -1.4282040973405727 -0.10487864038296131 0.5198207520527758
Ni 7.312207329154667 0.30209511836404007 12.577241437600502 -0.3779238825742524 -2.0402847725710345 -0.6805614937106795
Ni 9.047010431970994 5.658931811122223 6.865429532535696 1.5740584088049472 0.9796247572322869 1.482884262492272
Ni 5.3540715158344305 8.380125657555306 6.449096315424994 -1.3746382482989745 1.7002622930282458 2.3145371476965493
Ni 7.347550379975565 5.8914387928321785 9.058960933439598 0.4028232169190934 0.4682356808866323 -0.009823156738008888
Ni 1.2019400613805877 6.49690384796881 4.9484683273662275 -1.2515245729652251 0.855441502983443 -0.1840436780499024
Ni 2.1894085055305825 8.563574237213633 0.09890251226980094 -1.9269618580754622 0.8764127059184712 0.08666134604398623
Ni 5.324420934496805 6.14385099550225 2.8921512321330525 2.1499199538023746 0.33643939017722063 -0.06508927630016531
Ni 5.538846496149055 1.9294247657808195 11.29959613765023 1.347052625371222 0.7354401480264301 0.5538948109183492
Ni 4.955092040643607 6.720282614051061 8.57603042893245 -0.9272161617235837 0.0709382788817746 -2.66186953063719
Ni 5.499091320922838 1.4808618549452495 8.638003736263197 -0.8981886641429823 -0.15629299029919536 0.5895912358786943
Ni 3.386245608830697 8.641343686804678 9.316468725297609 0.8561832662454738 -0.13609080431970758 0.2447877900074945
Ni 3.6973970961202274 2.9559483403662083 9.938177582916037 0.176468951026438 -1.2218414440784957 -1.7712699916953754
Ni 6.009009473227785 1.8742501829251568 0.4153080199367722 -0.3512057498531177 -0.22782210868743344 0.666434053170362
Ni 7.549642257747391 9.210093234885772 4.5677941023438615 1.0832700394287798 -1.4300635191468147 -0.13402209471613694
Ni 1.617278477999067 5.067854518660139 2.9913604745546216 0.7576225976607404 -1.063981880623129 -0.44192044003087116
Ni 7.0138685037603326 8.64089234213691 8.878296874047928 -1.64258139337701 -0.2964433094002572 -1.8118610257438599
Ni 0.1654344007450016 4.539375968282711 0.5085291160621035 1.8130897559446388 -1.1631362169278032 0.23411771188815808
P 2.1954694196406037 1.1888142215526547 9.118845159736681 -0.5808137467963803 0.9717726081777199 -0.0007394492691858233
P 5.56661800989026 7.5875459987241936 13.29855101005642 0.2849144828250513 -0.11943391248931688 0.1500747773036254
P 7.0646493844420135 7.52869618071671 3.1153890681455705 1.0412114196958326 0.3042977724476695 -0.9644958720106487
P 8.125567264934421 8.438220164077954 10.538692584492297 0.8255249179296686 -0.2031639438191211 1.4452093736493175
P 5.338302085809574 9.273106477175519 10.47104338768648 -0.39749563405859284 -1.3363102992530533 -1.3168483338736998
P 6.682388084189926 7.088275896132293 7.308846193047149 2.0901176369327614 -1.8239603801105555 -0.6442528890876323
P 4.133110500597926 4.496010035714354 3.0541434389526514 -1.8545156271895933 -1.3846110432409702 1.4972721557828277
P 4.146687685093627 1.045848495258374 13.130383671292508 -0.6119310370264752 1.041912045307283 1.0825701851482776
