# total energy = -340886.2596819652 ev
CRYSTAL
PRIMVEC
9.11211047572384 0.00000000000000 0.00000000000000

0.00000000000000 9.11211047572384 0.00000000000000

0.00000000000000 0.00000000000000 13.33649474746865

PRIMCOORD
 96 1
Ni 6.515359343283976 2.1541393274468548 11.251613773137747 0.720673788350533 -0.06288712644252395 2.0635658545861624
Ni 4.979093992231413 0.7017090361574185 5.454132905769208 -1.2629551833996702 -1.7911947556437602 0.2241580295722849
Ni 3.339123713657859 2.2645781044923186 4.875502054878355 -1.216649358354595 -0.468892854854657 -0.20163902253416244
Ni 4.007688359747194 4.808442390209346 4.563322066619288 -0.7054680271443721 0.24054289868821158 0.2958686678437098
Ni 4.006203085765477 3.3700046555231293 2.478441156061003 -1.04444920990684 -1.9855177041324839 0.4646659612575029
Ni 5.401002924142229 5.006685462272145 2.125650314539871 0.6490932478990692 1.5771655869753611 0.7507487533590425
Ni 5.627630219843361 3.0634641523394284 0.5468268522504408 -0.08604762371938729 0.520403364029123 -0.6012200783668743
Ni 5.76648966896843 8.231497751999694 12.382241687673066 0.4435970564023457 -0.5313536923930398 -0.014291734032323774
Ni 2.1082416277787024 6.685655573003668 0.2285545070332386 0.10256850419254596 0.1537123740562127 -0.03783583990085096
Ni 0.4930134623496655 0.17918600454523367 0.11078139239339385 -0.0016745594889455032 -0.4248578281216296 -0.43453391775881295
Ni 8.121569253131998 -0.07620731221652882 6.737129884185998 -0.011683349875199233 0.5274911241138399 -0.5097026897821674
Ni 8.84205470380921 2.502139932574191 1.0596728227056715 0.19176521506387617 1.2945177886972996 0.904994374210906
Ni 7.220937381482113 1.1886018940069654 4.733402339324462 0.703068416563944 -1.2801437793638146 -0.0956028715079902
Ni 0.770785210839642 7.856324833906221 2.3139620975678628 0.5927477792298049 -0.5471145547717222 0.20297316796455364
Ni 8.154746446797224 4.4680959577485275 3.8741048224958323 0.440396547187177 -0.2896841362995527 0.5965594396664113
Ni 7.739516691748976 4.293453251407491 12.296848457045684 1.1315838960428188 -2.015408578154645 -0.026367691360251362
Ni 8.390631646580717 7.625086810384543 8.77227963026565 1.4290106524022679 -0.36581964311155063 0.732022637704449
Ni 6.846247405235455 1.0503347320525205 0.2918290010764483 0.7618335504182945 -0.39573905637880236 -0.5955942475396645
Ni 2.1495650480675788 6.254060467825583 9.614185773342713 0.583812167303072 0.67262449825179 -1.8314770002025749
Ni 0.2680919536999274 5.143002632618691 1.620664450444328 0.7033689785234983 -0.4158983049354966 -0.5810608298101799
Ni 6.294162865331942 2.110346525261995 6.784141083734921 2.3836908238740757 0.12854024566595926 1.715786356805774
Ni 3.5735965363421722 4.6350571550920945 0.3416850014664279 1.0609333236047922 -0.6456713667017139 0.4386623381048897
Ni 6.121570383812295 5.9959872794195075 4.664505673215488 0.2696488149152324 0.5947941202358724 -0.2764514396593626
Ni 5.676334449489237 2.850751049092785 9.205128561823393 -0.5645561472869374 -0.058597240817918436 -1.0674207311013488
P 0.38897594280209236 5.608358106522309 12.728563842079957 -0.018276429711684656 -0.47002542579720347 -1.213078353173885
P 4.3746148180035265 6.266380040974548 12.359996292755485 1.0611328412101082 1.2058571528350974 1.4575200726958704
P 2.3109769702279213 8.683841132370233 1.0197736252593868 2.742888076573102 -0.46625593145244215 0.1440206006897455
P 6.373538458305791 8.14399415662283 5.540699776205454 0.22785270481505274 -0.5389687857361363 0.9993852276886659
P 4.771583903975939 1.232750068494199 12.442402573620859 0.8059886476689538 0.4394151571105142 1.9151607516754758
P 4.084330319625857 6.228965716011786 8.320505756789942 1.1200596974533032 0.4190651326992525 0.3953742168402159
P 4.7071248355914825 1.5197268708266947 3.3561551590518914 0.8616897978859999 -1.2249303674164647 -0.6683598094381651
P 0.40821707494806614 6.35710932340373 3.7282035345175686 0.10730884709100874 -1.6999275353966463 0.636028187184995
Ni 0.9687722326025247 0.17442857174858045 4.864860021238801 -0.19900492734542502 0.2523923418276299 -0.778892305672794
Ni 2.337083166286936 6.841308641443488 4.716010965572896 0.12233488818619574 0.43997231516556484 0.032211294625221945
Ni 6.516981298920451 5.8572553998388805 8.967525729245093 -0.8134754429643023 1.3353286520660743 1.5929863560577018
Ni 8.870466263778496 2.279130144669019 10.257204618157546 -0.5237344852848852 1.03074497294687 -0.5631983477074624
Ni 2.757935093400946 5.427482716724251 6.8524645981049375 -0.4783856248364406 -0.8774771426272436 0.5302301203115578
Ni 0.9104310350850917 0.41559788430506495 8.773879716837365 -0.4836180768799736 -0.1662724701094104 0.7105546976386602
Ni 1.6822231341147935 1.2099515684803581 11.086414857929542 -0.7118495051906837 -0.49043330002959407 0.5630409961939916
Ni 4.5933145777286235 7.373300978097393 1.067950263717891 -0.9399585489909166 -1.688141341394996 0.4734550203040426
Ni 6.215580025955698 8.10071163261574 7.818587029027196 -1.856282232171713 0.03557943976650647 -0.2780128706092115
Ni 5.583892090320405 2.925634371680213 4.672361223520018 0.9422069787054612 2.3136938258596476 0.18382564850182537
Ni 1.017130202056343 7.863158916644184 6.857451656081586 0.42653393027247194 -1.604540122333572 0.4688702291468376
Ni 5.3749422886347995 4.9041104364304955 7.144800232515027 -0.07065365776182027 -0.6481830773799739 -1.0768533372691582
Ni 0.7694047261265737 7.288941060779992 11.30880046627798 0.26520286332873677 0.2423622112851374 0.5165724203188071
Ni 4.8015718590301155 0.47995034099880923 10.500088829875745 -0.2424267459744857 -0.26115260451876315 -2.0260223491147493
Ni 8.026119897558464 7.865901661849685 4.295885273651173 1.0509229905566417 0.13507804678447705 0.09660380196867878
Ni 7.869528281755964 6.316961365345783 6.869814967360075 -0.41254327242033473 0.26457268594390565 -0.8206956148618253
Ni 2.4644157958606416 5.235153404257369 2.418986458662798 0.833551901999203 1.8817412956747654 0.44577812321406457
Ni 2.8719731540217364 5.094097936545835 11.532039879363147 -2.0875627317213916 -0.0016092534686488412 -0.8092416073886128
Ni 1.6350952995538082 3.567218059120075 3.8206258470437016 -1.2193315331724484 -0.5399293498771928 -0.22452646865529718
Ni 1.4666670524491583 1.1806652459206122 2.070357117923569 -0.15548000747959673 1.746924215861159 2.3687930808266366
Ni 0.9345380341404943 3.449954311446966 8.140689194210752 0.8132926375295348 -0.19465719189969058 -0.17528161558655617
Ni 4.131931983923341 2.8312146845725317 7.120233983099633 -1.3961349847201696 1.2635894745495593 -1.2171167849093167
Ni 4.445024094425168 7.067717246497007 6.200203339795284 0.3447869908109675 0.6226800480128631 -0.14945488433143939
Ni 8.466872673605419 7.303128616544001 0.26829059770484415 -0.3642530699553791 -0.14328603651656613 -0.4109329905104213
P 0.5535114963791993 5.747281340419598 7.991987754731987 0.01732332176979597 0.5703203034642241 0.2314057122736337
P 8.436265095049668 1.6874717096575482 7.932307076997913 -0.05578702506263296 1.223275091201229 -0.10475419898995508
P 1.8436806168267224 3.412512650153252 10.257377748253575 -0.5305173125346734 0.5506801606357935 -0.4424804262993992
P 4.0632631205723 6.711761769062683 3.342912529127785 0.7580362881593913 -0.5931352444762107 -0.21184578786383518
P 7.107036002516081 4.060802850786634 10.179466471407714 0.21013857536474131 0.8526675397827315 1.99555889041857
P 6.760866931562518 8.027031108590192 10.096086105949421 -1.764635517097993 -1.4666721715087836 0.9419257000196165
P 2.919647715201758 8.648969086185993 6.139855655585985 -0.2751838858008486 -0.2123075579916021 -2.40780494331346
P 7.482628077684148 4.227618254365124 1.8209249437313726 -2.070983230096156 -0.3012348172516296 -1.3965044522444467
Ni 2.706506342770203 1.5947833235101505 0.016634157384199225 0.17140670601218222 -0.4784501595257889 0.8582614889307412
Ni 1.9901122296254523 1.2413245643027617 6.925641222429937 -0.1027011731156683 1.4316285496410892 -0.5957798811879094
Ni 6.9184791037205535 0.7782206928585446 9.321036427481292 0.6587356560848396 1.4695332951066626 -1.3101233564450403
Ni 3.0486296367428922 2.072066549819091 9.046023825995388 -0.6952242379291768 -1.0852929833960794 0.7127673890192627
Ni 6.952840871727026 2.284260262777649 2.6540023631220215 -0.8832009324848983 0.5327773122134436 -0.4569264265214002
Ni 4.621862819352669 7.020498290832848 10.331688830313077 0.0639073401769222 0.06679314636514949 -0.42277523456098803
Ni 7.532808469201424 6.493690744949478 11.296571103021154 -0.0779555907398722 -0.24427408359586963 0.2355333612887621
Ni 7.680315311017592 4.072211212903872 8.165988968506687 1.0719453584445795 -1.0976857006334773 -1.880714139961832
Ni 3.2204111404443023 8.533236173046188 11.975065215723232 -0.04028070189691773 -0.6163299374251191 1.6925934636290787
Ni 0.10830654323121994 5.041621293228606 10.217408387557846 0.28994664593232 -0.7386254877329472 -0.3481803327632326
Ni 8.799829184598922 2.810138373408657 5.907639902627263 -0.12083670637411448 -0.08011891693977814 0.3737219286777628
Ni 3.4502185626461674 2.684263681485717 11.496111739593134 1.8181915959475783 1.038069017412109 -0.4976804685103106
Ni 1.1653204521463085 3.422417514068138 12.460327005825986 -0.379484799303469 0.39704903343947745 0.17797407481705477
Ni 3.4793590914408363 8.446607340259783 8.23695226123562 -0.04564813685641816 -0.20834265980658312 0.8820845594922679
Ni 5.711124486680622 8.336441926523838 3.406514147931385 -0.570925541148391 0.177444684676146 -0.6206992701374086
Ni 3.0957848076348293 9.078559527094278 3.463447524404798 0.6549759319320914 -0.9116723004517139 0.14339993638661108
Ni 4.001045631325895 4.310830045782549 9.353497409275578 -1.3507730116456027 1.285944959426624 0.04674368391344207
Ni 5.222678925233009 4.3839911795200095 11.516130134749172 1.0413641432236131 0.24400848863930877 -0.015839795245734013
Ni 8.16371276334943 0.2724329630550808 2.28619567500904 0.0911602623556043 0.2679909675968352 0.39937099670443477
Ni 4.6953155406202844 0.5563599420643817 1.3574684336178764 -0.34693694727443475 1.1336598047352413 -0.003902934598831988
Ni 6.439993078849732 5.731253138371498 0.047390263338122886 -1.1638306718916664 1.1023149718753726 0.9922133925305751
Ni 8.222303632689556 9.030438472508708 11.422640794104886 -0.17551095798854288 0.05273204028639306 -0.2251964981391283
Ni 0.7606744132315854 5.187642861063058 5.730304567687469 -1.3958819881690994 0.015733608685172904 -0.523240576367602
Ni 7.536498873879923 6.437049867217249 2.3770169897524265 -0.6793458761360236 0.23613628498008363 0.6210558821458788
P 9.046976952734575 1.931822059925796 3.8085960390028246 0.12508185480371362 -0.23138462922771116 -0.7359055176986229
P 2.0986921361661905 3.319669358130461 1.3364367717945567 -1.1202085643263417 -0.28190372102318545 0.1636301473905569
P 4.826074323673288 1.1206528873709896 8.185046947235284 1.0414489896279353 -1.1242829915060315 -0.16779841983563362
P 8.679075498674294 1.7547737564609969 12.46419418544464 -0.9503643177052731 1.3389755047900422 -2.1330699721245714
P 6.664533701288207 8.144139950387906 1.3130423397659656 -0.7390839154266046 0.0319662684939514 -0.6055601005031248
P 1.9541467302031381 3.373895526628609 6.052007622439128 0.6820578757505479 0.09581190219500274 0.5923752263817347
P 7.18188287666224 4.471066505711962 5.925270924880173 -0.2545584962410132 -0.7261098717644399 -0.5788612510556997
P 2.2263528017113186 8.487921648438341 10.132415178573394 0.06704768557811679 -0.7619073410790234 -0.6105223296044066
