# total energy = -381165.42024513526 ev
CRYSTAL
PRIMVEC
9.27335310952330 0.00000000000000 0.00000000000000

0.00000000000000 9.27335310952330 0.00000000000000

0.00000000000000 0.00000000000000 13.57248964068894

PRIMCOORD
 96 1
Ni 2.1432574051169717 5.041347218773711 4.248759279777067 -0.6496910293840682 0.14107000270185382 -1.444787969841183
Ni 9.363212051629262 1.3846229217411963 8.154989637578256 -0.32240270957849637 -0.5236444966742402 -0.2548883687766062
Ni 2.552351384118076 9.259767796030093 13.012515811384283 0.6076702048675922 -0.5204992661770391 -1.0685414749693531
Ni 4.872377449049602 6.02216197287118 7.181584292734372 1.8108199860738556 -0.27968485899499573 0.11983603302374202
Ni 8.534628664624215 3.578948683253024 12.344220480782688 -1.3195994142562757 -0.5997368089531284 -0.5294099384031077
Ni 7.770096328575999 5.68581745018343 11.80714309878963 -0.6683682940785973 -0.004670408892475827 -0.041266719959270864
Ni 5.987655825396101 2.4880963193895558 3.5255898086033053 -1.5743684838461982 -0.10411219453058199 2.173371757067412
Ni 0.6460058987093352 -0.09960601468545303 10.927239120181094 0.21204916212389288 -0.7584818603372421 -0.5884044146594447
Ni 4.5312571494336975 7.971439374525721 13.40577924903771 1.2661515788497806 1.0488766495505744 -1.4054943144478826
Ni 8.111142441365836 5.027808123016223 0.4331583307070515 0.3782455275797292 0.4201280267461281 2.149868788849465
Ni 2.167238296643592 0.4005031445423799 9.075394986543525 0.7891075556428991 0.44376134989435184 -0.818391906429313
Ni 3.157344950706131 7.91405586456179 7.110831389377584 -1.4056017865600243 -1.4511879598302557 3.4464910254842773
Ni 2.4387899001138247 2.2031539938139715 13.774855926722177 0.5700395389990119 0.7452525061311617 -0.5260893586703069
Ni 2.9997906788433006 5.0507689456844025 10.02761350119759 -0.7876181155815661 -0.6452432780253596 -0.4907027516408968
Ni 1.6978026079890778 3.8400028508345745 12.016295235518381 0.04721393868164126 0.7986718022925664 0.8987041703268199
Ni 2.075877220340319 7.462406467457181 9.9308683159924 0.1911322094655676 0.3490516796245924 -0.5683027588135632
Ni 0.4080915295138546 1.6102899732881049 12.412693066573198 0.35275921038316665 -0.28634761572715206 1.2438498300287868
Ni 8.313014068451295 0.818672027042305 1.819582137651059 -0.9451326369926882 -1.3481407162290782 -0.03589954211008656
Ni 7.274546877145397 8.140687344847588 2.6600854929346514 -1.0644032844312636 2.457438547180187 2.439678394983289
Ni 8.499723762959018 0.15806523362737668 5.441007415504889 0.6271316560263135 0.4223029229102598 -0.16059804543245246
Ni 4.444690396765097 7.510108596619183 2.024784753226991 1.5221714901276688 -0.7751780900460005 0.4758698003931224
Ni 7.806243859577843 1.4478022774917239 10.485983297408673 1.4970117030325896 1.8399600979729214 0.5737565828392828
Ni 4.6997261580818455 1.4433603412808766 12.382522211746492 -0.15048152582374083 0.24403779921534746 1.3050207451111524
Ni 1.6023983496650755 1.3658629280991417 6.018299621238992 0.10227668398373999 1.7095444896611203 -1.0001187634205806
P 6.018517545040568 4.300981241317287 12.22380506138504 2.268848130299866 1.2534870960082347 0.5962776467599343
Ni 0.06695917453871411 7.318094544047566 4.198717483587933 -0.3272551525747912 0.10427674513290427 -2.0429972864061914
P 4.074563048156436 8.438593818278632 11.11641181731429 -0.6603371962440047 -0.084317528402158 0.38994327563263165
Ni 0.9251681431988635 0.031028640003121267 3.527354527728408 -0.34919411873972767 3.2968337953340447 0.8341144593708925
P 0.9635477703300404 0.6377961990695374 0.8583063388693642 0.1780751191712933 0.04071856076528471 -0.3312431906882618
P 1.0695143780155356 5.23694078570313 0.25174650291593964 1.0637273414101616 -0.13669861310703557 -1.7239709494990954
P 8.982142146175509 7.14319910159124 10.913571124813311 1.5687691353815498 1.8068874837886688 0.03609674572255719
Ni 1.914808347592497 6.322192044198432 11.838196776846548 -0.4059939013375911 -0.49417374090863275 2.2276837402464147
Ni 6.350633418642417 0.10829514668871801 4.445995157568576 -0.49673841631201543 -0.15828250992539836 1.0403626985422922
Ni 8.600682759884894 5.014352487438061 7.117603719262306 1.5881799358079938 -0.8133589719910959 -1.7761409466344316
Ni 5.854165905239217 0.3295573554378135 10.725415714532579 -0.5799537127889302 -0.1665097829311971 -0.33843559467164297
Ni 5.790541428532279 6.823555888122147 4.290969729139352 -1.9707474878018447 1.052943106310464 -1.9198519865035581
Ni 6.815024403124277 7.520244371730782 10.62863065390838 -2.2388317864434346 -0.714491570799221 1.2132691290284523
Ni 4.413782310354336 0.18057351665653865 6.254664413104969 1.828906411261921 -0.8884922627908246 -1.5601032321764357
Ni 3.71235514323058 4.580545022002911 0.12300546696276203 -0.7655490515966686 0.351420179856769 0.02966076028922634
Ni 8.04371588982289 8.837153267978017 9.405423428326873 0.700349217860568 -0.24303969696813624 -1.5732605954940002
Ni 7.538735438128338 7.549316334196349 0.6721326441799849 0.975493765783049 -0.05880138640892454 -2.6032216390869944
Ni 0.6295150946096488 5.2126075067526845 10.212782891729068 -0.015651590494327884 -0.23902569071273674 -0.17317202544272112
Ni 8.021255828230673 3.7603911131098893 9.598872068647589 -0.22606501678701066 0.8773683849635212 -0.37133877315756697
Ni 6.034606812944158 5.217800584577475 9.974096979542477 -0.453265175619729 1.0921470302034353 1.0459741311917987
Ni 2.1494890985067197 8.338460149792766 5.111684675904517 0.062252321072002466 1.2553948545539089 0.9442612901313286
Ni 3.603773449926173 5.317850792884013 2.2989087848911467 -0.8209676375762892 0.6247988941280788 0.0033622316040135642
Ni 5.970963789530703 5.994814854111705 0.2899814657362831 -1.683291212391546 -1.1387575309731228 -0.4268496617406778
Ni 4.624407982915871 4.016660230410026 8.581532358070655 0.23133963492238865 -0.17380117438628775 -1.2247300784802004
Ni 5.445313033422837 8.226456589135953 8.22579725371927 2.4947779070605933 0.13498625840161915 -1.052747188249574
Ni 2.484897012515355 1.7509667422203672 11.200153906580333 0.6039037958466245 0.026280530963083772 -1.2417991181473453
Ni 2.8194054112579106 0.39762655036157646 2.0042906425255866 -0.14606051393790975 -0.25545118325861166 -0.40019683503983977
Ni 0.564509815602512 7.966097923048794 13.107821772163744 -0.7844222343520878 -0.5350655940269882 -0.6346364490437908
Ni 7.604947180394413 6.4603742811041425 5.2186222036761825 2.5276486896466857 -0.36933177002986717 2.2082821957913517
Ni 0.778138199949166 6.570486077696211 8.07719269508627 1.727437567891457 1.1384536265794587 1.06104902324705
Ni 2.6291625691586775 5.229614836628873 7.653024880363386 0.5393608789682324 0.11899708206221442 -0.47863399340182083
Ni 5.740168573631815 4.783177064055572 2.799448227710177 1.560113773699397 0.26294157809838586 -0.1675248544592728
P 1.2380112067234597 8.98269854737102 7.102253537613422 -1.3883064898146864 -1.8518218824075139 1.5411871119982232
Ni 5.932516466920739 2.879441100253788 10.195220087992693 -0.7174663371568288 -1.211244899509572 1.3909547260708108
P 8.168590864802576 2.0789930670351935 3.792316486373113 -0.7263016760602716 -1.8803171616337293 -1.1671219410484288
Ni 2.122624194116689 3.3239407419960507 2.2612311506016423 2.2182387927834313 1.3581765031985256 -1.0064570469337828
P 4.104107951638189 8.528146590696487 3.8156204231118585 -0.37298273651889313 0.09980225430131845 1.367650761237548
P 3.2526286554377717 2.4552408287945 8.974293179977469 0.020038663818430003 -0.941834940078023 0.8634744005902484
P 6.472939674769484 1.6182094169709098 0.3741037624859287 -0.6564556018014114 -1.160734035244214 -0.5306163000063829
Ni 1.5018195602228002 3.892907331174624 6.0476164002305834 -0.6998887332843817 -0.9810337217646717 0.5556120507197722
Ni 4.606955532083273 2.6244517057033323 1.2911336108650855 0.2032487902234435 -0.006567368804872561 0.2459167614056152
Ni 6.45122148143795 4.537479569470187 5.391916138024756 -0.9101000708685875 -1.0336999418101358 1.543975730486954
Ni 0.9581506787335621 2.5394057829691348 3.8485334084971177 -0.4653056517240309 -0.21824526363227573 1.6870985019527784
Ni 6.192225998279799 2.005325548749241 5.934422141015372 -0.6749104660724893 0.15048152582374083 0.5425567601977107
Ni 0.5115376397836747 5.451526180106066 2.2319412643345 0.33935476405180265 -0.04769113542837593 1.4268480975333104
Ni 7.299863131541249 2.8683130763435236 1.8489666121214385 -0.3544468824982347 2.0659492672166744 -1.4483324926593315
Ni 2.7164711900879626 6.921426858412924 0.6472392546927228 -2.110200780835882 -0.7373761887068785 -0.305668427542951
Ni 3.889235083284237 2.1901898459585127 6.86416482937668 -1.156465232665531 2.0974843617104777 -0.06207337229197697
Ni 4.183320935172756 3.8724688605927713 11.623779230137592 -1.6811967917563628 -1.972571942605093 -1.240501225271528
Ni 8.078759891786964 6.260273864491067 9.07231345125571 -1.1172463963742243 0.15909369297278406 0.3334124304254387
Ni 3.79154958005863 6.680653514407831 5.330541376818344 -1.304509609802689 0.42277909121573 -1.2864373256820103
Ni 8.428689876998495 2.6892538982741065 5.7016535555430625 0.9326699857493035 0.44013172356156455 2.4652163913533927
Ni 7.059469995019758 2.026802634896052 8.278526467682733 0.5658699810023544 0.40617207878666817 -1.6132623326979183
Ni 0.47167705813710675 8.02530828360466 1.8586303735521774 -0.8400148840157275 -1.2596207197097984 -1.5726908390334593
Ni 8.281892694915587 7.837958727722096 7.249908504872746 0.41494673965550477 0.5046579282694084 -0.4110396912916146
Ni 1.3110574103410884 3.358595263123267 8.565177872263869 0.03971094543637677 0.3632320848900325 0.01826614529903951
Ni 4.24838278163477 6.9056065177538315 9.277082073899141 -1.0663884331820925 -1.1267504792099177 1.39823094801725
Ni 3.421626245221658 1.3438294407568177 4.250591694380957 0.02336952796387588 0.7821578637979433 0.19585249775937236
Ni 8.131775652366118 4.286533356940461 3.8914226673179293 0.9499097466663576 0.8183893353261519 -1.2552963813028317
Ni 0.9959024998491349 6.3145971678796755 5.869938951796692 0.9117643459448878 -0.6371515021561608 0.309835414436447
Ni 4.046891362032912 4.481728169679761 5.401850681370645 0.42229161005635013 -1.9557692692254574 0.704180161570884
Ni 7.925174615118796 0.02105978525017585 12.316151895139697 -1.4021480236834691 -0.27399860724349584 0.9541255845199182
Ni 5.175189526354419 0.5476072746181458 2.465781849443498 0.9949287345792092 0.2618210913406975 -1.498466176090929
Ni 0.19847572512217687 2.7441614229180042 1.287172961688357 0.7576056283798759 0.9342972369400814 -1.4745438609473767
P 0.314644876062733 2.816753232225964 10.532998271094216 2.044274353346402 -0.784082848734798 0.3799008037949651
Ni 2.2484543244820068 7.267953522978566 3.138733330716213 0.8832353852672594 -0.9749885440118563 -0.6109822999599607
P 7.678234491196765 6.223783219418658 2.720782372017864 0.35088873283333116 -3.1459113253181434 0.07389016242124695
Ni 5.127932518148829 1.0372152886159924 8.59287923311782 -1.7045915165312193 1.742127565803464 0.08440314613742883
P 6.854575254772009 4.712949959828544 8.016319622291144 -3.0392694223871723 -0.7502049650404305 -0.7160753703465732
P 3.913707462533561 3.4981777763710196 3.4445082443871393 0.45715165515832884 -0.6390363778836995 0.5569366830684667
P 6.350475771637021 7.953717996448625 6.297187374472067 -0.2882690011195809 0.4137087534833456 -0.9655425681076081
Ni 4.292319929373798 6.281194549442365 11.60145177749697 1.0659932546262028 0.2786852140858878 1.0425486504500174
