# total energy = -340876.02803020005 ev
CRYSTAL
PRIMVEC
9.12231664028872 0.00000000000000 0.00000000000000
0.00000000000000 9.12231664028872 0.00000000000000
0.00000000000000 0.00000000000000 13.35143250095600
PRIMCOORD
 96 1
Ni 5.92333907677174 8.172665159768696 9.828336423650864 0.6057855862503696 1.5348370014104793 -0.6829994137282108
Ni 4.643706121584259 7.874073494188965 5.035719431035492 -0.5167937923009938 0.5539380054514589 1.515897227083183
Ni 6.1275786221910415 6.88167492046638 3.706877963638652 -0.6672367515773153 0.6492418576617915 1.5805190768286264
Ni 2.7901426201439152 5.58739152488659 6.06102949843639 -0.6673264830776443 0.46968732573149435 -0.6634448886350509
Ni 2.928856565726384 0.9328845804975409 8.630339079341821 0.5182204974451914 0.6692524964557636 1.337333598311245
Ni 5.960895654041439 3.690916646356944 10.641278961579195 1.4526169789672985 0.35319578369995297 1.1371400499743578
Ni 4.74793771057711 3.08765785236979 0.8639335507931418 2.244888791270792 0.2613760333834789 -0.5736262279090056
Ni 8.195781109926921 0.9945788073799714 6.292864051443944 -0.15651873315675624 -0.17136145459654356 0.5830362083689958
Ni 4.875723120922975 4.276076764292829 7.073922268538404 -0.22082562276494225 0.6385504393862164 0.359865996631277
Ni 7.746023536662916 6.4162543296721175 2.2933622417178716 2.569142438015098 -1.1130760670466187 -0.2052370242980659
Ni 7.9705602364239905 8.947067734702365 10.981312399050717 0.4640193288124396 0.17028184837911964 -0.35103194327941484
Ni 3.4189803897599824 1.634226522117387 12.879365438344914 0.300529820764805 -1.4087737565301028 -0.8045850824532079
Ni 6.812628106438121 1.8186341513393791 1.7812280922928898 -0.08869740263740852 1.9018491221682343 -1.9796972407959648
Ni 1.6704877304358345 1.2743785008500153 6.40517618844396 0.46861620415450256 2.149578511302556 0.31422325909149756
Ni 3.5952965241949397 8.318759059446668 13.758517749851935 0.9175796670750842 0.1927787439300551 -0.1785633716616215
Ni 6.435940288804497 2.927378750443972 5.927434996906328 1.3588164507753695 -0.08929518412240751 1.5910336032067052
Ni 8.938720815051704 3.271034659820716 5.5982826586253065 0.3817751379995425 -0.5044635528704151 -1.851791800500527
Ni 5.512889565556588 0.4934032968362351 2.9477160429786 -0.05747778250149455 -2.291726320449621 1.656012064960619
Ni 2.0334555839660764 8.272518036813658 10.158463937571947 -0.5794587754303827 -0.5279698635224713 -1.4205956888656952
Ni 1.252384595628436 2.5357029667053896 12.006128949125822 -0.8501771692607101 0.31238054945580396 -1.2799776860995957
Ni 6.034330302334144 5.195670129565217 -0.006057218194578416 1.471145633899105 -0.8982598837005499 -0.20741731977883632
Ni 8.051475184294336 6.072069325935003 4.777849786571121 0.7971797911280722 0.1237533658002772 0.6541176976968541
Ni 0.6607166170600034 9.171759513844927 8.09367866961873 -0.7658177318770231 -0.19682103232022877 0.8195504455137885
Ni 2.4384590721960433 3.6090620998811125 0.5600253991233511 -1.3741042301723754 0.014813410863748683 0.9922727850136008
P 7.4666069804883115 3.5771978481436695 2.9132692634235586 1.466251024810965 -0.49431360892060683 0.17258067171562536
P 5.077298949907311 0.8329459536769319 0.7273688229917613 0.47261015580524407 -0.41942405870056804 0.22278223227068084
P 4.004961516186095 2.122854286235457 10.434918477560135 0.43538726689804375 -0.9183003472911926 0.32560116191113603
P 5.442811929757263 1.236776311997527 5.071475263016621 0.13812660380281375 -2.6787138558880383 1.7569237502760322
P 6.3548793838692195 4.522497901476784 8.709486122263208 -0.8999876650249339 0.5511231617104831 -0.30589211351798284
P 2.220773232170102 7.185220003937159 1.7053386286143999 -0.6792630866142302 0.9018386021907436 -0.02965536097258763
P 0.9826103280557442 1.5959036702568088 4.380484413995251 -0.503165659994598 1.9742526727416256 0.4565803560358911
P 0.7054542819242375 0.9036037688093514 10.233138308684897 0.04657707642859075 -1.372551798083591 1.9266702949769723
Ni 4.027064889206372 7.653714815411502 2.8208903003346473 -0.7857797768212468 -0.2682629903112993 -0.8091886426634903
Ni 4.437030917643946 5.202365909918862 4.453530451602581 -0.7465396003737013 0.5871337754771372 -0.7162386353973148
Ni 4.080959535431627 4.090638313299771 9.418140512836027 -1.2856739651534246 -1.4053377342653603 -0.6143285907243742
Ni 5.840973680568655 8.500822253313228 12.447033314170193 0.6708506941808189 -0.6997576070231561 1.7458857472943157
Ni 3.59351767246611 1.489865862585454 2.3109464191152655 -1.7873697254707153 0.8352303181428905 -1.394507476419076
Ni 1.5159921772078526 -0.0009468964587307825 3.194143565784147 1.6746929291995738 -1.8196082737894468 -0.657770463958093
Ni 7.345198069416559 0.7398408541899957 8.909984605662032 1.0213270220670798 0.48935780757722813 -0.8634538317649583
Ni 6.803925416441694 8.12035779662455 5.8466988464405185 0.6556894130593481 0.247369948912374 -2.0806215245168684
Ni 4.110214804633454 9.035070722538356 11.142090491692263 -1.8638060513525836 0.172687886717451 -0.7796250700737605
Ni 5.371584882071619 1.9952330775876372 8.632248380197431 0.15863217995533327 0.9793383363401198 0.919260654321933
Ni 7.266837370182479 8.559971353875948 1.438603916918867 -1.7911137658941798 0.6701680662914974 0.1657327955558565
Ni 0.7220806160830306 8.579812392389815 5.451562968031448 -1.5293520670365082 -0.8636006417554676 -0.47512032382160757
Ni 0.8118332642348651 5.452353872877036 1.4288704051513743 1.5065335264800956 0.059252357903414085 0.3385674922638169
Ni 8.259144720739485 1.3552660817706883 13.188972301168551 0.7192668807006775 -0.9185803404254568 0.1988318921026705
Ni 1.5490605747309651 9.002996657520077 12.337377595751894 -0.557085292831189 1.3503446658589324 -0.3627875411534462
Ni 8.116863949382799 4.598933791917104 11.814054925068405 1.0129274851494747 -1.4247505915743333 -1.0343470884758315
Ni 3.9479379153814125 3.740040321022313 11.92180134263109 -0.7089822109452176 1.2297851244056044 -0.3064613557578916
Ni 0.45415635430832135 8.410803233517898 1.1662088077990327 0.8983745549015432 -0.679232747596927 -0.3667897203343038
Ni 3.387964513462442 0.9593028092497986 4.568005489858523 -0.5792772555471959 -0.19407072326860125 0.27988257682809864
Ni 0.663465171038959 4.548669827681973 7.454251714942021 1.0380865009136058 -0.36925335138344795 -0.5221432295383652
Ni 0.21218964429968562 6.932303777363836 11.430535404564418 1.7336326409585756 -0.5824996191392355 -0.6735218132550788
Ni 2.745753427772201 8.260722881504035 7.081933486939727 -0.35986779640348987 -0.5570600960202083 -1.0576569668463658
Ni 2.9851321365733035 5.845662551279518 8.287033466920908 -1.5449535210191907 0.6622850639989948 1.5038012151505973
Ni 9.039631880817407 1.350321786196198 2.3411066221196557 0.7082283634983286 0.850800918887638 -1.1218844093668678
P 1.489136077260806 4.828797924548109 12.277589933030107 -0.8009266597650141 -0.7944932454348447 -0.13796102475922692
P 2.7777453919414574 3.7002305315627644 7.615416593805631 -0.5489912029691448 -0.8829433079481375 -0.3568341517834887
P 6.834293608263608 3.0015249394282093 12.774356627981314 -0.540971675098778 0.20862162449958263 -0.019439339671534262
P 1.50884940334286 1.5950826617665799 0.5235151515628674 -1.4136200288788106 -1.3537140965517975 1.7722570381989928
P 5.740336284299696 6.833062095528265 1.5599143069717927 -0.7415010095085294 0.3797395956267524 -0.6042642645098367
P 6.168811493033654 5.128867405410251 5.522099456353645 0.9988252414201377 0.24799858363530838 -0.4832498949072774
P 8.159264476744847 8.13418722852663 12.884306084992781 0.1508147407934435 -0.3625862237759175 0.015642591633263384
P 0.9055814870391475 5.147814456901425 5.117056742162479 -0.3062749507786983 -0.3627456321719172 -0.04501076038273538
Ni 7.955508414103125 2.2940528010813197 11.002795454545042 2.812479354508679 0.6583983273500791 -1.3835638329233784
Ni 1.6475086150259808 4.155196947581445 10.1573026666741 0.4199670756882316 0.7657683666963263 0.2172661875484581
Ni 7.457384318448073 1.472077345297159 4.0595968945158685 0.2769893144407036 -0.06713458886496826 0.8075166542777061
Ni 5.845434493365566 4.882345922744157 2.5351702234183966 -0.6615798104018542 -0.9139418132121807 -1.1212740294763788
Ni 8.361269054607414 4.303461958600244 9.365042244846293 -0.42900887417552563 0.009947598131015128 0.05992290160787745
Ni 7.07449332555494 6.135651872344961 7.191802667565484 0.402676406928584 -1.330982716392553 1.006161370070235
Ni 3.998703607027239 1.9289047138936921 6.74852193905773 -0.4415571431541815 1.3371677621573423 -0.9538216801262541
Ni 1.9758207879520007 6.767253703878132 12.98649792400324 -0.2515842441040377 -0.12524254875129398 0.16282719187328734
Ni 5.056992673248981 6.1353782028482176 9.62017428211158 0.6797315416102164 -0.5787406663174356 1.0503668609428554
Ni 7.014559705768224 6.614035274968283 11.43476724721572 -2.2534058276028675 -0.12277968903309822 0.40546296853478553
Ni 4.808427791673871 6.86073920396554 7.31095106859414 0.8099602307221921 -0.9365932320631095 -1.3899465965212707
Ni 5.353768997833649 2.9339833076320367 3.8891117448248487 -0.8129936182318774 0.6739748416320973 -1.750196715964844
Ni 0.6887467591480774 2.4242100137322913 8.938664256689043 0.05688848565692783 0.5605902206606539 -1.8675423784665641
Ni 5.1940828464841085 -0.024449632839019686 7.2117632084262615 0.11749864313981699 1.2548654644130002 0.7309026651673929
Ni 6.0626003613476955 1.2867666067359151 11.158646584013558 -2.1480253078828233 0.3169270311759058 -0.2824714206011974
Ni 2.1168882912064593 5.891310623336251 3.362491356705604 0.8394315007084318 -0.7861317608440268 1.8799721195894847
Ni 0.42799355041969045 6.955273770457131 7.144712357260915 0.8828034399361634 -1.2087948953071828 -0.21267111197860794
Ni 2.939575287682152 6.172761456103311 10.896130943726147 0.2218090697241341 -0.7547966981761711 -0.5270648352096987
Ni 0.7347651972570688 3.6923853393227986 2.961107603685891 -0.6782582994987996 -0.4993002635019207 1.1027546305159523
Ni 8.381949346244626 3.700385610944252 0.8569841700391814 -0.061982355240067434 -0.44860607958116294 0.6551160570543814
Ni 8.332542879765956 6.03645580209218 0.11444402237964385 -0.47903200017118786 1.4671722510736538 -0.7331642075080599
Ni 2.8116256756382407 3.4474602620543706 4.679530370939575 -1.0069928648325948 -0.5920044733058772 -0.27862325049970077
Ni 3.885942652052565 5.443441369599773 0.7217969120380737 -0.7458562011534317 1.2760025035019313 1.084796246265319
Ni 8.095034245859264 6.825992300195738 9.40003636339482 -0.2914700245553819 0.40280316231443536 -0.8804989601727029
P 7.904003814816091 8.285626805707649 3.6111219189599315 0.728819557386119 0.24184619088066733 0.5966964794649078
P 0.9631889161035492 6.013513175948559 9.112192611183845 -0.23550996424999443 0.2652483718546915 1.006213563464409
P 2.616544936043272 7.967659339758514 4.7865150750696595 -0.46766026799913657 -1.2045335489276676 -0.21792876083312146
P 7.847171782659129 8.119472931918414 7.608313958133493 -0.022151853506690883 1.6877587612445968 1.0005975028292122
P 8.079973301221841 2.7479245391130287 7.531409180622087 0.26089652264389906 0.4088658235687474 1.0015428974616172
P 3.9264092483042967 7.982993953892681 8.92086661708419 -0.2194670518545188 0.635884462518279 0.8388725428811682
P 4.6537771590644015 6.366346135782752 12.196266305377957 0.2065210332168121 1.104443073961969 -0.862452129973321
P 3.6761932274321705 3.7880145838013606 2.602647998998662 -0.6481499101491933 0.7326237616235577 0.5299496129566615
