# total energy = -381168.47747064364 ev
CRYSTAL
PRIMVEC
9.27258641764933 0.00000000000000 0.00000000000000

0.00000000000000 9.27258641764933 0.00000000000000

0.00000000000000 0.00000000000000 13.57136750962613

PRIMCOORD
 96 1
Ni 2.848798199316762 7.906363588700999 8.035253468042475 1.8442242725659144 -1.1753893232635435 1.5613594731810398
Ni 2.9810252825326704 3.9965496813211026 0.425661791434751 0.32098937417073753 0.9415935134911784 0.5188313915563129
Ni 8.111779197009694 0.6210945331382409 1.9394161707151587 -0.6564165210333598 0.42357998985047046 0.2794290342304478
Ni 4.534545148935899 4.4865224235519445 4.900145615958699 -0.30669789724872987 0.7119816598931737 2.007174620280627
Ni 7.857079791555659 1.1445153493225486 6.38566775118108 -0.0130113246580034 0.4026535241104485 0.18760568436954786
Ni 0.34524713969749155 6.233060450139067 11.384111129163871 0.3237653942539779 -0.6586855195731945 0.7043791649555675
Ni 1.2417847815059202 0.6171360659695965 2.4666906738408785 -0.7308121623361156 -0.104418155806775 -0.564391339574299
Ni 7.613090223486921 6.241906497641731 4.998619557125925 -1.7098705055419714 -0.8454838775500987 -0.47710701523433313
Ni 7.478934442283011 4.962985007280292 10.80937674665358 1.9806346650085696 0.2093947552201813 1.650511446857364
Ni 8.375816097049876 5.338302217676301 2.47811820941979 -1.8349510747941042 -0.29935816905420704 1.8019298826730772
Ni 5.196338918655575 6.976072804843887 4.815473919768116 -1.1467132954850896 -1.1786199143856992 -0.4322420364008427
Ni 3.641826885498903 7.663486731009955 12.707006933651757 2.717028692307837 -2.219372906387875 -1.5484178254187073
Ni 3.416679213159109 5.917078520633562 6.609826038543375 0.6594313966002836 1.5504587671081362 -0.9208367405598012
Ni 6.400588270087302 4.996579588100153 1.0614014476607343 -0.1847031660107722 1.1865116584289501 -0.5981751208929633
Ni 6.25569483373865 4.322332734736792 3.509745381890743 2.379699700436811 -1.2173314720232842 0.6090935675776801
Ni 9.062608759921732 1.55877742293783 4.225852399662934 -1.5408682952062238 -0.5813277103183214 0.11478124420865393
Ni 4.446223762706479 5.70456938366707 2.673233828665637 -0.5340957739145511 -0.156984102828949 -0.35373185870908114
Ni 7.746420744494042 7.3435454070771575 1.372296436222884 0.9914880843287763 0.7327320050666478 0.07975973382814651
Ni 8.107281992566518 8.881913867170793 12.754602192798947 -1.7289452627852353 -1.1967667604980552 -0.2937439081912232
Ni 7.426349604350514 2.084857616924825 9.940063418752718 0.5807060175739225 1.2183025776873018 1.1114269614789698
Ni 1.5270837223465275 3.5636218911200133 12.095834068047948 0.6037626422830699 1.0485105244604074 -0.8300022369747317
Ni 8.503508885476684 3.107178821603668 12.15499224253667 -0.0014164207315523994 1.3976622199979736 -0.7241959425711785
Ni 4.805156312790952 8.540395234497222 9.817635604929697 0.10691701096922879 -0.4759219937872965 -0.7670459478571693
Ni 4.189632749610364 2.077170642732259 0.21075754538027333 2.0048886524599276 -1.9838503437323898 0.5919355677411547
P 6.977936594726524 1.5442009169900452 12.214231088527775 -0.25488502634249655 -0.5284984823324317 -0.12913905559222275
Ni 9.087579835314472 8.650497926369992 8.15939114681255 -1.9448562218573795 0.7010886671297538 -0.3784743557610837
P 9.423544188686055 4.926701376381003 7.194168675165049 0.35724835650277187 -0.19168088288018603 -0.2272803772513505
Ni 4.824721470265396 2.090448986572735 4.002006598465042 -0.8663517221380433 1.3798030803293655 0.9362543606664522
P 3.1135027255835594 3.9181499626261163 3.547596079905283 -1.212720455613834 -0.5447064595508618 -0.9790544865511139
P 0.37846803528217837 8.674003933098767 0.7474186878004853 0.4373117376142663 -0.9030385360361157 0.5743775042527334
P 0.044458343140742866 1.9108111686806037 9.018635373053934 0.5954744341323487 -2.081606257027641 -2.0290457093221055
Ni 0.48988650717657045 6.072848700924168 4.636250586491674 1.0215872177070018 -0.14367710130739772 -0.4674676923723562
Ni 3.624181153425981 8.548722017156962 5.966909400381269 0.8215811027905721 -0.4164315517311473 -1.0860105782883942
Ni 0.7716618651544818 2.883255130679337 1.08691867839719 2.681206283292589 1.4592933625462092 0.9651281062780089
Ni 5.5527585978037575 0.787923200065824 1.9440172281269212 0.13835800308732946 0.34647594847761615 -1.073031649530223
Ni 1.275842991649821 8.430997259196992 12.260875907560685 -0.4154105666658006 0.38625065727239283 0.4872878124220769
Ni 0.693254728390311 7.471080561533792 2.574692197617103 -0.2567182228964934 -0.0837544568098364 -0.05200210409890399
Ni 2.6942983633740227 2.461176266660759 9.752492903126281 -0.008810656313094503 0.5389795843694137 -0.5550456366933408
Ni 5.207484567605471 1.6890943533386975 10.072167176568431 -0.8785055838917579 -0.11920919807302051 -0.7301858416060264
Ni 8.232925539381073 6.773077341606673 7.113703951460793 -1.349983682975088 -1.485977299595299 1.199469504141199
Ni 7.915942170535644 3.292825275535344 7.93344139574217 -0.3699421499203564 0.8703539013189011 -0.29629649940974784
Ni 1.3351968177132876 8.814539253801453 4.568773974671046 1.962597862111517 0.021177405408563527 -1.401434285445896
Ni 4.9013223071831105 3.3036371113719323 1.9218817096800056 0.8840658515883549 0.7244918765450425 0.046235119708139726
Ni 6.283123144548794 3.693067198391688 12.3974175252661 -1.3570112792458306 -0.5734735043812252 0.4142031766212608
Ni 2.9369712241624892 9.095229719161113 0.5092652856627504 -1.3730379936913901 2.9269402392634363 0.13831635121611663
Ni 5.439531044286964 9.267987277884506 4.161483031572014 0.16880963470896734 -1.466444885989326 -0.28120078141888993
Ni 4.624238877964474 5.343467048346095 11.445847082694248 -0.22158306975625708 0.5536071044746014 0.3466600394639643
Ni 0.42569980903932225 6.412336637158448 9.023751986274029 0.46790040903440067 -1.6149494905923543 -0.6882573196930404
Ni 6.5813666161165685 9.362437843777721 8.27773345903214 -0.20515192078342728 0.6072027783128704 -0.6630782493242515
Ni 1.6795157715040532 0.4328044648008951 6.653268106205825 -0.6296158559007479 0.7804835614193139 -0.5752521935482028
Ni 2.0531360985740803 2.0479063597989207 4.7103227890760815 -0.18283654511567865 -1.084520624006429 -1.8417249031828282
Ni 5.272828484535521 1.1047544984929683 6.1880142250154435 0.38049498573553825 0.782321385959001 0.30489735370488136
Ni 6.5327875355437675 8.337149411425028 6.003565789257084 0.5855440623925142 0.06408191808157351 1.2677351212868166
Ni 2.0719965394759847 4.362343945401352 5.496499033848927 -1.0444229846545947 1.4004780921802138 -1.0155320126518572
Ni 1.647840616085712 0.3614472755380605 8.862523961580836 0.597302745590339 1.429636973132357 2.734827925272787
Ni 3.528812601471169 9.10234179299187 2.6464026724248555 0.3813851016499754 -0.37551810134623714 2.3552443956079245
P 5.895844297592578 7.512019030846431 11.315005323898568 -0.1929751762115773 -0.7350166873357664 0.5972343542462489
Ni 2.7078641573954023 6.926918823909277 4.002902330319085 0.540125782158715 -0.28825511716251 1.0459193666944633
P 2.578001583732093 4.878687923583529 10.251879175152409 -0.37426623121700703 -0.4787280957775239 0.8353488459986259
Ni 3.585384651590401 0.4480105793707245 11.566252545405812 -1.3891526398650655 1.095542171927913 -0.5415308900363577
P 4.782698108334506 2.67069035819396 7.9085519191104625 0.7746147613433627 0.7892281403811633 0.3481348242372778
P 0.39355731526235 8.174489699379205 10.192558730400274 0.22158615508005064 0.7840918475958625 1.3351054803116749
P 2.321948380651863 1.7622086977396398 13.029068898112707 -1.7484414238366337 -0.305592579999693 -0.6142046635520002
Ni 8.886438889373412 8.380906747027824 5.678585741830632 -1.4449954578662987 0.7333925214687822 0.0062606361977311535
Ni 8.199173324591037 3.812572292955967 5.232820982905551 0.9658022495268979 0.976605253679673 -0.9582987420610012
Ni 6.64471692695325 6.2666735761318915 9.235709404344915 -0.23934347906347164 2.385459228628408 -0.47598550003538026
Ni 0.631057927311838 3.5689072654140572 3.377696332335266 0.6671236230382188 0.4527743520262396 0.7051597518753339
Ni 9.201419379538994 1.3736595064355586 13.477901955904278 0.70031322241631 -1.0548896885138734 -0.8239457463680068
Ni 0.4993222911794112 2.8062184821970253 6.508325525148825 0.9505990594238983 -0.8166314720947806 0.7139266994346866
Ni 4.1232503029944665 5.867396002269549 9.013573468094078 0.5069593227090753 1.0470599080568097 0.3289320260565819
Ni 7.234991237146677 6.653748426185529 12.737977372497557 -0.09637317401511143 -1.3191055053389928 -0.535471056995523
Ni 5.684911500327819 5.350950025636084 7.149599988245185 0.5191489227967317 0.29893239437069813 -0.17219089247637442
Ni 5.339897102550994 0.0908852563913551 13.015362160776819 1.8753875855425959 1.0223680617370845 -0.9183283723156507
Ni 2.955414398672759 2.1149564326414336 2.342296144425284 -0.4973999611554143 0.6472130001572208 -0.3391187367815966
Ni 5.553185136781873 7.756685497728265 0.932874126450657 -1.0788359149168258 -1.57007679844938 1.3194505473832374
Ni 2.433525413775076 4.547702949152124 8.089824493999155 -1.772662758277844 -0.872239034156756 0.050894472857022026
Ni 2.9899269655542184 2.6396457386563115 6.554223900970032 2.0719296531698252 -0.8036566571016674 2.51863620173543
Ni 1.2856626607329662 7.207377474606918 6.737234158565223 -0.15882372714084905 -1.3860338917304258 -1.2924678481468064
Ni 0.3192347528429623 3.7160539402775385 9.845904939333648 0.697078003308464 2.4427336368698445 0.8076351821334412
Ni 6.28593273825247 3.292361646211305 6.054933136584656 -1.7172395443125326 -0.8144874291685844 0.6122375125233004
Ni 2.1346328611536465 6.160808456280837 13.288689265212096 -0.9599393629882177 -0.9365163560785872 -0.7263451277036975
Ni 3.93259665236317 2.863068709910681 11.720517784910587 0.013345053848338307 1.568968910097182 -0.7842417429101655
Ni 7.671220068134924 8.243857918841911 3.655692184063612 -0.08960423072239407 0.254156118596272 -0.0033113237614201033
Ni 0.7717443911741608 1.4264761590300756 11.077126390320664 0.009511539034861039 -0.6135868274623433 0.08849222860513792
Ni 7.808074172004742 3.1095062408103438 0.972452307326566 -1.3639033783799737 -0.14263863274055433 0.7761134573760763
Ni 5.9006938603220265 4.181602689718009 9.574396189107254 -1.963113625405671 -2.549669931112783 -1.5294363992201983
Ni 2.7329094134799865 7.736072537981493 10.515407937453444 -1.0742704070333307 -1.3089409061011652 -0.835807273692283
Ni 2.879258645906121 7.115309963439263 1.6734042097545714 -0.019996754836901047 -0.6838885012013834 -0.32994426937118015
P 9.490770440671703 4.967472939136988 13.296221387210432 -0.7187184643963751 -0.13978342267994637 -0.256193717851591
Ni 7.158232766258791 9.144318791990358 10.511268654848426 0.5619462204679161 -0.837592390617164 0.6985221919541582
P 6.819393911078165 2.1014091837930153 3.1966945169718124 1.281184304813187 0.12760873499062542 -0.5357603061011676
Ni 3.8802899920250957 0.7155348991863268 8.01813998243355 -0.08508063182042766 0.39992044145000155 0.5248601142488961
P 4.475117142180586 5.7862515979762525 0.37071244394965486 -1.0164131297052301 -0.01639592485952015 -0.7148857209138463
P 5.404109763930389 7.570825774307531 7.768278085346534 -0.7284403196698294 -0.35990610584059307 -0.4088637666862184
P 6.465431467347388 6.43294959690522 3.1144791289399856 0.7115898237713939 0.905174608542512 -0.8787259274326802
Ni 1.0406531081513433 5.12903848597808 1.6916980956225003 2.627684143004733 1.0133522313917191 -0.6472577373522271
