# total energy = -340869.7701814489 ev
CRYSTAL
PRIMVEC
9.24652091085794 0.00000000000000 0.00000000000000
0.00000000000000 9.24652091085794 0.00000000000000
0.00000000000000 0.00000000000000 13.53321800569603
PRIMCOORD
 96 1
Ni 8.376090317089886 8.227914821285479 2.3202969637017037 1.2375429139741525 -0.33081175957779796 -0.40335594949411174
Ni 6.792753081547682 0.7511143021986495 2.1070546256866205 0.1488658445971888 0.640805039748348 -1.260751747990448
Ni 3.057953879529449 5.911263760734831 8.392462206816644 -0.5867738210345572 0.06750868437493535 -0.907305795952902
Ni 5.106372618221119 0.8159999126016625 3.782615735026242 -0.7950984831190113 -1.0013174117143724 1.6399113027440144
Ni 3.1478393082167915 3.8960400317116677 6.718200233649287 -2.223301037797687 1.0049143850370112 0.5607951375826083
Ni 1.260615166614561 6.938496742381948 6.653187021259247 0.6321177963869953 0.13457873855055533 -1.0376825806069676
Ni 5.813981115408266 1.56494590567294 11.916837410359339 1.6125339391723261 -0.11751715508257825 0.9023875327156783
Ni 6.205848666871034 7.823222345474459 7.936244418505127 0.47338508629805576 0.5875924602811106 -2.0077690593315163
Ni 4.225086720865846 4.666626582060988 3.425676915881798 1.1255816557127971 0.9609582911710353 0.35831510720438936
Ni 8.621067639139312 2.122011797731127 5.53413886203403 -0.345785864389127 1.2863000287731976 1.9677063869826759
Ni 0.7976649865092715 2.3901609009029126 11.27139789576445 0.8838678766449359 -1.0495569634470505 1.1607887997415491
Ni 7.995031948441182 6.931321442241902 4.32436384072876 0.515556320349467 0.17415521529159683 0.12778202734369606
Ni 5.578897570613801 3.1880616736925598 10.175815557023004 -0.030967652026107958 -0.2556995518239919 -0.12958514199070584
Ni 2.487267862334295 0.6030608604687873 2.324370980765755 0.06929662951329356 0.5447475972014425 0.5916514608418326
Ni 5.587922174913651 6.155649305453117 12.553277286260533 0.7771519259429196 1.3075761645431543 -0.7214055243102351
Ni 5.682042510126949 0.5646924224132244 6.515662592763237 0.18232001049057633 -0.19465770612032282 -1.1851132354195266
Ni 4.097077886924115 6.652011788465691 1.7830417424554326 -1.3906953017618373 -1.6038397538324378 0.4308551833556451
Ni 0.36416774910512306 8.044020015634427 9.008359087458642 -0.5704442306365982 -1.6712615349205215 0.6761008868361645
Ni 2.323770881565898 3.1797305584526363 13.497327642147521 -0.6790586839129079 -1.2240286815378016 -0.3101326339618917
Ni 4.116356882790086 5.349482143069141 10.565585997568553 0.5869730815295569 -1.4475614188212618 0.7678180501365034
Ni 5.279143859350941 4.55778578573564 0.5754368795816939 0.7556148232020923 -0.8060827500446568 2.339473248816597
Ni 7.033717413570329 2.7403913692076625 7.26532149258812 0.0246746199285446 0.08265762420123184 -1.0242642503185326
Ni 7.0576566559190095 7.484642493376484 10.02056277419902 1.365197414601049 0.5058938575590385 -0.08055266204308707
Ni 2.039458860037413 5.3024635848060875 2.882291251345772 -0.5186987226331906 0.0436259642200668 1.077996706844982
P 3.660484914356452 7.208097549319181 11.56847843786431 -0.22654504174722276 -0.6529000232396691 -0.3490920459442246
P 4.541132801776593 5.872835220294074 6.422580641835671 -1.1891228707995523 -0.2512379165082125 1.1843272491831216
P 7.206664338595331 8.07041883251565 5.951977116465026 -0.11277115575716062 1.1095269162427797 0.29689042424000484
P 7.212008827617169 3.961468412885583 8.997573020946575 0.7499486260552504 -0.09394605263085756 1.079910121817611
P 7.175429591336218 5.672342909808769 11.02618941069505 -0.19748643381836958 -0.4718334255402197 0.8595195297075584
P 1.330870231645569 3.8502882467980815 4.781976004376772 0.18371354840399326 0.25034882903503985 -0.01708446628611251
P 3.4410372362331416 4.19843824792305 1.5328262663733596 -1.3930764003995042 -0.4089195596248183 -0.5366951592106111
P 6.480433348518944 2.2064880117510386 4.887439971306314 1.0616244361345457 -0.8173773491218698 1.70300154633628
Ni 5.000842076341822 7.5197700258919875 4.939502506665238 1.153178077273827 0.15525529306330035 0.29547477483940077
Ni 8.449951525232516 9.277774039327813 7.354492165217697 -0.7592845587441956 0.8242730478004386 -0.5243836888331097
Ni 4.882523596197473 2.4613776040970197 2.1884434264117374 0.46825162172623225 -0.426720078141349 -4.097058543936027
Ni 7.811386798851704 0.36400593499114015 4.369686587077272 -2.4840006139394317 -0.7343080913045159 -0.9043533981927973
Ni 0.38483834635134817 4.3109036804016165 6.86633504476218 0.23177260869474922 0.931335840318912 -1.4546970014247784
Ni 3.870843262534319 1.2759366515785489 0.26003158256232006 1.0146128432716979 -0.28191734786994027 0.12328131125986509
Ni 8.407583966931373 4.500965915425619 4.755910986896394 -0.4272744079829222 0.1306125548139557 0.11425236828837743
Ni 0.8279279244324074 0.9818787971278891 9.093740535864779 -1.8032180053568816 1.6477410832010784 -0.09100496772466263
Ni 3.038711869746674 6.068630298213472 4.879212417099341 -0.30563937407722847 -0.4612474224942573 1.3197092003612627
Ni 5.2556946826046085 4.756502764227532 8.347695176368156 0.588900894679889 1.500227895977042 -1.182278337073893
Ni 8.387417305068695 8.399474768190627 13.268900667676277 0.49264264897608706 -0.6196651724459393 -0.3314303669984034
Ni 2.1300377777846826 4.170449029464395 11.145051586262383 0.8030971850537717 -0.27689752605784573 0.5102662755951213
Ni 1.2535323316825062 5.137505653751443 0.7751219688012435 -0.6166551819750218 1.0170052547632744 -0.769776716524771
Ni 1.3146795737264725 9.184328700132847 11.232489460894223 -0.5608866688551502 -0.436477414638429 1.2049510960810603
Ni 0.4706784221891163 8.94089554705686 5.1923033099627185 1.4126586934068057 -2.0797568625237277 0.975413804474733
Ni 4.297893825637385 3.378872876901283 12.147917211647824 -0.13822199173009742 -0.25628730600666183 0.027976173497951822
Ni 4.796789855348893 2.4104662605775764 7.75734828199803 -1.0379882847728448 -0.9878600006578857 0.7451409202539618
Ni 6.085338761297314 7.483523664359801 2.4080335009553524 2.0652416996266885 -0.29109361505256964 0.3873019813550426
Ni 1.3812730165210656 3.699144617817185 8.867844334136226 1.031638688405733 -0.5328865840977984 -0.055898610939832755
Ni 7.938128859443968 2.5691735435720777 10.746079008217642 -1.3794133010901148 -0.20871624109591796 -0.9569651108512423
Ni 8.74711621067165 5.61188915682473 12.643747095062375 0.04991591099383661 1.019574301042031 -0.09504699900452018
Ni 1.364277911292454 3.1435859086492393 2.308252445708891 -0.9327918560391483 -0.8762710381342843 -0.7313994022981533
Ni 3.3787804116932922 5.369075520642279 13.089869531965514 -1.0515649950160149 1.5942415686210416 -0.4216526909207706
Ni 2.675517779281688 8.490229369833077 9.501144091574073 0.3974344418033542 -0.8321701911603282 -0.6637451934842892
P 3.5617413187436417 1.1070119631011228 5.486894688663481 0.2891951124782761 0.3023571037815309 -0.24782297728939257
P 7.728843107678789 6.530623463416063 0.8364458193924711 -0.9215620487616001 0.5183153711518428 1.0543083620891067
P 1.1483993901975682 7.293711085397373 12.722496938751448 -0.009229746128384106 0.510119979825244 0.2531767854021381
P 6.224036573282722 5.5091972968307354 3.602217963541383 0.8570137325665691 2.998877391723371 1.1209652399867083
P 0.12389043357784453 3.6088800817770816 13.19082766930969 0.4440932793124739 -0.7633268471343692 -0.6753233852401918
P -0.10723097705423741 2.422264821117135 7.708060627530895 0.13750105440367286 -1.1549207709965463 0.307701913033212
P 4.473281832153331 8.842595784442404 2.053584769862087 -0.49553051204684334 0.4464083005988957 -0.6895768098354124
P 0.08209893352248174 0.948110503169842 1.970409541318598 0.6943261515949396 0.0015709440315456815 -0.2925051506881156
Ni 3.683934091102785 8.043382005699295 13.58450846350115 -1.7117039592062844 -0.3075273351285607 -0.797141481690969
Ni 4.880766757245657 7.212304716282738 9.567375995405422 -1.4114577311201693 0.6991647106341636 0.19799551224430414
Ni 1.221021564553127 1.6845126661251595 4.428501856575723 1.647003947924738 -0.16318277544049314 -1.2995023863960844
Ni 6.846429134786034 3.974959086731364 12.578367720448693 0.8854732734588427 -0.2272148141207377 -2.4590593706130615
Ni 1.7905332736068043 6.358675162637355 10.546098030332523 -0.4604046148779878 1.6363235853927558 0.1948957902730579
Ni 6.333589351709594 3.530894925358087 3.286663797537145 1.5577033644856915 0.22981574207869457 -0.05869314296583441
Ni 3.211372152626907 2.568378342783361 3.459631989559986 -0.7296189133589628 -0.14389693062768763 3.156030930250649
Ni 8.427639670544464 2.6191972210948142 3.1945702996829946 0.6543547534083247 -1.1786962761495894 -0.120911782586424
Ni 1.6806291273895682 7.6774232055153995 1.8933647560648645 -0.22652087337750665 -0.7753133300722841 -0.5464645798925493
Ni 2.9387199938259947 8.517784001814178 4.484029063278041 -0.5042635210444669 0.6707938728009544 -0.37832317489520007
Ni 8.786774538378676 5.531832779746754 2.589500170244579 0.6836954113539708 0.9335145931377857 -0.3061759633069888
Ni 5.795848688121374 8.802641568069808 13.36049300410312 1.5928901967994695 0.1559777730516217 0.06249837564453752
Ni 4.440660106774364 9.142589905246037 11.04529827057832 -0.09305259428231072 0.46955877057343004 1.2941249241342552
Ni 2.8960195607760877 1.6390012907523481 9.58154536387785 1.3064045128325565 0.13338111869802835 1.5293669794348435
Ni 9.12449446404234 4.819564036076897 10.27268673217401 -1.1778912637497907 -0.05842549112674454 -0.12678495353774938
Ni 6.76606762252169 0.9190773525129768 9.099478926672655 0.15235560291800213 -0.43554153308772087 0.574296514503153
Ni 2.300543621318742 1.6497272548792195 7.188453315881648 0.1332242814051899 1.2563716166448815 -0.694368831907417
Ni 3.505263569703184 8.546993761018305 7.2444400746676765 1.4701354474670358 -0.5086310539845434 -0.9849145448763167
Ni 8.419077392284564 1.585389963159589 13.316658947603253 -0.1409689583476153 0.21613978725349875 0.2430147572674718
Ni 4.974628189876581 3.768031197769936 5.555128464247822 1.6632252948796067 -0.31606494028592663 -0.6989690496835897
Ni 7.808021065280858 3.930659005583225 1.2880005872650395 0.24314485508743286 -0.1713948789376403 -1.184999592659798
Ni 7.90713452172563 5.781951167360436 7.94952057306837 -1.0861247352687553 0.010950328363916625 1.0825064217898777
Ni 6.618409931882026 6.000464946883046 6.110897069437906 -0.019743758285830512 -1.0872765894850114 -0.8751878323724347
Ni 1.590494042640652 0.362619881523366 0.21633529922235772 -1.1213799589266236 -0.12871842311503637 -1.0417014719583737
P 4.693524711065359 0.3861060443528948 8.999332633854632 -0.012785324690126366 -0.6907222362937653 -2.046304753512869
P 3.5738912470735635 3.594501741934595 9.234634396539953 -0.2035920324954752 1.9099067023653882 -0.37219340784837834
P 1.4529243061927266 9.011159858608666 7.295757340450197 -1.7437820706877518 -1.1264877124668342 0.11830134154677044
P 7.295717580410762 -0.1760084480615608 11.399056286567898 -0.34685595752485426 1.35353463355114 1.0118090552743155
P 2.9716098683081342 1.5504751006224626 11.882760282606602 -0.8804994743933353 -0.12491858975297195 -0.10927625523002471
P 1.3256736869565158 7.013587737790847 3.9317112596501547 -1.7989533165432567 1.591009434836989 0.5307194012431505
P 6.454700281135252 2.3884133084718964 0.4630805560485557 -1.5616597780302781 -0.86326974077861 0.6592912714779936
P 0.6495320247005378 6.020455924850542 8.433928229339882 1.9072936902225732 -1.6391937078516994 1.4366802531323837
