# total energy = -340890.99648932565 ev
CRYSTAL
PRIMVEC
9.07849656570145 0.00000000000000 0.00000000000000

0.00000000000000 9.07849656570145 0.00000000000000

0.00000000000000 0.00000000000000 13.28729739240492

PRIMCOORD
 96 1
Ni 6.408991805659228 2.047709345689122 11.523634228841953 0.6725239681181837 0.4230405724072327 0.04281529539331336
Ni 4.688480550590534 0.41482464622314463 5.981104110891543 -1.188176961946515 -0.37991571619330056 -0.3153684284395343
Ni 2.8082785429341413 1.79032489278327 4.7849949542195915 -0.3643302030502177 -0.5488225386017646 0.9899739616770952
Ni 3.3323165936231636 4.584804121110628 4.981726880180408 0.7534147302269798 -0.2040013521187519 -1.061528791096946
Ni 5.0454651880694215 5.023822052528256 2.4644876843487005 -0.09884400415310719 -0.9268258682637006 0.4422271726380126
Ni 7.406046756977984 5.726434128424789 2.7197768202734696 0.28820395220960043 1.7595203073586148 0.36834318086435275
Ni 5.215623447066084 4.8362240018476275 11.310785248130202 -0.7622181874512228 -1.398680891070475 0.23804198664322876
Ni 5.742566616619692 7.989676058376824 12.49663661166123 -0.5535667381549692 -0.9129809919608084 -0.18784762517702489
Ni 1.8022994296032349 6.714937136085921 0.12895459500038378 -0.33841194052255913 -0.6037955524035343 0.10487992593454196
Ni 2.687543618621245 1.742926062808262 0.12825918217217352 0.46364600463342087 -1.0538414497550173 0.3962018549478338
Ni 0.7330014349193902 8.763581566909581 4.457303901241828 -1.248790976084146 1.2269204012633 -0.3175530947956789
Ni 8.573468772711795 2.1179224372475804 1.647186054926546 0.722477160107859 1.0563220500850259 -0.9392802919769694
Ni 6.748663750404472 0.9106004296079732 4.924883690346561 0.6366460232746519 0.004875068704114184 -0.12151496338806168
Ni 0.590183975837061 7.401952355078208 2.405399382342315 0.32407032708890643 -0.21186070026217063 -0.546336024734485
Ni 7.922749382533927 3.548965832949651 3.8311400282668715 -0.6166808930066348 0.08146051856933713 0.27531424073112587
Ni 7.661288684721204 3.8003584781972948 12.663192523265804 -0.5309037493398147 0.25439420274900704 -0.3120445062726239
Ni 7.9283145008588995 8.938369859096678 7.0993497270450785 -0.09061673114730845 -1.12729555308011 -0.9804457104716856
Ni 6.958794629278546 0.3542692591901436 0.7688233662190237 -0.1252867717256681 0.4105668654202542 -0.4000327986581497
Ni 2.005621436138435 6.396971876357003 9.305359907515127 0.2275724545704726 0.5403145011307533 -0.7964187445923316
Ni 8.933957709821088 4.7373773324800945 1.1925204270245424 1.1534336449280589 -0.03900774872176508 0.3824801344863671
Ni 6.5363086398997 1.6353186443647132 7.308438394526481 -0.6428719495797057 2.181370201891856 -1.0007656529759603
Ni 3.4520710403192623 4.419094325375363 0.5095278898100616 1.6347480133755201 -0.3436166246519501 -1.264348464202771
Ni 6.0602322859657 5.409104363447499 4.860067764928716 -0.17374538144768786 0.078631019540342 -0.7292409611942537
Ni 5.413425727758571 2.7239574678895377 9.277775803895885 0.3619131089682928 -0.1810599128312301 -0.12266373228052423
P 0.08980267120221876 5.636557013551665 12.361425116906245 1.3818689617194588 -1.0731082684044293 0.23931725381122657
P 3.998414956790433 6.130518005495772 12.71320596021894 0.3673242526815351 1.841472677962706 -1.1731246955990828
P 2.334726011013749 8.531535197600789 1.3148005114335404 -0.942968282351518 0.7804930745010107 -0.0034270234036779686
P 6.261847535167956 7.913353138706282 5.718334293890465 1.2813326574655932 -0.5428467806343038 0.5293562023470367
P 5.050512832096639 0.9991066915168705 12.759804974656541 -1.5415527228677581 -0.09221981396837022 0.35752783541640365
P 4.136199297439867 6.1313986196516 8.105224437666788 -0.9492024361866879 0.2623396828483288 0.9790719700526106
P 4.544786108750959 1.3018019202138091 3.5732462717100724 0.3687226756909585 -0.6708044143239157 1.0973278030734261
P 0.5037022186369219 5.595776407490042 3.6274848409118894 -1.8649903014686722 -0.3000721644020961 -0.03393290530201898
Ni 1.7058585617954376 1.2944301810949226 2.64442439187363 -0.8063653142820822 -0.2684133998462345 -1.222371862660669
Ni 1.8871924499243036 6.682490589767078 4.90871307246656 0.8154143118582279 -0.211673523952029 -0.8082674164008016
Ni 6.062229555185103 5.56690678877322 9.30731359995156 0.15512982322902963 0.9168443315709566 -1.2353829302083563
Ni 8.611607536305936 2.2044949794122375 10.424004069662898 0.2631223266506243 2.2972701330859855 -0.044262312252485066
Ni 2.1756525961847717 5.374615155426994 6.896838430243027 0.9691436551953051 0.16437499597638144 0.9680928453332875
Ni 0.5556902285683303 8.991179472956977 8.909956888751383 0.6639292844706371 -0.6189506628774178 1.0145724769520654
Ni 1.339341503042129 1.0708994414579476 11.283718618808713 0.8121569812631948 0.11969822189429709 0.6392976019648862
Ni 3.954583975920994 6.902589657745261 1.5439172499373268 0.7292353047672989 1.2266743466907648 -0.7959744579660614
Ni 5.472463190184826 7.905636416722227 8.279859303263848 0.9848099009776523 0.307320104213761 -0.7706112966109244
Ni 5.117539371400505 2.9839383707806126 5.130862972793211 0.6290805522225682 -0.6337517324459925 -0.3556280472905295
Ni 0.712821753006261 7.6004899939832935 6.786061708688144 0.6180260941806195 -0.909269347437176 1.7002838902948008
Ni 5.117194388535335 4.382090373837701 7.260670977595528 1.8151687499608544 1.0188222533673552 -0.49340729505625347
Ni 8.144863876724417 7.086592623830966 8.97661938034753 -0.07101875441072285 -0.07501759115747081 0.08582496618561994
Ni 4.895824331053896 0.4974407796340943 10.397203440287448 -0.6476408317232587 -0.7332030311657953 0.10452974168397482
Ni 8.303138383865633 6.99839503080143 5.1524153233698575 -0.7665286419011186 -0.36309813041532946 -1.2274929859373183
Ni 6.9802834303800285 6.115738213272192 6.989344677688601 0.14711158091024343 0.1245504077802758 0.2588447823211929
Ni 2.2580127159957795 5.39606764254267 2.241128528294665 -0.9126035540167315 -0.11932849725970417 1.4890507963143
Ni 2.5724555191013874 5.255514360475428 11.373581208087515 -1.127035357440188 -0.22857672746527088 0.4299930924656659
Ni 1.2627825424638408 3.5079128719944728 3.669194177160535 -0.1477427867363391 0.1030582993447709 0.3447445676088063
Ni 3.4871140366233284 3.012172494745806 2.719391892023912 1.0162776325686302 0.5927696336066759 -0.25681078261029966
Ni 1.1690924590809482 3.3193797361793047 8.27704315366449 0.017222277415557437 0.9530436643096492 0.7915596167278175
Ni 3.578080571070672 2.8725633763095537 7.175180592207929 -1.3851450613675693 -1.2611960346167184 -0.13692332752333192
Ni 4.3075559179681715 6.77399275550508 6.025949159814651 0.01249144759879139 0.5761441092348529 -0.4551101992482678
Ni 0.5569403375297474 7.482115478747873 11.206161023620723 0.44726010707622965 -0.10672083579802265 -0.028917711475614713
P 0.3944706571781402 5.5546598970597 7.994023750327605 -1.63321589300171 0.4672499199345953 0.6970952296996445
P 8.650018654793632 1.6998939896265846 8.266399524424365 1.0364862463060214 0.9158305455944615 -2.0644197179460253
P 2.155852395423329 3.304890455842183 10.484155463603791 -1.7919516884144429 -0.540589609169011 -0.4093311932409402
P 3.8267950598650256 6.378796726460438 3.74417438720585 0.1472933579037463 -0.3762410955551907 0.4767709720511531
P 7.002625610147984 3.8861411911706427 10.372755049342668 -0.029345543041652683 0.43193993177939155 1.2727490295616404
P 6.386822117323857 7.976439610550053 10.237477281563583 0.1840958714440765 -2.0063348979881512 1.0610901608976306
P 2.280999469011815 8.78609623811012 5.839155463919654 1.5268588683010091 0.14091650784312507 -0.03686987644315586
P 6.827628512542495 3.82111192108618 1.8260070152375454 0.8930492860338879 0.8963469829485531 -0.7915696440301465
Ni 5.260997772332334 2.7994996368652205 0.7945618115096088 -0.41217843288174827 -0.2608615556409056 -1.2277889199111822
Ni 1.6186232893897965 1.2800679997081263 7.195550014696902 -0.21905747512092594 -0.20284152748269582 -1.0140885953371117
Ni 7.249805833041978 0.6536717172240033 9.370334706620879 -1.8772416080321992 -0.566050986664909 -0.3985143051310943
Ni 2.9296671189915693 1.5438255571231634 9.29749429818926 -0.8959461479657086 -0.17227959553543878 0.2793956098893511
Ni 6.426794737201267 1.9128210454078214 2.697905814471364 -0.5146901156944297 -0.936042244655646 0.645981698853281
Ni 4.166884615447055 6.887737237550066 10.428468874217907 0.2802564152277496 1.2768861916584655 0.05052860487717104
Ni 8.16298455564227 7.082461907945383 0.23401458733954916 -0.9906229081150035 0.36675449622099415 1.118199504316113
Ni 7.706517754044223 3.839150893535967 8.377839884069877 0.42169948499830595 -0.13874521122341912 -1.5257954600335013
Ni 3.063729276095753 8.51155342691031 12.366953013395763 0.8125871268220779 -0.05131279134136324 -0.18172325744684187
Ni 0.08527794857062634 4.855234373417761 10.202917261270755 0.5835450296846144 -0.3504868694092222 0.16834246526456167
Ni 8.731153177583643 2.304040693006561 5.905353136497467 -0.12999806115840837 -1.5132430772897874 -0.006153421195905532
Ni 3.9216653477866563 2.618120356254096 11.419847041705333 0.5122568236625887 -0.021155808142008726 0.7878608277199914
Ni 1.0212854583486928 3.46922032011677 12.545082192277134 0.27361371310025134 0.312554613139823 -0.9974466159050563
Ni 3.1860710942806234 8.360932092277986 7.801304519798498 -1.027593828912398 -0.1876627628597284 0.7482779232210468
Ni 5.4583552066986805 8.100379244110448 3.621718179965687 -1.1711223204570733 -0.4931188172815572 0.6947673528974164
Ni 3.018137066914659 8.520341411475682 3.526143400719394 0.3752301377921731 -0.14734246597412687 0.40345827939993095
Ni 3.745015963826935 4.321373389567857 9.355519508261137 -0.7927371819756863 0.5808960220975415 -0.48377697105534107
Ni 7.376042326204684 6.180967210278596 11.32273073376152 -0.986168986108708 0.3919801035570023 -0.4543144428198499
Ni 0.345895254062975 9.036826153116781 0.23343901066450312 1.350695621440448 0.6111231964131991 0.35781708452204825
Ni 4.413075282227799 0.2862050477418334 1.6210635892360483 0.3524285665166253 0.598668258479298 -1.0508908517671254
Ni 5.98158527120349 5.441805107666993 0.055887224157469696 0.42054248857572735 0.8684168321971882 2.4515144683862684
Ni 7.9188547075560916 0.045798291050550256 11.445824251452603 0.2568310943252738 -0.8222588455838871 1.5627316709382184
Ni 8.913285973400269 4.5852580459332195 5.972135464246779 1.1678706462889952 2.498337085166762 -0.023082335740760247
Ni 7.635369577351227 8.537064001939955 3.1010691320021326 1.104719467551807 -0.023765992071346168 -0.36066458127317236
P 8.629637430259272 1.3622193141007422 3.6599459128250555 0.05136318496332445 0.3436125108868921 0.641132855401412
P 1.87730596728826 3.3541594560862684 1.2622124128866659 -2.172939811736316 -0.7413274600451426 1.9272158830677972
P 4.600228486582289 1.052324837717502 8.059875532190604 0.2709734472639269 -0.30508170180154554 0.36799093973125657
P 8.59148958816868 1.8129485059412322 12.673742643992478 -0.23273137306359273 -1.048048240112008 -0.08069073028284814
P 6.293794764181947 7.502024621466737 1.62154202599906 0.2228657931234226 -0.6691992746203249 -0.7327813702473445
P 1.7648052392571743 3.412125655931207 5.983921168340546 -0.25102374361487734 -1.1966199505075457 -0.12153707487524876
P 6.960583093079556 3.8117429127478903 6.104489956168374 -0.9848147860736589 -0.5549754455770378 -0.2578554218247301
P 2.289533255676536 8.52007813507858 10.158656867519143 1.031876772558468 -0.5382622465874148 0.37373555552451765
