# total energy = -340891.50400190725 ev
CRYSTAL
PRIMVEC
9.06175118201851 0.00000000000000 0.00000000000000

0.00000000000000 9.06175118201851 0.00000000000000

0.00000000000000 0.00000000000000 13.26278883073533

PRIMCOORD
 96 1
Ni 6.740683285765275 2.0922314802324644 11.54145134815984 -0.7244615375277395 -0.1829987817251558 0.5029607430726434
Ni 4.673172262719795 0.2760245652853484 6.030404199520422 -0.8667301885233848 -1.1274783585148775 -0.4332154560577055
Ni 2.8293868142672287 1.5940798332602824 4.771420675061074 -0.03995777133986021 -0.14243114471543858 0.6810435755534207
Ni 3.162940813019326 4.516141176725198 4.699668823135756 0.31230444480222985 -0.9201407429340411 0.6022130384077629
Ni 4.710805715321535 4.776884004840411 2.5221182371288724 1.862693020794063 0.03139265537866851 -0.19389665958458221
Ni 7.501888507400573 6.138955822940001 2.5459116771713455 -0.7580391163728687 -0.42450275877505594 -0.10554301343983759
Ni 5.192283740144139 4.486427694644509 11.614410225340768 0.4714683288913171 -0.8070160604922036 -0.8453977455941957
Ni 5.491230911184691 7.935112707252247 12.282907389299057 1.1596048067357771 -0.1232247469903168 0.9385339007292481
Ni 1.6483506610069287 6.847331035264404 0.36539789853244325 0.7500447853134825 -1.2699534690943741 0.1988151799321221
Ni 2.8293596290137235 1.5585305834272394 0.4504678061497363 0.16028385662614328 0.105733789294405 -0.3984171174315977
Ni 0.25867403032350106 0.06886296565287876 4.64911150101786 0.9561215319040242 -0.16752408312832437 0.4332612216939764
Ni 8.637461855049764 2.477682127925127 1.4901941055172359 0.6533165419517973 0.28013197383474336 -1.1763969385924513
Ni 6.854843226982883 0.655335876561522 4.917046641035311 0.2767129208508654 0.2398687554393224 -0.4559154687583826
Ni 0.7758064212926988 7.696543984245742 2.5127284505683325 0.691149553639171 -1.0984038097464244 0.9369652706905477
Ni 7.647710207200045 4.009652718678227 4.065349866058756 0.31421143201695567 -0.5158633100669245 -1.5162769790201047
Ni 7.805774332827822 3.9947098910017833 12.76189343255039 -1.0163735347165463 -0.22691476638181565 0.2883109101011099
Ni 7.647383984157988 8.82250281390542 7.259851852221978 0.938601777852706 1.2782681596076566 -0.554907825563896
Ni 6.548311370214506 0.5425632894477732 0.3483300902070452 1.7625094718939258 0.5498260401656144 0.10847175705085835
Ni 2.133743362334216 6.290513611228974 9.21956156484461 -0.6799338874290096 1.3741949901139687 -0.2070879614638756
Ni 0.3230160883185401 4.917603938732158 1.4222617817093361 -0.722537323921833 -0.7728355579557529 -0.45804434217592727
Ni 5.955111015238554 2.093690422170553 6.8622330850605895 1.454833527002643 0.36226997808707934 -0.049607378614482306
Ni 2.929265435643675 4.473659687248445 0.43875277423942327 0.7359093743533649 -0.5536675253988916 -0.8188202522159833
Ni 6.113854772203949 5.817372397481161 4.633819795921438 -1.296311904483245 -0.7411521108095429 0.4175875197124615
Ni 5.413653259433307 2.56059715111461 9.547245361189916 -1.3406639482360587 1.5374572126421457 -0.4571634822328708
P 0.2799999555228595 5.44391950833526 12.483401352421929 0.7066160247058862 -0.2245030716165295 -0.0834415535551079
P 4.057399085583734 5.99483773236016 12.709492044069755 -0.3693446255456736 1.1156957640576526 0.11968202394438097
P 2.5725224156520268 8.542974975618426 1.2310905481883596 -0.4678502725227556 0.8943510355644468 1.6797055519228168
P 6.31144625642763 7.676653440431434 5.709245770191373 -0.22593440474641735 0.9427818773723247 0.7859240157085948
P 4.83776991093988 1.2210619081704581 12.597262255850984 -0.8797962776787236 -1.0248969988065253 -0.5625422021807021
P 4.0733930763956945 5.990932117606644 8.214069655215642 0.6041742758991918 0.31758523358519497 0.8160051513646914
P 4.923258471461146 1.1467827338443164 3.831659083706119 -0.27299767678280723 -0.08396297327621668 0.4783460298477568
P 0.28610666963514286 5.649168172296112 3.576868013758213 1.0415230373989803 -0.47133308886503344 -0.47477296778451783
Ni 1.6384642904823685 1.047121594495908 2.704932723722489 -0.40454225649272907 0.5812960857494376 -0.808324494890982
Ni 1.7985491866206649 6.648597770393523 4.8087161243442385 0.4081389727050519 0.7700891055588673 0.04966677109750801
Ni 6.26331023422189 5.5285381407443746 8.93919913927502 -1.1561279039307701 0.509626070907961 1.5636739802468296
Ni 8.854273313501304 2.3068046861454454 10.101218301533631 -0.38566341731035514 0.532879642119263 1.5643974886764154
Ni 2.3439941129399413 5.124030630344883 7.086652789792991 -0.32901430135774307 -0.44430796642644127 -0.5875639210360204
Ni 0.517964259726443 0.08943948403062302 9.296312784889452 -0.0904516663243539 -0.7232842293901867 -0.5186362448263714
Ni 1.468900802622083 0.8715900373162133 11.42057393080121 -0.5548677163545799 0.5855831431605657 1.249286427663326
Ni 4.091453146474016 6.90833474412906 1.7219076137649607 0.47687278773633995 1.0325992525467893 -0.9437336997626328
Ni 5.716515106978543 7.712592345564711 7.970379230448841 -1.0257086960745432 0.09597182481163473 0.3344210741956112
Ni 5.16546095668612 3.2428292113186137 4.5138974871359405 1.4432676765419143 -0.28926273249141793 1.2674952373618686
Ni 0.6331726455542173 7.453797793950672 6.95677071029847 1.1007280870042269 0.35348400436433314 0.4838175944852893
Ni 4.918337940576786 4.252417032475632 7.145168141786845 -0.5389333045125105 0.1530243468502526 -0.38677387676571456
Ni 8.137235067060054 7.192112543713963 9.21734687285909 0.2978363330930419 -0.05578213996662651 -0.08254449566213526
Ni 4.488638761929561 0.13411301111497645 10.3818326437857 0.6770748207136598 0.7000072611401169 -0.2041245079601775
Ni 8.206557463497163 7.006790670572091 4.7374155476271005 0.5147453944123973 1.3008879538897016 -0.10999899232866216
Ni 7.67190508281927 6.35741652010416 6.931053460482977 -1.3847102878229958 -1.8044850449947634 0.6358122145194469
Ni 2.3416924281432063 5.441228168238291 2.4671569039432053 -0.43357643894155007 0.20729107861361717 1.8093729692146838
Ni 2.506326323367964 5.304087626058002 11.237600863562148 -0.8171356654247088 -1.1495517933751491 1.7878456366658695
Ni 1.1544942840884966 3.429655335154415 3.8423356389325503 -0.801500529990613 0.005769555493925547 -1.508037621829448
Ni 3.7287928029695006 2.7584695496245075 2.8047352263891225 -0.8497141135813624 -0.9925121547179164 -1.3776788348975113
Ni 0.9576639869629484 3.3047119100465903 8.187371923923745 0.7599844130246975 -0.011295113297845064 -0.6210085738477111
Ni 3.304893145069955 2.141128689536339 7.147873980685685 1.392330009151783 1.3198709227501075 0.23160034478294306
Ni 4.084539030332642 6.662598175948468 6.162130345377682 0.2155728590064352 1.0354310655686296 -0.5538886402707622
Ni 0.8604594883562524 7.184899389784036 11.425534333390711 -0.227907212202072 1.1856523957524483 -1.4352059825797026
P 0.3046732916037694 5.442098096350442 8.056627165718007 0.30653411797735597 1.402550144217894 -1.2129096888065045
P 8.484644483348404 1.695208976297947 8.091521250941584 -0.7197348214760314 -1.0382914178355602 -1.1712837857356022
P 1.7345279146169819 3.3217117552382263 10.504725394604149 0.7134644150862874 -0.7495868718404575 -0.6522505625811282
P 3.9449336918345885 6.293993323677582 3.98258979881425 0.2666141418539666 1.4614608025111735 -1.737352255902008
P 7.032625723152771 3.978788394199169 10.46400913425497 -0.06408037541967675 0.5482137013731719 -0.3969050516624455
P 6.319764944000084 7.806435840663104 10.285518009143725 0.6671956139267348 -0.23236010576710303 -0.7058423797646554
P 2.2407535818800746 8.548230791296012 5.9346205834969075 1.02992941902411 -0.2574049645508728 -1.0238685575420108
P 6.907356075002888 4.076637183313927 1.8621354945682722 -0.7591765724114216 -0.02574188485079438 -1.3609658930182045
Ni 5.353664466699495 3.03148198882153 0.3346105989383154 0.015644134295160154 0.7913279603329856 1.0171901170805706
Ni 1.3012221590047934 1.1186097494622285 6.895005814335682 -1.5288530159129026 -0.1336937648424407 0.4941626851650393
Ni 6.842999518205981 0.8326553172467124 9.507205107477889 0.8398886428505085 -1.7046838191347093 -1.2910252021630089
Ni 2.6075551456684796 1.4271351914876207 9.343263530042385 0.28211326593083025 1.1008034203268526 -0.015271838557405956
Ni 6.561922120469217 1.9115311001864002 2.4386422915420747 -1.188788884498901 0.7807512132584037 1.11692655114096
Ni 4.467651746223895 6.577037121417856 10.598095866291558 -0.34446020359916807 0.5571215453857631 -1.5206671376680005
Ni 8.202760589757666 7.069878582205445 0.2661427256363723 1.2351903545815759 0.8096570976594766 0.26066229514590594
Ni 7.460032278754428 3.8445838593973933 7.982249218304131 1.5217467438854244 -1.1947260759189424 0.7153577754542583
Ni 3.228810682261332 8.356746927359731 12.407153059566927 -0.49114652404653486 -0.13117768328880633 -0.045528580559418365
Ni 0.08123044364730574 4.856138080557922 10.059295015928845 -0.4347514330862577 -0.1613362091500576 1.3604755836453473
Ni 8.584568413480692 2.370626599623427 5.648276495981157 -0.23749845543493292 0.1804384771971473 0.821526595403553
Ni 3.5640954754865652 2.623721309752637 11.507246862200166 -0.16512421543758013 0.2230768806929642 -0.1489594327522596
Ni 1.0446386746758074 3.094307109671004 12.763776464443154 0.629937758016541 0.4897738120687242 -0.506247127133399
Ni 3.1534350360438324 8.369931775309533 8.093431468087852 0.009559361553660956 -0.1624505252601589 -0.4777330788541063
Ni 5.648878196258729 8.056830148944176 3.5112437179728664 0.5796706343308726 -0.7697679747740227 -0.09928109169052579
Ni 3.2374102841200005 8.578959189507545 3.6759274528290495 -0.21641283840922731 -1.5864362136440098 0.4145780434621763
Ni 3.514772363877783 4.120169835926198 9.2515640452704 -0.14878562617855665 -0.4871767407655093 0.2707207078231725
Ni 7.442905569046437 6.23280837978956 11.469407707846909 -0.6719143595586428 -0.9274192788733253 -1.0736286596842735
Ni 0.4726935632401019 0.02927942419973111 0.5540862122333194 0.3066266776911622 0.7321910449615132 -0.8912109472735684
Ni 4.558450492929756 0.39119579793333287 1.7834604647504126 0.13743600549369234 0.14293019583904415 -0.7474330587222482
Ni 6.059511450447957 5.881520534001199 0.21219359005619864 -0.020884813868809193 -1.6482249648160325 1.2905240941568743
Ni 7.955220733094593 -0.251069408743106 11.49358627231403 0.3870281588683657 -0.30013155688512183 0.021232427016215045
Ni 0.24974820542277523 4.854072001291561 5.700399688700928 -0.21295316199540099 -0.0894155117503557 0.8587777664455275
Ni 7.918420961600331 8.992637192089305 2.318123719529706 -0.06064975247157297 -0.18525621030076483 0.94902297318603
P 8.676182717791695 1.7615047478448609 3.460394607467351 -1.0868510719118187 -0.8740897142122495 1.8866035088630737
P 1.8322770244688897 3.1060330156827187 1.7432208525126838 -0.06689727604318156 0.13998782538126858 -0.6437857196432268
P 4.852631182855808 0.8476316734024782 8.207106605617959 -0.26798068318419005 -0.15152359393501 0.837948488405002
P 8.583825349884895 1.571081108795265 12.53070913057089 -0.22336741535018953 -0.14048327696044838 0.37184168093591446
P 6.481000682536747 7.63489689104814 1.3385864775968368 -2.0545453962551066 1.4058550402214112 0.7480940893450149
P 1.8134738907947718 3.214565609424844 5.8469671706215465 -0.17424391835066122 -0.3587907612892272 2.108556560364239
P 6.778896690441783 4.102526606401617 6.036187409115999 -0.24285072088578175 0.16991495195800416 -1.2725299715722986
P 2.4821405094999056 8.374272354119125 10.273793915482244 -1.0244712241230163 -0.6756218903172171 -0.5857710908016557
