# total energy = -340872.55750227487 ev
CRYSTAL
PRIMVEC
9.23768049647135 0.00000000000000 0.00000000000000
0.00000000000000 9.23768049647135 0.00000000000000
0.00000000000000 0.00000000000000 13.52027916564091
PRIMCOORD
 96 1
Ni 5.33566570322319 8.95606044098963 2.118911408987264 -0.8051075306155812 -0.1930083434423579 -0.44815099432161526
Ni 6.5216545345107155 5.55113459772712 9.567016602334292 -2.10365063842219 0.08517164887233719 1.350255448579236
Ni 2.3364495438928605 7.029403635750095 4.995121387886897 1.7402845990574547 -1.5637860803446617 -0.5054613980073102
Ni 8.137324830276519 7.776325519308927 0.9192461919199707 -0.5772350283061866 -0.21029695531947656 -0.6947107886278681
Ni 2.4061386045632847 7.313055849025022 7.416278613186924 1.1785528085931896 0.37758989627360134 -0.2798087861673697
Ni 7.903195821436129 7.242239791350118 4.959251475031216 0.25661820698351934 -0.6444786319451933 -0.49610566782402304
Ni 1.4232956021733332 3.9383556959154324 10.420173657621916 1.3068886515578266 -0.1928237382353776 0.34946922677798525
Ni 9.018174603761095 1.5001438651263106 9.347285442110142 2.044464614980337 -0.2802139920255884 -1.7793103455013486
Ni 7.747199113119392 2.7361824486291546 4.074835956925911 -0.6881688737442921 -0.8435275251546762 -0.24713752118659374
Ni 8.965602964806246 2.468770077435167 11.518264112704347 -0.4075741013405174 -0.6275600018129838 0.5432036497530902
Ni 0.15989593319862694 0.3449867158236212 1.552195422676634 1.7241635251258756 -0.5689781876140331 0.9180236965910382
Ni 7.915685165289046 6.073497709303271 7.830066648597933 -1.1429060059238576 0.4648387393899414 -0.060026517065277264
Ni 1.8654756481848924 1.5415009601185545 10.798808624173535 0.602491231769814 1.069088862832391 -1.4534605579145161
Ni 3.2519775694660864 4.223679929336349 8.370958699449368 -0.9676837828203272 -0.9462446391099445 -1.1578261175687994
Ni 4.86839611734142 4.358965758275687 0.3620745769620293 0.004405328156547252 -1.862901023039811 0.03566737149462245
Ni 0.3228689377266969 1.754891376540453 5.152876026777014 0.272537192206621 -2.095402796591101 -0.6030216503519872
Ni 1.3502347881698358 3.1060406950663824 6.5453427182696196 1.1078901519703048 1.6469471265448734 0.5786671327670228
Ni 7.110593608474427 1.0260938218569355 1.059943454016882 -0.26507765060478217 0.16522885933624448 0.10336426062096392
Ni 3.8980424588043867 6.607084602522392 2.810324995003345 0.004527969777340588 -0.2197529585260538 -0.1517318532910742
Ni 4.662765352425772 2.2115561053636803 2.153888961919726 -0.34873029172943165 -0.8731911136573801 -1.7553715752975638
Ni 2.366998552858541 0.8429152390674102 7.293893204876728 0.55833510607789 1.179945318065342 -0.47019331883363535
Ni 3.137568898150709 8.494804585025204 0.9134421573469024 0.033949617472567334 -1.6511830190030916 -0.297906524209345
Ni 6.4860063259837855 7.953421089578373 6.722945437191083 -1.3670102994400715 -0.7321370517951261 -2.04780164977337
Ni 7.819918132949401 3.497431974433457 8.303493148442698 -0.4151367441791238 0.17513711958889194 0.6377289719261855
P 5.34598419219043 2.0934800749435634 13.320814529781766 -0.0629550035659819 -0.03726454077841324 0.3097585384519246
P 4.008506640604086 4.725535390503123 10.359237299096934 0.2124970482945889 0.47850749512628554 0.5120207963923826
P 6.038200532630195 1.1610655696638774 3.5277250996530385 -0.4797053720891286 1.3951373966935907 1.3377182353441737
P 2.9968697885177247 8.861448118695556 10.476769230143578 0.021257880937511776 -0.11820646784011898 -0.895878785062883
P 6.047659917323529 7.281767825630174 8.495792093056178 1.067053577569917 0.5051227837209689 2.859957088374668
P 7.988838356096189 2.3661671616257287 6.571315380382686 -0.3419029843949531 -1.347290709523957 -1.0121229869703086
P 1.644417957060389 2.5998712371693484 8.578089663656224 -0.3807976045776216 -0.1993772230831792 1.4409853082656408
P 0.721775993838397 8.788923090153204 6.619245084954331 -0.9141117631311418 -0.3603668475270955 -0.16191907823672116
Ni 0.4485946912567263 6.5364625361351445 6.5480059415187295 -0.2597351553459462 0.8456782529490919 -2.1169522406271026
Ni 2.4823032791692827 4.952246542010752 13.29941174814506 0.46616002930452616 0.11802700483946124 -1.4801038715336574
Ni 1.3106143770861336 5.2635378949365155 1.747306317193093 -1.2875012481701504 -0.7935990157553493 0.3893395806103617
Ni 6.523391218419258 1.2215908514126341 8.025313337015751 1.5246392349418711 0.35104222769205995 -0.6633309887650061
Ni 5.416135136879084 3.497866145410592 9.17452326769972 0.024277384490125932 -1.076074807231921 -0.15570317923399637
Ni 0.7545540550760516 6.211859685804016 11.50447317968806 0.47996093974336046 1.0309691731425341 0.4194122316260261
Ni 8.385513588631806 4.587552158897327 10.28061724905003 0.884761849214115 0.4866720332149489 1.140413835629623
Ni 7.527545549410306 0.37233394477493675 5.694525567418344 1.2245981808880264 1.5586104496809932 0.4157340114434905
Ni 0.5152343936388014 5.270336827684849 4.225871107118828 -0.08663794900521853 1.2761999642247182 -0.25568103988123064
Ni -0.15951164569546025 4.484995431489711 12.675464636903683 0.930117908751411 0.9182419832494314 0.9470182840511756
Ni 6.371791645956064 9.249504595451015 10.129934054479003 -0.4777559616722417 -1.2041034033687843 -0.4811948121504616
Ni 5.473066960966018 3.515611729390959 6.699068804752741 0.6820385924768383 0.19182846420164382 0.24644897976000132
Ni 6.277354839588918 4.027000476693984 2.5680557422256833 0.14666857983555387 0.03749028363597414 -1.1035928101465315
Ni 1.193988662483256 8.650274745561159 8.910756085177598 0.8463356840274326 0.16092791796804543 1.72828680326563
Ni 2.409187039083598 4.163357876555613 3.8103796434485906 1.441747897463278 -1.0536434748115984 0.1521321740532864
Ni 3.0710021734435142 7.343586382629973 12.03787531929989 0.7316832520871592 -1.5321936502503615 -0.10458604884320698
Ni 0.7047878996479263 4.990453587998673 8.209662333907469 1.2388253802310019 -2.382642328004903 -0.10227951219721741
Ni 6.958421299828628 1.0585180799366265 12.173740350798086 0.28758354501678207 0.6749546890468634 -0.2522882121495978
Ni 5.089112014292433 1.0376593976733952 5.805188359345882 -0.7966915386377441 -0.5816658103840304 -0.13350324609818945
Ni 8.25051412778377 8.608234062221936 8.211703861268042 -0.7166227582096111 -0.37270120072273233 -0.3652979662801257
Ni 5.7241748263165135 8.205923844663923 4.417886454945116 -1.0087756677646302 0.14197760211778773 0.2529991221736933
Ni 2.9110979263325594 9.215934865006117 3.9329137784126558 1.0771204748876158 0.0752567037514704 0.11069936082979645
Ni 4.119109387609254 2.763793875238897 11.488383911797065 -1.5365910079871083 0.5418026556405057 1.317230656913783
Ni 7.3974235837947715 3.3156436625388017 -0.0035749823010941422 -2.976873119538138 -0.39843023005772027 0.9269770491295842
P 1.5569740747292335 6.963963908047379 13.535962876777043 -0.2266705115814935 -0.14462866658738963 1.0292357353911952
P 7.114473434227552 5.655631238011298 12.04009236258739 1.5638734978521454 -0.7745638535007693 -1.3578805692246616
P 6.135113037335048 5.544797548997015 5.9942966091614345 1.7851086973506805 0.056088615463451785 -0.5431712538532582
P 4.045300321496225 8.075709502244742 5.887486853713964 0.12847648230755937 0.3161366740641265 -0.08329885732965654
P 8.619023672887769 7.08706523658583 2.786462219085551 -0.05387206742810722 -0.49166460133353396 2.4705555441781195
P 2.581950137262054 1.9357466827182856 4.993890928862335 0.49474529714138665 0.5173082700435672 -0.3566685727399018
P 7.231625696611211 2.0705613899590296 10.074284420426673 -2.2210801188869684 0.9282165779636401 0.7307404285579158
P 8.777967201240807 -0.017326193291814403 12.926711991227686 -0.7697175811520615 0.5538652432319945 0.0290884327255241
Ni 2.434525996323653 6.137810440001507 9.548169886854465 0.7735202427276034 0.6208591927540404 0.8780471561981008
Ni 8.488338208769994 4.362827108668083 6.141721673867872 -0.13239818595946876 0.6002525722472823 0.1253821596529518
Ni 4.595838358184359 7.367364171888413 9.985537101396076 -0.5133122615102966 -0.38378394089945517 1.2329483526249347
Ni 7.50210497768624 5.024882422717479 4.211228459972926 -1.6912315502845452 1.1990277886180898 -0.40485901640219946
Ni 4.930344001866323 5.791526753854699 12.124499819382706 -0.14260803661293503 1.022187570295162 -0.7979619207097354
Ni 4.319668666004745 1.2423386815114905 9.794657988254633 -0.17759946508645544 -0.7323771928303903 1.667738609368928
Ni 6.233836127391362 3.648939170093005 11.389618328411073 1.1728778696955995 0.22339801147780883 0.5224131953703003
Ni 2.3334380600940063 3.0720183182836185 1.2800773771049272 0.6662504764046461 1.6055161130935962 1.8031298165184497
Ni 0.7498409905540406 8.408857206913112 4.3665360373344635 -2.5868928200199837 1.8031928085459008 1.2252741239091287
Ni 1.5906454196581434 9.095364660887562 12.182014541100646 -1.1445075460830223 -1.2629806373209667 1.9271307795531585
Ni 4.425283065613038 8.82869130412274 8.027449088716043 -0.1613017563676964 -0.5225137255039066 -0.7360865233611774
Ni 8.640353476849594 8.788562820618985 10.67338124771928 0.6730659566645828 -0.6111615058503024 1.1048683344248453
Ni 3.0638244958002323 1.4234526427395313 -0.011077826293209551 1.811616513833222 -1.1535966528684842 -1.3685365062766108
Ni 6.989663134821653 5.641238932003276 0.6293040420847983 0.43248372009800357 -0.44114216710395 -0.4926261939158549
Ni 4.257027955452498 5.352284290199078 4.977923598352151 -0.2865342778166614 0.1324048708276881 0.09555762009235157
Ni 5.026877761676229 3.0641108638915346 4.386654781400492 -0.37274928035184834 -0.10635008272216523 -0.339219524025519
Ni 6.383375697133253 6.827523369062468 2.4189401820125265 -0.43321571316802165 0.10729881978867972 1.1776292683376557
Ni 6.895826777678205 7.829562271250026 12.409925667287634 -0.4257042352823249 -0.3985667556355845 -0.4806988463506495
Ni 0.08028560381663903 2.3259555389986932 0.47767583281247433 0.7557670325092404 0.16164834107383774 -0.03065809120548914
Ni 4.490602703471014 6.068804967678063 7.4563664508970735 0.44717860310601687 0.25462765891605177 -0.22575699862828863
Ni 1.4777609656029227 7.426466850861024 2.512121587618125 0.7328801006087378 0.4047548867241675 -1.4217118047480095
Ni 4.7128428176821835 9.056843533767244 12.468211735316014 0.25830459354700674 1.115514501284782 -0.5533638781155438
Ni 0.7522178457118482 2.3471098270335906 2.8487361937273232 -0.6725141979261707 0.2550624324606252 0.6637490501390311
Ni 7.779281577025594 9.257171870153622 3.426241790703788 0.9527870682141526 -0.14480658692615062 -1.0752659381773804
P 4.532375494079664 1.8243125444803046 7.860906644495098 -1.5963377890284378 1.3936225027109612 -2.1718599484085757
P 5.13154068020697 7.5352220617932755 0.4649343002856031 0.3671342481579161 -1.3893385306236266 -0.20545119719140098
P 4.129058369361911 4.368369716886834 2.3462682743523775 -1.2602259573939651 0.8940257910145443 1.3167943407073128
P 2.437315775793757 0.8868847500667589 2.0500666723021626 -0.9222942989419342 1.2609906034741316 0.39259588276413027
P 8.411185102364986 4.112975567847171 1.9848717431291085 0.7550352965495384 -0.4233012822677871 -0.319572696328869
P 0.30811543841641925 6.605698950467705 9.469887012140868 -1.3574301119508043 1.545026026128339 -0.27104775214528803
P 2.253051765561393 5.195280674722602 6.317755834663428 0.24161582003741616 -0.05400293657901668 -0.33658620016773
P 1.7787800179632682 2.9178044822772473 12.714118786621249 -0.5720218595363633 1.0744043615080336 -2.1116480548053698
