# total energy = -381173.92379143654 ev
CRYSTAL
PRIMVEC
9.20936510888669 0.00000000000000 0.00000000000000
0.00000000000000 9.20936510888669 0.00000000000000
0.00000000000000 0.00000000000000 13.47883673374596
PRIMCOORD
 96 1
Ni 2.8192721628937667 6.101821439684431 5.301765209725146 -1.3387101669437977 -0.21800203727321812 0.12172733650918391
Ni 1.026079836975461 6.656473874604785 11.033047842578414 0.9076143283322562 0.526399690821874 1.2634146395345918
Ni 7.651426057371489 2.549953488431967 11.44607958115059 -0.13538760760509586 -0.822012791011352 -0.25818863679443277
Ni 8.020122991172547 6.836986640920123 10.133968834774683 0.7564152076162005 -0.22491367679138685 0.15518073107162306
Ni 4.028471016522163 8.397476728215095 1.7870782283948758 0.11709652260539188 -0.4566731728600135 -0.92584499240767
Ni 2.040380895923407 4.103131339797427 7.149593015335426 -0.6611666341238355 0.8837709460557555 1.5834655610514599
Ni 0.32486588130367505 8.84616620771357 9.661927168064034 0.9208825061960721 -0.21286703003949792 -0.13781087233460781
Ni 4.679959926000232 2.9769364942706655 4.338783338078472 -1.4665652136172742 -2.5407751997263146 -0.48957249469119557
Ni 0.23318941403979598 3.6089568058205357 3.606114795735085 0.03310552430471718 2.016916273048423 0.7233374512256252
Ni 7.844942447279361 3.792609965652201 7.372222971293636 0.7802480483697402 0.08858324565704744 0.19475052294444525
Ni 6.418052620222978 8.391803759282375 1.6241323261041545 -0.42452152782813335 0.010435079290394934 0.4077985586464977
Ni 6.9682845598710825 6.070141223566643 7.92600051652469 0.32008074631353906 0.26900912444870445 -0.03477905535239817
Ni 0.3791781122788654 6.055811451392434 6.396530333866213 0.4266573432242136 0.6479359943661744 0.3571534827961204
Ni 3.0015531273180045 2.6112878603344285 0.618951301464768 1.0074680046968005 1.8798319944671948 -0.9404270039869029
Ni 2.1638508544964257 4.7968820259512315 12.537515519789745 -0.362425272718021 0.3581616123456606 -0.24331377656512937
Ni 1.9392528572055496 7.5099057431034515 2.470010673306365 0.38086368192886666 -0.43366025690460797 2.2433425298295946
Ni 7.521279309064343 4.2729796612684625 9.635185013539955 0.5365684038247598 -0.0926342757979695 -0.4465947055780889
Ni 6.968035907012019 4.7701288201889716 11.811369970782472 -0.595065371619388 0.27784934844815373 1.2481525711691988
Ni 2.471554162905592 0.6626874975011013 5.657674019078193 0.08994053101589027 -1.0776151551358473 1.324183176972216
Ni 7.45566258236689 0.26880571282291615 10.581627786312811 -1.0616218650313844 0.5932404025955074 0.45625716836851743
Ni 0.7752342280690885 1.9489411093438964 10.339601986411092 0.5872967834175628 1.0277365251378494 0.5295415788849654
Ni 3.843040449216447 7.335802694932876 12.746329586149145 0.1573067762756904 0.3950888243893131 -0.28010009215554343
Ni 5.324551020980562 1.423694177349152 9.559770443258865 1.7952355013720371 0.44894520808813654 -0.8971021159470228
Ni 5.861945105608842 6.1398100709303245 10.246706199201283 -2.21432120289658 -1.1300803149140988 -2.2752979996902685
P 0.9240308617425513 2.854636125071763 12.404762521145003 0.30095559544831396 -0.26523037413256256 0.8078737805068086
Ni 3.158047869320787 0.7074938217679252 10.195459765884701 -0.6075367646135215 0.1494397148227878 -0.39354667671317384
P 2.735236705895274 2.8601525347969243 2.9114827733363766 0.35001584331007457 -1.2128050449078402 -0.7460410634707281
Ni 7.129927336993006 8.217295499045175 5.768995904081161 0.9307205753324165 1.006497156143099 0.43896624249855365
P 0.9123708845254783 3.912322503243807 9.014255540440855 -0.8759720188366268 -4.201024442696733 1.2243642105003494
P 5.020439364980098 7.510891145174558 8.364764142263933 0.806101004877102 -0.1684694777607292 0.4650768235426765
P 2.0101557594994013 8.65145260033613 11.328261409970445 -1.2915625627237175 -0.8709020605128872 1.489798473113602
Ni 6.090272895785679 3.680881947646095 5.903272131721799 -0.2564102047377713 0.5320602315417611 1.8813018941445019
Ni 1.1226400305786606 1.5723241215133903 4.046642935837168 -0.33971317583248595 -1.658959320514401 -1.5256375942993983
Ni 0.11241319477330448 9.116636052819183 6.759043178968699 -2.3961650450816863 0.9608888713856806 -0.47864273515256917
Ni 3.1492989724277933 0.4582773495566797 13.151368516707183 1.6154043187415856 0.12274472203010475 -3.1412699698913897
Ni 0.5223809775599026 6.048821543243189 3.795370933324327 -0.8841962065186321 -1.2744086766522502 -0.02424987368630017
Ni 7.870369504459945 2.232073831531476 5.4863586457386795 -2.1362943925991402 -0.029403392862781617 -1.3767900045346546
Ni 3.826150473530394 2.260190023336013 6.638825968166843 1.370330879172872 0.48426239533219184 1.0343715139558636
Ni 1.9989663808415197 8.242768603051514 7.356897666746656 1.1023229422951726 -2.230986579367403 0.656266882829373
Ni 5.245396527511844 3.5209889499027707 10.560332050338749 0.03474485968035306 0.2381294041507125 3.0649439443351407
Ni 0.10968261800617538 4.499161669365228 11.237912933161272 0.25255843509184894 -0.5206866995974968 -0.9449279771810501
Ni 0.40149424591160493 0.9492000566989218 0.23510035730852882 -0.3280326541707641 0.38995870225159934 -1.7479274603146928
Ni 7.154829460360012 8.659842331988253 8.394147542713183 -0.3721337582550366 -0.5986134939819626 -0.15372111580696107
Ni 1.6616918009340342 1.199952651017274 8.08387850517308 0.5852746107812113 0.7061989917731257 0.3774651977702789
Ni 2.478940073756309 4.908444275384628 3.1236260251976895 0.471042297097492 0.5960274784223412 0.12120900211186869
Ni 4.768913183989103 1.4113720467777564 1.6810397561787611 1.1624307062203463 0.15193779865429316 -0.5794965706468536
Ni 1.1031622232853113 3.705553836884338 1.1807409943767748 1.2403137918510703 1.5522302571862623 -0.3577003564385259
Ni 6.531558045703135 5.806071887240639 0.8217654664286047 -1.4588871282467262 -0.05688925698787622 -0.9691207723771696
Ni 8.823308563409979 8.390965707053677 12.066240993196137 0.7428230707540626 0.01741485304233775 0.40404757624449766
Ni 4.920821662146927 3.921826568079144 2.205609799834942 -1.0427782499623204 0.14456336056709296 -1.4473284768748493
Ni 8.972555535039302 2.166816270074893 2.0260041559869304 -2.3025542643030605 -1.6415359828316307 0.5216300373473726
Ni 5.108904526615992 8.425657385575684 10.447271437195363 0.2867348238632417 0.5094041847051421 -0.46097848510358674
Ni 3.3425575001114507 5.092309250614755 10.16333934211272 -0.17139976403364676 -0.4811953263710938 0.371640877779018
Ni 8.609771013664876 5.2363621402991845 1.7546483699538356 -0.09527402741366173 0.2374110379274492 1.424150238986173
Ni 0.11132096406645284 9.042224382402985 2.560359150115539 -0.4645124663987742 0.41069696324021526 0.9754749967299717
Ni 7.142599423440122 1.0772470697517487 0.26231311039179966 0.6770766204858727 -0.25865863445231585 -0.9907059547471131
P 6.69573339824145 2.548452361912432 1.7033476013828652 -0.08403650682662947 1.319385498473257 0.3957701667270539
Ni 3.1356138558141207 2.8931312714009354 11.505279222211161 -1.0689024578531978 -0.14884578999253073 0.05681006701050862
P 6.83816543965939 5.951782462652163 2.9449100060232176 -0.3052598792506227 1.2129857934600785 0.37066514412931006
Ni 3.173482765313058 5.6293165419067135 0.9774350493139005 0.7479382804934409 -0.16275494387445516 -0.38636738535591525
P 8.95194497583244 7.361552079893729 8.10059258198476 -0.9355452504145695 0.36326756611365824 -0.39240099314450483
P 9.120771057771767 4.131394881444372 5.630056053928299 -0.20710647340663688 1.082329272782065 -0.2979995981437836
P 4.120325224533447 4.479214184449202 6.501718781678935 0.35996806942678006 0.1820708705942477 0.03186059615402255
Ni 5.672775536052017 8.08962606996352 3.8114375917659236 -0.2721109033024797 -0.40438310520704546 0.7167844805984558
Ni 4.709577244324304 6.346560318559494 2.5126168802387294 0.13588922983186275 -0.2876074562761821 -0.12632755428535664
Ni 8.464548534606331 1.7267559657224565 8.540190576206639 -0.31429422153874903 -0.050612679950545095 0.06283056217297565
Ni 0.635660773593871 2.2198345852464354 6.210980965750056 1.7351819877235661 -0.361959388825196 2.641997217193295
Ni 6.452725880014685 7.355952785882213 12.041547922418047 0.962269296672975 0.4264025469009301 1.5752375167147128
Ni 8.389998723712873 7.762942259979133 0.89663207948324 1.0579868393819587 0.34236089786797813 -0.11023270560602307
Ni 1.6872662079570278 8.12698846437918 0.3651402769799281 -1.01006276200717 -0.5469374057639097 -2.5971561496192046
Ni 4.821213168678904 1.3489417604223828 11.828933151061028 1.9207873538336337 -0.5917193379652905 0.5836740990633108
Ni 1.0811610499407196 5.8491348786844695 8.863791090738633 1.0754526002668898 2.373804417998299 -0.6166209863029767
Ni 6.717255684598215 3.9173600259811416 3.659490434274468 2.1808431257437926 -0.7864166390742973 -0.4735522080035393
Ni 8.127412095176103 3.505452750893844 0.21206957694010897 -0.7908685041980638 -0.3553154011461171 -1.1270818944074072
Ni 6.50704271567245 1.2718962115731347 7.150131763196731 -1.0300024383538906 0.7618721169657138 -0.20086126382787342
Ni 2.4038100728583682 3.1931815973700197 5.172584523822291 0.3271209409897721 1.0013845175068818 -2.7328908561510743
Ni 3.484501445176412 0.8113340185226109 3.5912471966360866 0.351968081940439 -0.1282659089586501 -0.01150902908086405
Ni 8.486770732714536 6.0325762231176725 12.980766869166837 1.4987438552323478 -0.3999032150588209 -1.386084542462703
Ni 6.629766715668278 1.3489325510572323 3.5866646165371874 -0.6378097045654499 -0.47016477958854513 -0.5407587877570235
Ni 0.9760729842081386 7.907870039352862 4.8702677730896635 0.6889792854607295 2.0315314518584366 0.026147862039961417
Ni 4.918298296095684 0.4702108449187233 5.411294952269823 0.6025187425736398 -0.11129405699100188 0.6931763542612126
Ni 3.315564850855277 2.6663782826648377 8.97015281167153 -0.2931456124855919 1.3341325748754442 0.31482541145187076
Ni 7.516877232522395 5.962244301463152 5.01195753967647 -0.3020372585482669 -0.5855391772965077 0.10891527234618016
Ni 5.428736568928392 6.835107930429417 6.185195664265116 -1.1713172100766989 -0.2592584728198438 0.3776078939957303
Ni 2.29752478965622 0.7188710714748773 1.560323397785748 -1.945503111412759 1.0400523663907248 4.021602579689558
Ni 5.467682974149941 3.8003458323786377 8.51839569264142 0.02642682673296094 0.42545586671694463 -3.7244930974602113
Ni 3.0337582772493725 7.38991692455733 9.858932986427439 0.17965043407821318 0.3863218768299605 -0.672734541467093
Ni 4.1474191768062765 0.2853006067440121 7.89708863557115 -0.3176317705524142 -0.6406014083779742 -0.07875083294765792
P 1.1241043196375933 6.229500078131236 0.9267899875416471 -1.0813265425491636 -2.10552214441329 -0.3203779658389837
Ni 3.4045549463047498 6.32559059411176 7.549024363453315 -0.11909735508550456 -0.9361995961691167 1.3094278730399125
P 3.3615380016866716 7.811328264479964 4.18645951755236 0.6951468477240221 0.712368096698315 -0.15596671730802816
Ni 5.5204157990018174 3.1547232885014496 13.15696228509961 0.1342000150548979 0.9450087098203144 0.5119086962945506
P 8.304102974953976 0.3490662510462109 4.575903309164509 1.30196061812859 -1.0353012248589846 -0.676945494224647
P 4.930565170476177 5.5956839403770156 12.22577666757162 -0.029117743301562755 -1.4904129667691493 -0.38419223208146736
P 5.577780934524404 8.920706809241876 13.211336218821309 -1.9115974598042498 0.1785561725727699 -0.34649728863385487
Ni 4.859036031352089 5.225163552276153 4.5077134858440004 0.381318252967782 0.7849554811477385 -0.03920958031992602
