# total energy = -340874.8278142905 ev
CRYSTAL
PRIMVEC
9.20876374686080 0.00000000000000 0.00000000000000
0.00000000000000 9.20876374686080 0.00000000000000
0.00000000000000 0.00000000000000 13.47795657963408
PRIMCOORD
 96 1
Ni 0.5714360043600677 6.97126417044454 1.5575932762450588 -1.154018313786935 0.24590442011044103 1.38475451079737
Ni 7.1319386755743785 5.482566258145429 2.4286603430829263 -0.705735936093778 -0.272039426634596 -0.7883213122961777
Ni 5.3803950273788335 4.104189332289203 7.633294148129134 -0.6570266438135329 0.07756581150062125 -0.20017015129811977
Ni 9.208091236300119 8.930879829381071 11.621866534100384 -0.14337936756132083 -0.47006450656525495 -0.31399777334425283
Ni 0.26829456124520396 6.278369180217323 11.79093390626228 0.10516403283386405 0.4699061266105198 -0.2792511138916868
Ni 1.2744744475561354 9.027627098460284 2.973169923039071 0.05491182154653124 -0.8816112194002753 0.577210088605522
Ni 6.6878000131252655 6.144289584006271 10.844996829735214 0.30264352467369815 1.1053064504035286 0.7232770303013349
Ni 5.840602982093626 1.6941914692668072 4.559147370946309 0.1565794111913626 0.5409351654338878 0.21461923684391426
Ni 4.872043657211336 8.850910927355192 8.337166905296131 0.6709738500222444 0.7760782332627667 -0.4467062914552888
Ni 0.36270372527785083 -0.18824185947169395 9.073413991339471 0.44812913994474435 0.730794935944935 0.569614021425819
Ni 3.3293179295983335 8.63589550895328 4.548270900404765 -0.22586369940948195 -0.06714435905698114 -1.6587168654862916
Ni 2.1091567690238455 4.280693701834344 3.5642187518503956 1.3612898520165266 0.3037030762864641 1.98994565799685
Ni 9.299285621003282 5.315565332507554 5.49250988094685 -1.424303476734586 2.3452772570928837 0.039815589335041104
Ni 4.203109869548759 2.925338684668203 3.039414083980268 -0.0021412147127188932 -1.7903372927394714 -0.4205016080354629
Ni 2.969071102415888 0.2632942026777176 6.579183568801794 -0.7467465741781849 2.044601140558201 0.334630619103256
Ni 6.465841187062421 7.819391286587259 6.498046074690807 0.27636299371061435 0.2798188134696987 0.6659967085226273
Ni 0.6427735323798593 4.3988237197049065 1.9666226070654456 -1.4153051298907176 1.5969774794949656 -2.936019832967202
Ni 2.1575580298538792 5.782164169074714 0.5068853350221131 0.6494462603631137 -1.0332793093329495 -0.6729440863747378
Ni 3.051452700472487 1.0866617164624246 9.27202491848518 0.2076083527437199 1.0807608998536806 0.23250203066160605
Ni 8.430005975156114 7.3141064346572815 7.750040088849248 -0.6561462980911087 -0.8850189595302436 0.5164855170319556
Ni 5.359454299234332 4.336305424466112 5.078534523263485 -0.11151697163508537 -0.21668511823400746 -0.43463521922336756
Ni 3.6089051974941975 2.4722767304108126 11.374788963903962 -0.7875870052333147 -1.0259650350597234 -0.7052739088556951
Ni 1.964422633471021 3.439371861900414 12.950442467078219 -0.4352384000250053 0.5302799997128868 -0.0063616805519696885
Ni 6.511129885837556 8.574915077214982 4.225338903703557 -1.2942992449285904 1.5204213402057816 -1.3705231976893364
P 3.6937455353988975 5.7379436868628 4.715599658022386 -1.0785019286161748 0.4101855708214356 -0.050369196481171316
P 7.42859899095481 2.725720318798217 8.306396743017311 0.18883210057748123 -0.6075416497095278 -0.25219668087705605
P 5.65853651940896 7.261754614296028 2.2801331178543234 1.0156636531337153 0.5079409698960542 1.3487716649448576
P 3.579916010071643 2.5451088407427647 7.690063412329839 1.5914542356838914 -0.0009281682412242081 -1.010853633339582
P 3.2723433099721113 4.04345753716476 1.2088260936118376 -0.2723608145297568 -0.8283976114917733 -0.5977858558743447
P 2.557614341543219 1.4446800228836694 3.3389346412963556 1.0111217993993038 -0.09090880846643054 0.9726673520778474
P 4.790739484481431 6.467636895940248 12.000205818884192 1.0456000356818316 -0.8775421915372242 1.2783020981693856
P 6.546417867477718 3.337200631133818 3.2402351143602246 -0.1259981959703959 0.39702975016576786 -0.12973632285658948
Ni 3.9554493846243037 7.341428835890674 6.482829513923008 0.21470614013076572 -2.0813092946125122 -0.03238664386082164
Ni 1.4737889242314124 2.2041175379887066 1.5703842487132698 0.9057412796792594 -0.2826801941778938 0.27231967687917613
Ni 0.1251240737306102 0.12334217799799764 1.0189644126447093 0.4160595131037093 0.9577989196064473 -2.358969409867995
Ni 2.7943256066946693 8.289572332146596 0.9699572151779523 -1.8679979779467444 0.5001317582642806 -0.06981213569713139
Ni 0.8374725768009481 1.149290516862931 5.015107323069607 0.4782776385036666 1.112165382306891 0.3151426855819734
Ni 2.200397197544389 8.311369475294368 10.88084838770011 -1.0455067046370767 0.4412439827891368 0.6445074283005996
Ni 4.445595029399683 4.222393020267574 12.626135601990038 -0.5188254780190419 0.9457522728545583 0.3797421667299138
Ni 5.489187359084697 1.972572389147311 12.807562976489468 1.1868924388071367 -0.629421994722387 -0.11636247265284476
Ni 1.4392652699597615 6.904390130081581 4.532259623348985 0.9360880102919169 0.1910309080010129 -0.9747622869336632
Ni 3.2604271700341236 2.494607981840195 5.226993603642366 -0.3543813193676219 -0.3129019691769127 0.6748734421869669
Ni 6.651839791751353 5.144742770027126 13.263252190966568 0.7982941072381735 1.1384893649134005 -1.1605178054683496
Ni 7.282096772814588 0.46236188449183696 8.505224076104705 -0.4606123600134196 -0.5665757488201274 0.8564948839486216
Ni 5.3460371308497505 2.603317434674775 9.65149688117654 0.5519765108497139 -2.3068814309235046 -1.091046855160721
Ni 8.71887567663582 8.25380549480568 4.951140489336033 0.11735877512784304 -0.46795543064205214 0.3947422396831718
Ni 2.9114979131637244 3.8122807388624054 9.346827704201003 -1.5556020018719725 0.16596368061973998 -0.12383744087365124
Ni 2.6990701572985754 5.722454546696111 11.513584367891092 -0.29913114064506546 -0.882510591286093 0.2420385093971315
Ni 6.420524861996859 1.3474078542863237 1.673503982117897 -1.046333057193114 -0.8109763306915324 1.0510852271661189
Ni 4.4526673597492765 9.259411675152057 2.393361310926593 0.44696674420552696 -0.4449049765804919 3.028282327248049
Ni 2.8449093444685234 4.443034993153345 6.727912465950522 0.17280410058034112 1.2295426693774953 -0.19448621353946507
Ni 7.662308199213074 3.6551976514882196 5.963173465712331 -0.6351864080099899 -0.7349084438926762 0.9273827692084352
Ni 2.8407009395599756 6.91969509497875 2.681789912635798 0.7668058068219051 -0.7016249992491981 1.2398124267346196
Ni 4.451562308132153 5.111029486941367 2.6274195313205984 1.0407972149765496 2.135744176522625 1.2156165462147064
Ni 5.673021904356761 6.707156833951889 8.541411753936476 0.83305002266212 -0.9054697711854276 -0.6323129431169368
Ni 0.2857064912256888 2.5169760683234816 9.514466797147765 -0.018250204459439538 0.7743442812907954 0.5504186794442908
P 0.7563967814052508 3.487625782514831 5.658005173756393 1.7415907194633875 -3.361533806615591 0.6186994660985603
P 4.898712236237929 0.49876320563625126 10.324572770650636 -0.4480946871623831 0.48904773253597705 0.391321644037397
P 7.521027349963762 0.5926668085540638 13.013627476792676 0.6144635736403418 0.588039060900226 0.8178504321035464
P 1.0900781677120333 4.64374920187698 10.46292431223822 1.5494334111674153 -0.3499510515104102 -1.3106218933480136
P 0.5265257857637982 9.013767909428852 6.878259342841988 0.372446661509765 0.39222461546764065 -0.2943972255045059
P 5.06964530388007 9.319360725381037 5.907428216010161 -0.1584025804430304 -0.34312760083067356 -0.8722238646481043
P 4.138086790644484 0.8224199320230232 0.5768231309935475 -0.8429973636828191 1.517283051687116 -1.4957917145825592
P 8.667776248107307 4.220072411871613 13.44393826000618 0.5311117515855627 -0.10649612138172626 -0.007262080879052009
Ni 6.3374249803891285 8.713359627313675 11.493582933621147 -0.2842346831492073 -0.431432910235986 -1.2769826080270137
Ni 3.9827902033846483 7.10767358381503 10.186854791990202 1.2214835465184448 1.517940739875773 -1.0971493685140332
Ni 8.250711350277733 2.456179811854706 1.2330764513496253 1.13557321970787 1.0317271343544812 -0.1854711545250483
Ni 7.448812226784705 4.8593079373239805 8.962086487048655 0.17495585681602127 -0.2881522730360586 -1.092954613706395
Ni 7.89394543568923 1.041087546019533 6.299165330775251 0.12984070964493769 -0.06311826861672355 -0.6211965214888011
Ni 0.5752705334714883 4.705079566627365 7.825315284131392 -0.18621368911802771 -0.5743055133642174 0.3488159094647025
Ni 2.1838030057605757 0.8506668931094095 13.033884914687256 -0.609207467447725 0.9081887127784876 -0.946255437743222
Ni 9.111343967220908 1.9885219674878016 12.312113083951893 1.6150127397301217 1.5868139086984026 1.3379604332619668
Ni 7.770326994786951 7.484054164607486 -0.6045654518414472 0.22605087571962357 -0.4909776025688383 1.4801043857542895
Ni 8.861105028523163 3.1916929594490067 3.630611173883557 -0.7970916022896402 -0.9361119215513167 1.0782016237669365
Ni 7.606770146689113 1.5346588508079964 10.748386771231795 -2.2426848416409375 0.40833540498657417 -0.6617338194812151
Ni 5.79691660816332 8.638317413747476 0.3246264091807984 1.4638645268566597 -0.3598695961757028 1.6571091546795396
Ni 1.5322093197233715 2.0942201546657184 7.457582653119279 -1.2286201575632258 -0.04815470532835577 -1.2879668749526594
Ni 7.709853045039837 8.214594579924729 2.0078916805832914 -1.4081371513873686 -0.819127241933441 1.071494129839774
Ni 1.3893077281022779 6.930377260610949 6.821126332483979 0.6435594625650336 0.14964617440663905 0.5607095198473375
Ni 6.951271944938071 6.438970015239354 4.70258030821997 0.6999180438604204 -2.18878423496774 0.20844190438860877
Ni 2.6372701456109118 8.285419179818906 8.410986195072713 -1.0476348067236732 -1.892008224818413 0.6913899517847513
Ni 4.418567308597524 6.6705427903711785 0.7313673622773907 0.34244317316913925 -1.550589636259046 -1.2175595288736902
Ni 8.394045753782201 4.449278534790096 11.091414131590405 -1.8558299751256426 -2.5879927379523813 1.432871935129887
Ni 1.199837419582881 6.624029326053731 9.386345270905707 -0.3681125529107854 -0.7644812724537866 0.05769015562261677
Ni 3.9972571708054976 8.498095572297908 12.459494739004077 -0.09092834885045631 -0.3287849589557563 -2.2485117327353596
Ni 5.776132428997912 3.6675466033095807 1.222118022813145 -0.22699549902108002 -0.9088042348752994 0.17717009085852067
Ni 4.922885240362518 4.787000726510163 9.865689036123698 -0.10639507702748775 1.7591346418844223 1.5492539481667575
Ni 5.6991932101556495 1.79441965093996 7.147440708009934 -0.670467085589155 0.2633894642690819 -0.25773355153488514
P 7.740868160427119 7.889911997286727 9.897658179407095 0.5582096362436193 0.10888184800508346 -0.4402970454948353
P 3.1787270204747515 6.069919610173821 8.484225332750306 0.1723605852850193 -0.6975060919848182 -1.3011592052732173
P 1.602840535584551 1.2288542332958639 10.82833817660707 -1.094281817158251 0.6526195158847728 0.9689328247360797
P 1.2641698412264537 7.603298442858649 13.041674607711634 0.39822608446671415 1.6932197843591676 -0.2223870537147912
P 6.2907825933830175 3.6642498659851612 11.301993688625913 -0.1788616196283307 0.11763928248273935 0.54296325160751
P 6.768735835316127 5.539006769490041 6.936106953245738 0.8448120482940547 1.4287972508398812 -1.4690424715131731
P 8.422887600989139 0.7768245814241368 3.4456798648814972 -0.4957806803844365 -0.295775079688639 -0.25087873339658084
P 8.920418674072296 5.91435596877318 3.4484701202147354 0.9920120751530465 0.3940464991677278 -0.04559748612414083
