# total energy = -340869.6288660657 ev
CRYSTAL
PRIMVEC
9.28700838225875 0.00000000000000 0.00000000000000
0.00000000000000 9.28700838225875 0.00000000000000
0.00000000000000 0.00000000000000 13.59247551262452
PRIMCOORD
 96 1
Ni 2.427057422191092 2.223133297294035 2.931461766991227 -0.7358432970021198 -0.2566423753532355 -0.23556472874732978
Ni 6.846995348681741 2.7116856478876494 7.415715011003946 0.939669299885272 1.4426727232703929 1.3403839551017946
Ni 6.826238885472664 6.58423802717193 5.090205450698016 0.13736838548055053 0.043377081434054325 -0.17145735674445955
Ni 2.945411781929194 3.3393202324943037 5.026225394170061 0.07541559792683786 1.6720266952213205 0.2686501984473889
Ni 7.480740784649279 9.035423096529547 5.431879123938983 0.33760744234339274 -0.8675007481408221 0.12436168880823743
Ni 7.133685290186986 5.792195537334718 10.784364543928042 0.03560540790843546 0.1862445423559631 0.8815844799273979
Ni 8.886385189782668 4.602752681869034 11.982541830556203 0.14390695793001668 -0.4100397892721906 -0.52933871884554
Ni 7.028222025666948 0.02137033444760989 7.805179628170602 -3.1254695125240235 0.2486387883224686 1.1806156046594893
Ni 5.383409299717733 6.965664738787152 9.50493243691725 -0.26177969657980077 -0.40214830233925586 -0.5102606191681663
Ni 7.6599893288991225 6.3817348145214 0.19960009390370292 -2.539434112317388 -1.3071822715388455 1.3791034831591795
Ni 4.460308550906694 0.11520905086974915 7.453542852589276 0.9237284602852994 -2.1590532835622107 -0.01621517630728175
Ni 4.624038504542504 8.447731933964164 4.860723479379759 0.30310863723557474 -0.3006774020862628 0.44504175926867223
Ni 7.083711899346696 3.360308870907062 10.268788857027594 -0.1654556306350699 -1.0890498793353502 0.16842216946256156
Ni 1.2677694821794907 4.620175109153252 10.01437869844052 -1.844098031400695 -1.7259874657084922 -0.7482460415418468
Ni 1.5156025815966903 4.772565625841286 3.018861800664886 0.4060072710740298 -0.3059579337589118 1.0025877937863636
Ni 4.299708319016503 1.4578745389534575 1.022560891264701 -1.2141124508653542 0.8364397650699594 0.6592367640909743
Ni 8.727828099684869 1.5488872187963922 6.4062692326447745 0.35782222672837083 0.5838525336227042 -0.18751003933194801
Ni 5.9271171916977945 4.6352479233762205 3.640989189440228 -0.35896739607640754 -0.36211494056645377 -0.6476737418437233
Ni 5.994057946423088 1.1690207245499067 11.778274086357698 -1.6575948360667065 1.3336214395669808 -0.35004772498927456
Ni 4.574000104645185 8.576533449958212 0.16642318599850908 1.8939738331852156 0.349462799020082 -1.2899929042437526
Ni 2.834599200716347 5.2968543837854725 0.8028544247222272 0.08108050952209907 1.4826379508094207 0.9893949492451735
Ni 7.634598648624574 6.7106342080558425 8.750549693817902 -0.09205140671130599 1.5358698135503677 0.5303391350855963
Ni 4.549120209818733 5.970385362655778 2.412080264152041 -0.6480591502076001 1.4773252803472559 0.27490209289437173
Ni 1.6901983347647689 1.632702467325217 10.799072378730823 -0.3918772594305509 -0.7492878525428 -0.2884042411458646
P 8.374986799146848 4.256328703960754 8.901262976834543 1.391030573614069 1.1277380399341674 -0.9787449257304951
P 3.6801998665386826 2.065217010758396 12.31035092933416 0.34222822894485583 -0.6555248624570258 -0.14594635695754865
P 2.3812260369844713 5.81727045933226 8.317194676147398 -0.5147101702990877 0.6818102785161161 -0.6246374288495501
P 8.937240846396945 5.199006465946169 4.595207916450217 1.5486301985398296 0.44124166879629173 1.1054499179599284
P 2.958645768539008 0.14501941832156914 3.4033383657556606 -0.4345547436944194 -0.07160213771801863 1.1442244676249649
P 3.745190349553056 3.929314573080201 2.9897739624469217 0.8858962199288744 0.34517702716053456 -0.4739910953131708
P 8.613635047506428 7.364207406417734 12.348423947934577 0.8466966669112772 0.746320799494676 -1.896584274224869
P 5.168303617011401 4.656868078342991 10.509729138997912 0.7621981328465648 0.5420137432100471 -2.1951873102806063
Ni 0.049545259764701234 3.2184776824824395 1.6654048091140872 -0.05394611519915225 -0.8982876516146917 -0.08089539009448649
Ni 3.292179379138922 1.0812213495259164 5.481015755345206 -0.3805448651368672 -0.30865810629889423 0.21463054969782394
Ni 0.951936909108213 8.87265899174105 8.853418168261602 0.2817312000010632 1.1500349036591548 2.9791904548174046
Ni 2.1450667068083504 5.912861634191785 5.8546320931086 -0.51149166336179 -0.2191448926284097 0.6261700634439925
Ni 2.987909131210956 1.418256162197339 8.436183539333074 -1.4388271242720576 0.6576737904792286 0.407813213934517
Ni 5.2989439606186 1.9308432898760062 9.024886985786505 -0.15969096023715076 -0.3007072268829337 0.9153626048191074
Ni 8.02801488775788 1.9940599543342565 12.674249341772285 -1.943939366470065 0.7047728008495604 0.2361144306032127
Ni 7.706257203488664 8.730437748974243 0.8521145733368083 -0.7346382209504251 0.5612371102160335 0.5236519528734078
Ni 0.8868108357748903 2.3558539307262167 13.020585093103165 0.8211915806616373 0.18794198466304407 -0.18463246067383687
Ni 0.7335872744560509 8.25284406799437 0.37875298196963153 -0.9879695296525566 -0.8614529992848453 0.919928626923235
Ni 4.092385149137558 6.751599200993311 7.248595299394394 -3.652698384115413 -0.053310024277050116 -0.9271691105357323
Ni 6.637833351189642 2.6703398876161444 2.2657569498865997 0.5985813551924466 -0.10748702454008584 -0.3237186001764425
Ni 2.3197553300579017 6.8958542985443625 12.557177317068199 -0.31824497865638096 0.541225700091113 0.4089624970476118
Ni 5.010285173386142 4.506502129431057 8.119628437027941 -0.005147091418578232 -0.5035251002165457 2.09632068041968
Ni 7.255047912655095 5.109405411341616 7.194700933714341 -0.3065145775933302 0.3967158184697749 -0.0005363321194442376
Ni 3.42218820619211 3.1695537235627884 10.468978675948646 0.5413833087148999 0.7524197133035623 -0.7697278655647066
Ni 0.029606981973395476 2.787430486336524 4.3839814170469875 0.2451683132753649 0.43692324392659593 -0.6376017023197019
Ni 8.735712769601875 8.061401682047201 3.1813593683195576 0.13613811261787523 -1.6697008753016211 -0.47394712944911277
Ni 4.593084906387759 8.556817131661626 2.4142952155951574 1.4890878201998226 -0.21611998975915683 1.0480834642253176
Ni 6.596338998787782 8.37514467828535 12.214524793168511 0.8733911454833281 -2.0269623444305154 1.4146212164498153
Ni 0.2171516106011685 7.693933343677279 5.413597648401145 -0.8488713059650929 -1.7167402360786113 0.8009737109528657
Ni 9.270050070361373 0.12517493931255047 11.891730678790063 1.044902752504491 0.08599800142837448 0.3214786551023302
Ni 3.115011124714058 8.085222857944867 9.038275136731563 0.46307264862845415 0.5334689389638295 0.7416997557828968
Ni 2.841657326908248 6.112959511732179 10.371602538123224 1.7329474419660928 0.5828642015675058 0.6733976289723886
P 6.701105737696776 6.984823836594904 2.5275205615246565 0.1260071948314604 0.5046265608108406 0.17492140403366002
P 8.885512211016827 8.905618583655599 7.410957276730115 1.5252095056230441 -1.7501884884347276 -2.5722341895665446
P 6.266984541854125 1.122910729098869 0.688980845624051 2.000838393649954 -0.7577850913805336 -0.8992410166668964
P 5.966549828290968 7.128614583738593 7.2814211583916215 4.830700462411455 0.6841237571406411 -0.1826928204489628
P 1.5770454274988184 2.3047846729245536 6.432040680253361 -1.051965572888543 -1.2410815232550303 -0.6850303281153106
P 4.442978993703948 2.627879686366972 6.979069606346876 0.15846377269826903 0.6124077195525776 0.5199403083497756
P 2.1619504876200293 8.56590911263777 11.108803387449367 -0.17750536271075237 0.0743169655460204 -1.051327425083912
P 7.747890861012733 4.030617257950276 0.2889336826736169 -0.019914736646056024 -0.48818307054283666 0.6779376829345873
Ni 8.407194143401469 5.337689358608879 2.5367360597091606 -1.1985256521706906 0.7467494023916622 0.12374513827016108
Ni 7.775789033487037 8.734189700265729 10.293323275150968 -0.8465164325796711 0.35282760172725686 -1.7667991004082153
Ni 2.948857261951819 7.552417913529663 1.219833660926706 -1.406960614580764 0.1402336228434875 0.7315798937400755
Ni 5.3447381977926325 4.360092445989846 0.7445440866681626 -0.4393925314026949 0.4767411472544822 2.2280874034427374
Ni 2.646295823522945 3.7832949439811743 7.690731183268111 0.23624375709222536 0.13197986747512752 0.18244779431769226
Ni 0.8734375440428673 0.4656979522440758 4.450244220177532 1.3110114154769485 -0.16688156444831906 0.11569398583091044
Ni 0.43476385680644 4.2363894974686325 6.588381890207228 -0.9918531809776789 0.022747578109160824 -0.017863767654298267
Ni 6.065521474116086 3.9018064549480815 12.36023609359705 1.9011700938233387 -1.3671298557370712 -0.9881230245112853
Ni 8.872417529529223 0.9967467234186377 2.5938381580032694 0.4756445717561937 1.0821798916883942 -1.2410630113122691
Ni 4.100817752535249 5.0808292872725636 12.260018131278573 -0.9303667915374234 0.6167117462445701 0.7347552061442636
Ni 4.882653820418647 4.828826321197254 5.897625368625424 0.2816116437040634 -0.18791138853542477 -1.2290472177983154
Ni 2.002576140805274 7.355199008514912 3.825099482455152 0.8519098356811006 0.5229230451271832 -0.28161447191754085
Ni 4.447093138313174 7.875392195866167 11.488278898652853 -2.106487593650353 -0.9664979900423419 0.48502421319888084
Ni 4.843379062963977 1.5079407998752186 3.5525833727842233 -0.4781580822066668 0.6477295347823232 0.2229627237126031
Ni 0.3594898696706299 6.5457526654097755 7.807354645478685 1.2660276516774067 0.09482768390486249 -0.6456140311012172
Ni 0.4395438798998235 7.136183495378592 10.449691417428461 -0.21932152741559002 -0.5799316013017431 0.6365447218100972
Ni 0.4149881016577109 5.3263220606366595 0.48964728885417375 0.9577536681908086 -0.5429802208883745 -0.9513724472548132
Ni 0.6763690885601014 2.379452218428349 8.4811196569543 -0.5146839450468427 0.09895507580967473 1.0345450634192506
Ni 7.3812119183353255 3.9955216541618626 5.283218269722882 -0.5231590723973893 -1.3574627649609525 -0.32488999477672437
Ni 2.4318680924113614 0.2531062626432013 13.126389190822207 0.9563030517872111 1.0496554366981279 -1.020309636546159
Ni 2.820055745957772 3.2177347218306602 0.3846028684015768 0.46310273053544115 -1.7464742728079339 -0.1667208705007387
Ni 1.7610860679526383 8.888744089852066 6.709558772512392 0.7106865952308341 0.32129842077072407 -0.19176470084324396
Ni 5.831795340074541 1.3029951040819656 6.059729167134654 -0.9625122659217165 -0.594683305689621 -1.5398126002481998
Ni 6.771556981501725 0.15062041293516854 3.286510589365848 -0.6760103840048873 -0.9620435538154141 -1.4387872721730577
P 7.11090425920181 1.9033908937927697 4.471706496005799 1.221980026538889 0.8371977262819065 -0.7829345940629677
P 1.1181000588785996 6.617346211216835 1.945966253942969 -0.41540825267295556 1.3319985592515768 0.873374947533412
P 5.149478851496949 9.144564016275892 10.017504705382882 1.1642240506753432 1.282204004326953 -1.5086963384593695
P 3.8933274165096527 6.382626367303535 4.717037675428133 0.6703156476129553 0.010488558236149678 -0.4328573013873384
P 5.334717516001763 6.589290159604027 13.326646804902733 0.008618594906946449 -0.15886435057079734 0.20246254687672227
P 1.5000189819256244 1.2079704367194237 1.249083093086433 -1.776617629160534 0.3254821198347685 -0.1259326328397831
P 1.9196060100178478 4.725610512648848 12.305118628944006 -1.1247519607226502 -0.44111465630012414 -0.5537156050280077
P 8.574638900296174 1.6509050032938042 10.352219623419122 0.42925107209331875 -0.7820735316142531 0.5197562173634275
