# total energy = -340874.7626646592 ev
CRYSTAL
PRIMVEC
9.19046511365332 0.00000000000000 0.00000000000000

0.00000000000000 9.19046511365332 0.00000000000000

0.00000000000000 0.00000000000000 13.45117468028259

PRIMCOORD
 96 1
Ni 9.033749247188343 6.990515865174077 6.036551106500574 1.1290981535064877 0.6019628700701698 1.983273131072681
Ni 4.527195515853571 2.5887334354930513 1.8136619982072988 -1.074903412631639 0.9765772286552149 0.5786946435708484
Ni 1.3018477563032054 8.289229672892727 1.855010819546805 0.962025298982969 0.4933677000675697 0.5752784188004479
Ni 3.0176064873941124 8.241108397852463 11.414344382434663 1.4013671796533864 2.3708625617611556 -2.685815499929826
Ni 8.159781972560005 6.026004128800764 8.679908071061963 1.4333763855701314 -0.9478088982732709 -0.642900488824796
Ni 6.80366452009317 3.2037961189908892 1.88971493464985 1.3614595448251716 -1.0042695523641607 -0.49107119072390903
Ni 5.527283542463872 2.564029465418905 13.141743756567205 0.7086189140685281 -0.774683409797769 1.1436174301685853
Ni 2.1767156965071632 3.7282591979534083 1.9400226213272576 -0.5188272777912548 -1.7159948732721542 0.2518652656795662
Ni 8.832845681034756 9.135726647464658 4.614223705667606 0.44809005917669287 0.16335375380071865 0.8172750192160505
Ni 7.46104010471503 5.867027464238789 2.2541609884059026 -0.3487071518009801 0.532293944819122 -1.086556423489535
Ni 1.568408004826475 6.33091618800834 10.21358438939022 -0.8455694952853695 0.09340020742971657 -1.2104386015581927
Ni 1.4728179777650172 4.914628760811059 13.216101971253181 0.15103945520973988 1.4608650779087033 -0.5531381352579828
Ni 2.8418204622422514 6.012282764470146 5.7165740369709965 1.3983584747340498 1.0616082381846297 3.64207587140456
Ni 1.563628962996655 1.4947556178569026 5.292956092989727 -0.15134850180972642 0.5138557927185924 0.11305757664932788
Ni 3.9503008337388925 3.5031571373038273 3.917506497274764 -0.8789439569807571 0.9631702112206896 -0.15864837790524935
Ni 7.19731970989448 5.0552336857233975 6.4049518173708035 0.048287117141161996 0.027305886903804585 -0.582598606610945
Ni 5.059737013601498 5.908430509322133 4.252830724403603 0.07276427634691984 -0.9443826462005414 -0.31732632349685347
Ni 0.3910441786785182 2.3314831280728736 3.203948680710841 -0.2009275982894346 0.5693859645754129 0.38045719051906735
Ni 7.760254075587051 3.6782538775763873 8.16300690674863 -1.499891595683546 -1.144418585913642 0.8032087709309715
Ni 6.989220009600991 0.7445131409700765 9.076274448055191 -0.49710377007123413 1.0631385587862272 0.15706740657137466
Ni 0.4502849973916661 4.7047553007615 5.792452354577459 -1.2469678068324783 -0.6232660024233201 -2.526625904809126
Ni 2.108614350432228 0.17164296350400932 9.21931392716122 0.45714702717263855 -0.17388370679776505 -0.6061244576470272
Ni 5.44607659321716 5.062714724280077 8.560690277384573 0.6241062389364284 -0.5889284054837147 -0.9130046461098921
Ni 5.478142125802242 6.80311309218973 6.448748978601587 -0.0028053306592790398 0.6048070243871841 0.10584923182634673
P 5.474594606290106 4.671568531439424 2.4170546291753183 -0.8439062486503337 1.127832913640819 0.3618480600583123
P 1.7692748091198336 3.9557507795178988 4.0734999368791245 -0.5640043885485253 -0.5994287907944064 1.0690405260929587
P 1.406848819583386 1.573554665258589 1.4790638178179896 0.0724022650218108 -1.0986493500983272 -0.8408921444143581
P 7.5540568015604315 8.297344853538364 3.0665181424293086 0.6114191303870632 -1.0420151465440506 -0.916645585296589
P 8.369306194937383 2.436824238560176 5.1694481902235685 -0.3199365074261909 0.4999234989082165 -1.365289717204539
P 3.4793538328053004 7.6559055353259415 2.173749933433158 -0.9728707263379053 -0.19368145824998256 0.5965093031547661
P 1.211762817811098 5.718215454030239 1.8833257233419831 -0.9275822868137508 0.2526034293971714 -0.9986974575930221
P 7.188046530651619 0.5011652500421463 13.315573131708357 0.35461220443150543 -0.24179219771428034 -1.6165723709077577
Ni 0.020962531749300975 1.7163561113196344 9.573214841310476 0.11710809256961766 -0.5601883572365448 0.252902448694829
Ni 1.5043228919815999 0.010406363584433115 13.034511248371102 0.23395007596204223 -0.6257540589524965 1.4702470333442357
Ni 3.521354258117373 0.7185877580898086 0.7917539694578475 -0.5447157155222425 0.46041824172474255 0.40203285980731407
Ni 3.684540155675612 7.724098786051451 0.10594124785554698 -0.3288631204918594 -0.571659591100938 0.04883990432083846
Ni 3.3214248812598637 5.919642876692095 11.805275518392977 0.7092403497026109 -0.5144404615774689 2.4456585238261233
Ni 1.6279162660727917 5.245843931012758 7.483009911434616 -0.04310068784421609 -0.6810854845349497 3.229347993777245
Ni 5.996125926899332 2.9619122691465942 4.819152695516311 1.6726571297164676 -0.1584555451681529 0.5565962690099123
Ni 8.963580046475505 3.7862694133953774 0.9245451609784313 -0.41148629191073005 -0.47085280679450525 0.2642988634572287
Ni 4.097798607444242 1.604590865757247 5.520698574250283 -0.6448187888934315 -1.1997019318669788 0.2412370965417587
Ni 6.576779509222465 1.8644145033934816 11.295368297988283 0.8798034767675751 0.1112248943159633 -1.61356906530506
Ni 7.387259051234655 1.285746061522735 6.71143636514969 0.04133845373747074 -0.2688844259453821 -0.04133742529620622
Ni 5.44184897929078 7.880474549002196 2.9022385795292456 1.1008054772093818 -0.23953219803551004 0.2017938029444718
Ni 5.84873843877467 0.6960113806764375 1.5562609671601804 -0.32798997385828677 0.22229346555972038 -0.30322999330478745
Ni 4.514154245937197 1.4179325204425455 9.494014170585782 -0.11143083967918228 0.17978413144260005 -0.21260657728925964
Ni 8.143781372895166 4.208911329987558 3.6639921139003975 0.1362522695982363 -0.294343489448435 1.4195975866184842
Ni 5.986117510451882 9.08650251661751 4.99793205513735 0.35501458207624664 -1.0135103542361383 0.9489286137000109
Ni 7.372921925745194 8.658667987267929 11.283598069389338 0.8220367022707521 -0.29451292514676375 -0.043606423836041026
Ni 8.779109031844452 7.899076050278265 0.22808069037466666 1.509195132472659 0.06898809713393925 -1.1141083649658747
Ni 5.179387678183088 6.48903813931998 10.536574093365596 -0.17196437828786512 0.10569907940172764 0.4348355081596318
Ni 3.7538546431381175 1.8495167595355235 11.745538414566731 -0.6298110026306896 -1.1678454494780146 -0.8059282267446636
Ni 2.684948414178409 3.5647975864434485 6.077012128915541 0.658224520776376 -0.16643830626331335 -0.33838083017430753
Ni 7.931297820769321 5.827802559374035 12.960085943290206 1.3288666984908146 0.008568458395301373 0.5061422261244186
Ni 5.235660895729219 0.06525689713968677 7.222245170176509 0.4545355576917204 -0.2803173503726721 1.2120699665140287
Ni 5.281236411948599 0.07010578650394263 12.38880112104653 -0.7543740088164556 -0.6336815413296893 0.24234215668047937
P 4.890264837944033 1.1200879288640695 3.562476074969963 -0.41665240949270177 0.507186608228533 -0.511943663297544
P 5.078568276504001 4.461244738602055 6.150831782349157 -0.70873101416636 0.730787222635451 -0.009049254686461835
P 1.5380886606022899 7.06991229280449 12.266287626599578 -2.044994262231562 -0.7746669547375369 1.943101701060118
P 8.531003237156334 6.853816887911109 10.724701994042967 0.07460184377629088 0.5854970112046627 0.13140779702174143
P 3.7242521551884047 3.694778333749496 13.125669633181907 -1.0410124163111492 0.8467390901134386 0.7285200238678292
P 4.805850416392309 8.522520437908403 9.797350984082529 -0.6768799310940342 0.9810594327962846 0.031529180956532794
P 1.4976322334198517 7.219716873239234 8.11912886942534 0.08832407845838983 2.1703406835505716 -0.7314014591806823
P 7.364549412077952 8.26099656423656 6.751453488102387 -0.48504581046543566 -0.3851126870132077 0.6076923163547792
Ni 0.32253385690853087 2.5628530858915646 6.973869175815705 0.9133975106729367 0.22742924412438897 1.226336760845688
Ni 4.756166762292295 4.021094986075631 11.188269970582017 1.9119119057208749 -0.22511730816176068 -0.20380594827849416
Ni 4.0188525126016375 7.019484211034832 8.353085024111168 -0.978021160190593 -0.31999332880605535 0.7977893996876131
Ni 3.773246524409118 8.121025781413175 4.444509820779134 -0.6536680117539452 0.06924340767785495 0.6377590538331727
Ni 0.7844668497138776 0.07568623688676325 6.868747717443274 -1.016858701883081 -1.0105137335016598 1.2305729104142227
Ni 3.054515395064415 8.477551492382808 6.830062292877386 -0.7523397519952462 0.41057406450910583 -0.6361870813603625
Ni 7.4000613690595385 6.593598060277409 4.558724325279304 -1.2697341539947165 0.5482640949951332 -0.5457392716907504
Ni 6.6647782121465555 7.759684266753496 0.8100429949219663 -1.3964442884304724 -0.8297356135769065 -0.2780293256694437
Ni 2.390155056998972 3.9057454591408782 10.99602566060546 -1.1982250902111364 -1.4131739424803276 -0.05231655001552925
Ni 7.179076636755648 1.2353731225434204 3.526104809505515 0.15624645333197607 1.7378471932605553 -0.08699713211685017
Ni 2.5490765787706025 0.9396055760679045 3.372209553073747 1.0507450702178804 -0.3148866037071093 -1.6308214246276043
Ni 5.206334121731227 2.577576210913433 7.388461164064156 0.8924396774743468 0.7280410273488817 0.22854073202101285
Ni 7.203946035200828 5.20479931406665 10.90406035296262 -0.7671104825465176 -1.7292558520471184 -1.303992046736322
Ni 8.897638459689047 8.391179501773868 8.911376366856766 0.3469649722988928 -0.30013155688512183 0.16675326640057087
Ni 3.169846541069052 3.391952510109938 8.416561728169247 -0.47137088408150435 0.31559905639310165 0.8438093180611532
Ni 0.09281358756763364 3.5983519743678194 11.233788505918039 -0.04444100392219443 0.7729731119748816 -0.5464594376862266
Ni 5.8972824752075725 4.920639324958563 0.0740677959901646 -0.6847729606888658 0.32585595823441943 0.6354075228818605
Ni 0.4156544060090799 6.8046846617145365 3.5907238883702224 -1.2279871519649175 -0.5681757463173956 -0.3286288929938663
Ni 2.649868409054518 5.9635365378059815 3.711905684430366 -0.0357056809317256 -0.4782007625191441 -4.215730895668972
Ni 3.4360943137803717 5.482268644612989 1.2620512045118848 1.5376379611943842 0.3647698616907976 -0.4355027094299854
Ni 1.9007444117651713 2.482748992451735 12.96490082793375 -0.7197330217038186 0.16509927573691568 0.8688405499981682
Ni 6.584168643128571 7.602288362181384 9.113802793070358 0.23372304755290071 0.16703557352768006 -1.5039143436896938
Ni 8.943554023115547 1.529173909496664 12.417290643677799 -1.241406253584301 -0.2321485039769292 -0.11548444092326562
Ni 8.400985727990056 0.8791442635951411 1.5469795164987667 1.2532721517839511 -0.2732347324942778 -0.12335227370711659
P 1.6319141183727373 8.262660038411939 4.491024602527374 0.5589912516046502 0.9096812381636139 0.8607063509268081
P 5.973664430299177 3.1816470982026845 9.505837703882058 0.5997118692524639 -1.3614412899927262 -0.4327809396234482
P 1.5825429400846736 0.9564333175879054 11.201465640311353 0.27319076663021985 1.2011450920714088 -1.3620293012857125
P 7.5970497970986965 3.4240088522299614 12.538485306389024 -0.5194937077306601 1.4932722905948153 1.2307469740982417
P 3.5056293724042535 5.1410542484288975 9.764691747454743 0.48422408589508864 1.2807973537874136 -1.85480539051587
P 2.6326362870719944 1.5436764633571565 7.384964192109836 0.006939664542626758 -0.7298122603166914 -0.4007884458772517
P 0.5006956172777158 3.7736325239415263 8.990993365648558 1.0780717830572917 0.6282757969330857 0.5505613756697422
P 5.405951022776787 6.908628821513122 12.619232732382867 0.4998849323607972 -0.5207964857024837 0.11881016286238893
