# total energy = -381173.4009983024 ev
CRYSTAL
PRIMVEC
9.18958502639822 0.00000000000000 0.00000000000000

0.00000000000000 9.18958502639822 0.00000000000000

0.00000000000000 0.00000000000000 13.44988658361827

PRIMCOORD
 96 1
Ni 8.584588704826785 5.041397160971851 11.028368620647324 -2.0363201314963315 -0.40551387637737907 2.3801434728424495
Ni 8.681290708156917 8.403223054563222 10.281537477509678 -0.41250367743165084 1.306465190867163 3.351286932076603
Ni 6.61611526309558 1.6882278564840618 8.917059620790024 0.30002151366981883 0.6923839402669044 -0.131188996142716
Ni 1.9586773440832035 3.12807960862461 4.191226377232825 0.7915611593897142 1.787573099730773 1.284279141688427
Ni 0.535514797325897 8.336699648490162 4.890714616183816 0.9445153151236636 -0.9715460939892108 -0.08456769673975113
Ni 7.162794487281287 0.07763453333966394 7.429649928172986 1.0092736904469712 -0.9164239562040863 -0.0786274199959162
Ni 3.1357529121293766 3.9437196076336836 7.082669576396962 -0.3489400937473926 -0.9154394808036299 0.8155451810091373
Ni 0.9977500056605241 3.2349820513443115 13.08008224258994 0.9507957488157366 -0.8117823715325956 -0.7353522162983142
Ni 4.395975845578099 6.086207031599933 11.592390429712307 -0.3764336711819711 -1.0789567567654064 1.572124425007028
Ni 7.5090212930843885 6.966183315443582 4.825160711332016 0.7869046344543092 0.28267325219935835 -1.0395957384692804
Ni 5.941765134009606 6.285492372683011 1.5092119831141142 0.11595778101525836 0.340193200792698 -0.12788178614635398
Ni 6.555831585261725 0.1820567070582439 12.897512756686705 1.4128710665279278 0.76062513193249 -1.4735303320811977
Ni 6.594565686186984 5.004353943693152 3.513083706402638 -0.6769452371143309 -0.5037829818636227 1.3179048001626723
Ni 2.3516883273027926 5.345765406937573 13.171151030293217 0.5585634200386121 -0.2851672222658057 -0.077377349638899
Ni 7.329024890991136 1.454159936041053 2.7830373403326036 0.7546995104766744 -0.22813784015563934 -0.1070710200485898
Ni 2.5764471981046886 6.590531458356334 10.290522134799032 -0.8949788989564329 0.9255531721988641 -0.8497639929826913
Ni 1.6018641363190351 4.60273231929516 11.136439059625056 -0.19942427427103074 1.0177331340682343 0.2871662549737054
Ni 3.3562386258896963 7.478548629106176 5.016310512783034 0.09365191842920645 1.0974062217198455 -0.7115651411810455
Ni 4.6889030581744375 -0.04962927294352447 8.303139283939972 -0.09327473759544581 0.23314429223129526 0.8909512658542785
Ni 5.188145644406125 6.139773122772729 5.4224966040682325 -0.3292549566136394 -1.4530350403413232 -0.9197429932749902
Ni 4.42862644120976 4.6787209979549385 0.6546844171096861 0.31282869273681607 0.3229169302107535 1.0136761903900413
Ni 4.593303805048584 3.5050180076168487 4.972073688338428 -0.32643317089412816 0.1867032271599365 -0.3951926969570291
Ni 2.43714227854929 0.7990500411442167 4.579376988927058 1.845349901529925 -0.025041773459976227 0.40366576742504673
Ni 2.2444918178619497 1.352955036043454 8.462668642241827 -0.26229957363901274 0.8144280366855587 0.6786424223110957
P 7.979904819896064 2.591986786399971 13.24325619031693 0.40156003393595363 -0.23716575468586248 -0.5456785936561441
Ni 3.3237902011288205 7.092880124330072 1.3979950302201753 0.22668439553856445 -2.033136334451711 -1.4391634245655538
P 3.5207321980278086 3.9109035994713817 2.666346151632929 0.25417103099460747 -0.0364520721794469 0.5149361702669648
Ni 6.584677692688626 6.839679487842842 11.215429975715983 0.17984378103594187 1.1896923701497768 -0.8694550436537155
P 6.594124586105273 8.52876197573522 1.3932063374580987 0.3838392196174228 -1.0392077590022426 0.27752821766330915
P 6.272038820190821 7.143239050325426 6.807431396035744 0.6788594234179083 1.5389785343826785 2.203307625394896
P 8.264717628905924 3.4630216040039348 3.6763385224779443 -0.46044960918331024 -0.955689072352296 -0.8352313465841551
Ni 5.153381444216267 1.589936054942763 10.660326658928097 0.14494002718022134 -0.036038638791112125 0.11795758505410653
Ni -0.2688716358485209 1.740617680772295 9.106312691889684 1.1183370583352417 0.37384559873982065 -0.17812139902819646
Ni 3.2301115712754176 2.5675333006201093 0.6561740488439647 1.5263335919251586 0.28305583234975773 -1.4300758604419885
Ni 0.7356097408506158 5.116733379094099 7.15956251022425 0.1649421813337611 0.056844262682553715 -0.2282918492350004
Ni 4.091478945421879 8.511724485079126 10.55705777813149 2.0400569728309446 -0.70163682632374 0.5408675454207459
Ni 4.9526165799424495 6.476470328893862 9.379600842306338 0.9901873632394818 0.7465061760326047 -0.6885609669763884
Ni 4.973918038055083 7.712781962079827 13.232441886646981 -0.3264786794200829 0.031245074057210706 -0.10793491071078186
Ni 2.746629123379867 -0.04228863241704827 0.8454289578606322 -1.2317746440318076 1.8680910518811829 -0.6313665200432675
Ni 0.08816671674902095 8.683192952259297 12.725004947439004 0.2542736180107427 -0.22769175375715625 -0.8388681720057941
Ni 0.0633732163228407 1.5596104243251223 11.496882153478307 0.8043495694036341 -0.6589025206800072 0.11981777819129687
Ni 5.318260978925876 4.965748496958391 7.63196323752531 0.2994016206976327 -0.8070564268118359 -0.006847104828820466
Ni 9.040281847574533 4.9781820055116235 4.839269481237247 1.0966742286498274 0.46543446399241134 -0.2563014470740489
Ni 5.864306121744123 2.506532835153473 13.167398922723162 -0.05690108406241813 -0.5698935003394509 1.11973316735182
Ni 1.827707378155138 6.746074374669724 3.1836416776671492 -1.0197195683706437 -0.33170521792634483 0.3672491764692256
Ni 1.9055064050669401 8.97279353507273 10.75315709008271 -1.9176755476775296 1.2453323281115842 -0.9679465495634103
Ni 0.3681696969512231 1.3757635861019342 4.138705141878582 -2.298495263742338 1.2972485573649013 -1.0293156966995112
Ni 0.9739581700032294 2.8978621243115383 6.444055905597619 1.2064546772097804 -0.9657945362174143 -0.5417406920543186
Ni 3.7276724634455816 8.78063012239228 2.909909670293274 0.02173276369140128 -1.9078593329180562 0.3986824552778424
Ni 4.779052887374152 1.0550838266979363 4.0114689043505 1.4527051678057303 0.8454447967820472 1.8986020759858466
Ni 2.5569928465842207 2.6775877710070386 10.694839064487978 0.10979690362018509 -3.1141761989983916 -0.017223820077454207
Ni 5.089449501123259 0.8223594235871398 1.498344379850956 -0.19629421328248128 -0.5169220903487419 -1.1588247340366429
Ni 4.285333241748889 3.6030249320220427 12.042167317614105 -1.119491483654659 0.3990105280412225 -1.488601110371391
Ni 5.447236804901206 2.7208890956950156 2.5733806335782927 -1.5841643868906974 2.391183275596379 0.5867049154698347
Ni 7.504472448491742 5.475798035192002 6.545091717230561 -0.4753766628067877 -3.0469498217505655 1.1277516667809224
Ni 7.5991067951888525 7.044699129988166 9.025398395650798 -2.0127181758066754 -1.2584449542341423 -2.301548962966997
P 5.726958583801317 2.540653764390837 6.746489743913337 -0.20710390230347556 0.6851082325410974 1.8298003838311003
Ni 0.5806172806808609 8.563222919618902 8.42065110258333 -0.12566523811100938 0.9712753568263273 -1.3791351077280636
P 0.40245971455324275 6.686498294883614 11.942248040562992 0.7222732716271689 0.22855975818440635 0.25659506705506774
Ni 2.6055965618377663 7.623698124744248 12.462073459357528 -0.027138250977688745 -0.056622890700367 0.33196927022100897
P 1.3927367496627772 3.7707256693375966 9.062654811302325 0.18073415406069518 -0.7010076773801733 -1.0287675375055247
P 1.6232758694520966 8.892945230697979 2.8177914319789235 -2.0421493365835994 0.40927874273645 -0.2747113170398043
P 1.706634595310466 6.894385087560059 6.235461514873428 -1.2553845701412638 -0.9929921796781287 -0.808836401530394
Ni 8.284971474324495 8.413074289721438 2.6808041257695154 1.1465554297509868 -0.34055084124243284 0.38987257029569633
Ni 1.8098152560907301 2.181552349952792 2.2116188342724277 -0.4653902410180372 -1.5611910659239758 0.40235064815804894
Ni 3.573792862023644 4.5243267797710045 9.676534713978219 0.7344682710314642 -0.16464084804325838 -0.5882424351602836
Ni 5.967643005469992 7.687409517796401 3.424596273135873 -0.9393646241606597 1.2177222797037996 -0.24077481219335956
Ni 4.1954958584403865 0.8704273860331074 12.509389713747577 -1.3662711072812017 -0.31095281587034185 0.8230494598059825
Ni 4.195982906447276 6.078781846891128 3.1836012434929923 0.07121595802319348 -1.8697100755418443 0.6036626263700958
Ni 6.441081236921579 4.76754752690952 12.366013808021387 0.2927404066273733 0.20142176431703376 1.2321862776479298
Ni 3.739131875985036 1.645376821462832 6.559482607396388 0.4348367937112124 0.5332113144270687 -1.1900340697599117
Ni 7.6486202793609275 9.482365214884487 5.098354209022802 -0.9875766650895121 -0.9903668262401396 -0.3864110941096571
Ni 6.813875133062741 4.034255399404894 1.3456346126040561 0.25148114286727014 0.5738465714499279 -0.8140254019305014
Ni 4.446619648709559 2.542896023139535 8.614046838617062 -0.19525831581879918 0.23911516510274947 0.018646154346277567
Ni 0.45124354567348757 5.823044884934061 9.320744307028518 1.077280397504248 1.4725013765960513 -1.1433081264582825
Ni 0.9685363148321967 6.982954308133642 0.762287106209104 -0.3883036831466797 0.5210466540400769 1.1992764142937862
Ni 8.324201812841679 5.92063827801265 2.2845437052813216 0.8351752965352391 0.09288135881176908 0.13305021772117084
Ni 8.957263136362483 3.2375735143243642 1.5605900340899224 -0.4372821699279114 0.027360651401139975 2.224064141215957
Ni 7.760080756258311 4.306846060317342 9.092029319868775 -1.2838243135391953 -0.5234375228697566 -1.0136142268038542
Ni 8.795241562598962 5.199586677775509 0.04590473412857605 0.9523209272110116 -2.2622398809547297 -0.06423052784429584
Ni 8.670796202046207 7.327775107426288 6.804660736147495 1.403925427298866 0.6929740084424195 0.4162328054567799
Ni 7.990831236503451 2.992229973042615 7.114115417430448 -1.4079785143223171 -0.4709952459096404 -0.14651071410145092
Ni 2.537878509710071 8.88041982629439 6.760679382166881 -0.6971523081898252 -0.41831102814204735 -0.6392680342785314
Ni 2.806131686485693 5.1547874507267215 5.180372174424471 -0.8327376336280239 0.8448534430549514 -0.401055069275077
Ni 7.542002713777332 6.923947982619741 -0.16040512575575197 -0.5805563793699356 2.1591049627357526 0.7179928990842602
Ni 5.17516995033579 8.888488281955688 6.101272437307375 -0.03233342202538302 -0.3251314213635691 -1.6524747412313219
Ni 1.60398693046227 4.5771393249708785 1.830879622909444 0.4550281810574228 1.058427526463803 0.356408891320612
Ni 7.352210214036078 2.6762552811768696 11.15352066028932 -1.0312874757139012 1.168208489244388 -0.8445991609523003
P 9.292967867299767 0.8767856599192728 6.446005935542183 -0.1669116463553061 -0.36202546617644105 0.593137815579372
Ni 6.735855556110083 2.3876012256221073 4.961434905742657 0.5883085125115287 0.7083600039801865 -1.4383375862301488
P 5.8822074333935666 4.522185606457699 10.337179495942028 -0.3010802939516363 0.33313706527686493 -0.7732790732510747
Ni 3.1048575272395253 6.1656418046480805 7.7665566568329325 -0.217697875769238 1.0216620368089953 0.03712801520054897
P 2.6175246432140384 8.257182169176692 8.742022837740512 1.9837395291861384 -0.4490544799724911 1.85238135445541
P 6.480651590085082 8.982690718156123 10.353924757793985 -0.3073712691666706 0.05311436332647626 -0.4033248391458602
P 1.9699621545069803 1.084913219723652 12.496935069148764 -0.020053061996133204 0.724056845890153 0.7911790934599471
Ni 0.2361769302086899 0.9660183685324291 1.0545728857699543 -0.39000061123312835 -0.5981602084946279 0.045988550914972406
