# total energy = -381168.816104751 ev
CRYSTAL
PRIMVEC
9.20941717599896 0.00000000000000 0.00000000000000

0.00000000000000 9.20941717599896 0.00000000000000

0.00000000000000 0.00000000000000 13.47891293922419

PRIMCOORD
 96 1
Ni 8.59585802043654 5.562386570384148 2.846409771747583 0.6840008584095316 2.5844114483590266 0.00010695789150949321
Ni 4.603087647549353 3.641578464632186 9.956346776473005 -0.17160288118338834 0.12676978402909778 -0.597734690921435
Ni 2.9984848748318336 5.368132337394618 9.408334891649522 -0.17340291050660459 -0.18767047616921229 -1.1787235298430991
Ni 3.3643105467155427 2.8156042718495136 7.6134692472745575 0.3848427211812727 0.0860432528440131 1.6018039543493319
Ni 4.130782696197341 0.8256398909452134 9.426599007463528 0.8812396949934694 2.3448789932132 -0.10073736452107812
Ni 2.9545467462776664 5.670293309488984 13.101705275661907 1.4211798435039396 -0.5240206490667362 1.6070410343785548
Ni 2.9039870468933913 5.894514985428683 4.7631242916386505 -0.18310625383729753 -0.3810351745097244 0.19286127634153238
Ni 3.765251725657947 0.9027070553090439 3.5561012606549274 -0.48048775878110794 -1.7941147575040326 3.5447729864863273
Ni 0.15397868958019406 2.379446282261304 9.67944999806186 -0.7419152142278125 0.6513912999046266 -0.7171192382300553
Ni 1.1662253136299272 3.5516577169476573 6.497415916572789 0.4793199637252519 -0.2847041665864581 0.07271671093843605
Ni 6.148722523152572 4.708738079486767 3.0315558913143343 -0.06880606303012021 0.34746505186376286 0.5657352551967032
Ni 1.4044176751736235 8.21383298403244 7.592294034743727 2.32349615666205 -1.9586375919121881 -0.1126163753468512
Ni 6.259659160453661 2.3889504006155065 0.3544741444773233 1.0351073636806238 -1.128744883932127 0.880003508593523
Ni 0.823321880683825 4.195460431857771 0.28546429905544213 -0.46123636675066365 0.2735126687460128 -0.050907585483144585
Ni 0.5985688213826557 7.235470567987181 4.106499305425673 0.9286747485469812 -0.20835962908744762 -0.0900361760534901
Ni 1.4953514587292398 0.5273855535464413 10.578075439752123 0.802050231846496 -0.42090912788652673 1.6123321075741652
Ni 3.8984383144549217 3.5257976739838965 3.5122137838943144 -0.4153838271929234 -0.20065351869244152 0.3685164732174234
Ni 9.178768070077284 9.011267193501475 9.007404764007529 -1.181284862812372 1.470239834255384 0.5900578911024676
Ni 0.9350505278477642 6.61570443147287 9.29357542534763 -0.6605670528666236 -1.0401228146173442 -0.2473727771258514
Ni 2.706914732298837 1.6459622645089185 5.713630063112405 -0.7618204377921718 -1.4182109906836027 0.12175021932731936
Ni 1.6136095825531884 4.520313407464496 3.2537017646600055 -0.6915629870275058 -0.21233789700890526 0.36788578161195995
Ni 4.289018899261205 5.906514855792565 11.336399097063573 -0.22412100568676238 -0.19860794901732245 -1.382334845612284
Ni 7.41924448441946 4.695946199260035 1.171755568544364 0.36243684268224674 -1.4537994293111736 -2.3935499760563426
Ni 3.791010465034599 5.533487419807125 2.328455582160966 -0.6359513112004725 -0.4705429888635702 -0.9869891680171583
P 9.13398267515821 1.8774041233843684 7.4810663798651245 -0.2671677003645915 -0.3854854969715942 -0.7188866145431232
Ni 5.786064890720263 6.477286893814281 1.058868376720581 0.47061215153860886 -0.2700097977990769 -0.23011296160413916
P 1.8509546777319752 2.6091107236538456 4.042986561016992 -0.8571371455183109 -1.2290973543099606 -0.4214850549946548
Ni 1.0976612039913247 2.1597832677414988 2.033429145424159 0.5322417514249479 -0.13009961973327916 -0.44401691754858363
P 7.545026701940486 9.101095847015905 10.591351735313575 -1.04658502530292 0.13111417704072256 -0.3972503508170062
P 3.5283026354105855 3.8501717599061083 5.779649610831177 -2.1152630258501377 3.0860347035671687 0.5828022379813189
P 3.9725096554654358 0.48587226449097737 0.07817229440501693 1.3265406214607993 1.2842919972042333 -0.2787001264842232
Ni 6.024063854506752 9.083855818373397 4.159484765250351 -1.6078085086721987 0.30266923570531096 0.5631929483908236
Ni 1.0496064660337385 0.7612310702614714 13.097756277648067 0.8501586573179486 0.23784863968550005 1.492265703707172
Ni 4.1363451840713115 1.85702368354149 1.8030878118813907 1.271450879575507 0.7486692451221945 -2.6628282950060336
Ni 7.021627905017624 3.3855198340893105 9.830440231822346 1.0716676793031608 -2.7128349659414637 -0.8107426174141714
Ni 8.940096818849074 8.349929748604538 12.099642424941704 -1.2118912748443194 1.2821263570114823 -1.5703521635979536
Ni 6.199116453030668 2.3364106765741055 3.674608038738143 0.044944940141806465 0.6417908007003851 -0.23867473513122123
Ni 9.015844273755388 6.089073129179538 11.36709040019072 -0.07216392375875957 -0.8396865541420312 -0.31001744854026614
Ni 2.4536741833609863 0.19788550611652747 1.5086277542906918 -1.8272336515451886 -0.1766072763765152 0.6369974930767996
Ni 3.485405170978536 2.2617315140409384 11.608188332801037 0.37080424081033564 -0.7465557983236175 0.5380424172671251
Ni 4.90429084027469 0.6743761374995337 6.721678113947331 -1.0262028621021424 -0.17794733534417742 0.42090912788652673
Ni 8.179656837508752 8.988041043802543 4.144805875478294 1.6726519875101453 1.2683598993550091 0.38756423387749384
Ni 6.59713824678094 6.205839327447885 6.790001857801976 0.5052017165880203 -0.6243741478858343 1.2760030177225636
Ni 3.1314688564545903 7.759200903922398 2.953607385742658 -0.6260253103360122 -0.11095390004276376 2.10977320638016
Ni 7.460981562308263 7.483673565820624 8.962950908100808 -0.8016923342864452 -0.758441751127926 -0.4367370960577188
Ni 1.5487016114675105 6.090159840386706 1.6797552992849951 0.22047003919773642 0.792200592745926 1.3946010645741467
Ni 3.842647666209031 7.6351316379652125 0.7907684334372794 -0.2480579761183341 -0.8401395825190499 -0.7052831648270758
Ni 7.95973595931267 6.782533020606959 13.438408929076953 0.06025560235694784 -1.0292056534842082 1.1579240765992445
Ni 8.943835842155089 2.323462236258206 4.862422988664346 0.4266763693876071 -1.2083981740893963 1.5350570878410854
Ni 3.1907130360791878 8.473824035638536 12.037370189004255 0.3530494879300758 -0.4594201394775313 -1.3559635547076065
Ni 1.2383166299833164 7.019343969599172 13.238489062742943 0.2688165488219242 0.3325739936845433 -1.6912778301414486
Ni 9.13556669488391 5.317250308414997 5.397280142230909 -0.17648206365256058 -0.09606052787069909 -0.15194731173598994
Ni 5.288562974429202 6.883330089780163 3.333914865874413 0.4450044782728336 1.3431059820186482 0.22601025228967528
Ni 7.747329965396656 0.1015743439688387 0.47081947238831845 0.0033545182945297065 0.5839636052792718 -0.5130824048876776
Ni 4.897991599039929 2.4525598439027902 5.387777865760108 0.41783151740246754 -0.14794101879007424 0.7296248268962338
Ni 8.329917685442055 1.4843462054024257 11.98530106617206 -1.4288846683473648 0.8901333979386734 -0.5288255266545473
P 7.309486652495636 4.221025773477215 4.8996925783616545 -0.052892220013341165 -0.5156879608313247 0.059920587615032286
Ni 0.4657810003422097 0.17487761960072878 6.125302975696431 -1.8274835627724655 1.5437438169818058 -1.0687258230660175
P 2.4034091853210278 2.819536692912735 9.726801136559892 0.9170127388280207 0.5985276191363756 0.8855941153074233
Ni 8.514317842231007 3.456432345065434 3.0741356308595433 -0.5408593178906298 -0.2798139283736923 -1.0867798523542511
P 0.24797828805840136 8.072578945934806 1.2316075696916144 0.3026818341108013 0.6010349589392616 0.8156156292357566
P 1.421059091710488 7.47995296134863 11.138771454623322 1.9060922137153045 0.9120155427237454 -0.9862697733526304
P 8.747334511415147 7.1988078788708245 7.047032081839395 -0.4562170591592014 -0.17090894044015728 -0.06918478652577763
Ni 5.3701768279708135 8.32298299443361 10.361819909525975 0.45621834471078204 -0.9885688537994524 -0.6842751951168409
Ni 3.222817063775651 3.4506396217662156 0.52742147027278 -2.160233934133873 0.757126117640296 -1.7709979689809112
Ni 1.9631437957464086 1.1981635718202126 8.37288514144338 -0.9003409345992944 -0.5472258835386059 -1.402230041874314
Ni 2.0139705682239706 4.519549025852675 11.439324462507761 0.9176514008532842 2.5519211890408053 -1.013643537379893
Ni 5.518908912680475 4.466290967284504 12.93874556261367 -0.6281670392693633 1.0766939288731587 -0.9605728828071586
Ni 2.9938617474928706 8.165032283297053 9.237934890598998 -0.4115649676674654 -1.6195263113297593 0.9377849383783655
Ni 6.999046414509383 0.6174435215444174 8.216677772946795 0.20481253516613757 -0.30730622025669013 1.0081948555604958
Ni 7.383779019514389 6.729735432889281 4.498047799959695 -0.5925564891546052 0.1074523146474085 0.3480330085520909
Ni 6.9968545732610306 5.464214185058761 10.142908383434175 -1.645471056219979 2.6761509802568684 0.8442456342676234
Ni 6.910672848882514 1.5487660773865797 6.007699641421885 1.8134306842238253 0.7186924962544461 -0.04767802280225337
Ni 5.095901970582383 4.288853129755027 7.508670686410558 1.5529699635657641 0.5601963276563449 0.4137054110492359
Ni 1.1844783781435217 2.6778774404666654 11.729862229393952 -1.5650178958692338 -2.1258958229736353 1.1427288569160448
Ni 6.071068718925211 6.867885897454584 12.149999517151763 0.8290709834097141 0.16560526883905674 0.40926485877937907
Ni 7.572001084362442 1.424853371518561 2.3440102874906636 1.3378275072285284 -1.309220899235429 -0.7090673144598563
Ni 5.491870064339449 9.114771831275586 1.9243979365024155 0.015617651932598908 -0.22673196094704823 -1.0560130034850392
Ni 7.687938435099899 3.842573990872952 7.092549625410757 0.2081487986282222 -0.4672589187956598 0.23753702198235221
Ni 7.5787515870306885 7.837978257024965 2.2077781444885205 -0.35482303489073086 -1.0786312551051875 1.091614811849049
Ni 1.435711274173217 5.914453373255086 7.111932685391465 -0.4585925013699134 -0.46802742153056814 -0.4868656372829938
Ni 6.989496249070132 8.427629599916948 6.262047162284324 0.5802938697371683 -0.15401936377367023 0.2814722899127217
Ni 5.869631140667971 0.032780919846689884 12.416113910127732 -0.31275027409039685 0.9375957051856949 0.44522430759312354
Ni 5.011497663686775 8.028300068951273 7.889355752639719 0.45297849761724573 -1.2172759361950003 1.096717423182937
Ni 2.677711670960488 8.19603118095233 5.613401214968711 -0.45612424233507903 0.375275903428444 -0.3468644421652865
Ni 5.2226603863064565 5.127794181687619 5.180889233574716 0.3659173450316795 -0.35483640462716953 -0.2547202186298581
Ni 5.8867053998043 2.5427292458465858 11.58073137692776 0.009847325107724975 -1.1696035698197018 0.000425260462876687
Ni 4.795546044221955 7.4362358588027 5.5698913243055035 0.9257187512424508 1.0031449518414142 -0.7724856308155019
P 5.990725764930964 2.4407165336280765 8.200071352194568 -1.4819332114329122 0.2130290095386589 -0.4108820826678278
Ni 3.685884969866748 6.113339943000589 7.1103560331993725 0.15953797959905427 0.2257379724648951 0.3922804084062405
P 8.606586991253057 2.5074755975327414 0.6543649952787521 -0.46568617499190124 0.22145271482597992 -0.7310075661763732
Ni 1.3822506084308277 0.24136224287849917 3.9655095775962215 0.502571735164341 1.0616869139413652 -1.176481784996774
P 5.013440850675862 3.8447934603723346 1.4342911820702926 1.0987817619111335 0.6373569332987474 0.660139735521218
P 5.146756371310974 6.075903662855402 9.033594504100243 -0.37301898907346726 0.11887469755173721 0.0036334829875292267
P 8.863640238833 4.664763113264561 9.471847636058202 0.7382794172474382 0.20681876696288895 0.04320018953655786
Ni 7.836937592902848 4.272322226222281 12.12848723995837 -0.06196512884888683 -1.2534570141012478 0.6653657598068476
