# total energy = -340872.00668277586 ev
CRYSTAL
PRIMVEC
9.20179721919232 0.00000000000000 0.00000000000000
0.00000000000000 9.20179721919232 0.00000000000000
0.00000000000000 0.00000000000000 13.46776036220302
PRIMCOORD
 96 1
Ni 7.040617243903554 1.0664791153864064 1.4881873676675483 -0.6637927588927729 1.095079887579514 -0.35902524589753654
Ni 1.2198086652503715 3.4589188306826513 1.0290443632555426 0.00949456975399655 1.1433574916389793 -0.8200808640959618
Ni 8.327203352793294 8.239105344607637 6.428633305068847 0.6201917343733706 0.009456003206577263 -0.4058882289976623
Ni 5.720665417687598 2.8031711434741204 12.344751340520084 -0.4841099289147276 -0.759697477911898 1.8309743495345434
Ni 7.1323039530702435 0.9386753514747092 12.593137297753954 0.40709716170409893 0.14807265927193208 1.0197781895227211
Ni 5.564980207692494 6.126363462694641 1.1880624642643138 -0.6158185450063394 -2.3169966649806355 -0.4740011226154998
Ni 3.0826573355174633 1.0530536929983894 12.0597468305836 1.2064860446683479 -0.6909168688030746 -1.3582263825998544
Ni 6.171709920219074 2.4244895755960822 9.189551635300132 -1.1388848005796064 -1.0334608292161362 -0.12015947780143178
Ni 6.162397701263163 8.184143008813514 0.7681402808560395 2.230416565796546 0.5435836588003283 0.04557537463695377
Ni 4.415500879872974 7.720041155789513 6.533816290463435 0.39357701573047704 0.30186448041582853 1.5148710998115136
Ni 3.0403198657386654 1.911553783837875 5.272991533539077 1.436620860649358 0.24585299804721528 1.3489593554756316
Ni 6.980998798631476 3.7947568299255927 7.5618107286370915 1.2340382432550039 0.20333877883408852 -1.434357518536478
Ni 3.422102439336211 2.5320033762688645 0.952255364058832 1.2586894661447807 -0.6131597672272537 -0.5484800676606812
Ni 8.501761449229674 7.411155221093864 1.1254653971779789 -0.15597674461035715 0.04505549757774176 0.3208459066143377
Ni 1.4438908352250024 3.2870936680702876 7.639978157082413 0.2410049259262946 -0.2602555466257905 -0.8545174485072766
Ni 8.427466137124913 6.340599709464901 8.69700886691158 1.7743995384632925 0.140976414546783 0.21741094065643848
Ni 4.381721081664332 6.615466599219837 11.415274105713683 -0.588924805939289 -1.3234172453404691 -2.4764719096625543
Ni 7.337430420427112 1.256413415256904 7.341896052699151 -0.6028049063554908 -0.8056919423641414 -0.8060652665431602
Ni 5.458138138228982 4.168644261364867 10.598669798378406 -0.1118175335946397 2.587405497990344 -0.14344698757446264
Ni 5.6795333833665325 3.546004641155709 1.3463554636389685 1.9268728979060818 -1.4016872819969668 0.5411899617571712
Ni 3.265708690942288 0.7977930729364948 9.386032093831929 0.26522317504371096 -1.4088406052122961 -0.7238560427332567
Ni 1.9933669644080312 7.642111133716781 7.903352922080397 1.3116973858003795 -0.8749338073800996 1.679147879647134
Ni 8.545055905936747 2.3253402087483224 8.899051811963975 1.1296501693552157 0.06169233480347439 -0.2065346600635669
Ni 6.273067718439777 6.2348526538904725 8.186661540758408 -1.231909369837459 -0.4622645509048619 -0.6429256856357766
P 6.207707351598047 6.412677388399333 12.481476246998733 0.5994802128576321 0.6889309487212975 0.6579638109158217
P 9.192006674843055 0.38244234247021286 11.225418941300715 0.28895779965648943 0.09718461417281327 0.5017744360740262
P 3.0253025324026517 0.3550679154228439 6.965418315295363 -1.3501348638409714 -0.8451234088868865 -0.04661564297601004
P 4.5590949281012145 2.198281790424993 10.581404465940686 -1.043377574109216 -1.0837372088731851 0.23743083542179114
P 7.292636070745916 4.394180315326685 9.519632990097602 1.3005933054674184 1.1228115491668276 0.21379108451566406
P 4.051275335690326 3.442153155843058 7.224309044426532 0.20788937431924842 0.694188854686127 -1.4941881175408653
P 4.605784848044188 7.3670510062167125 9.140541942235831 -1.3746709013091227 0.4102102534117838 0.11979438115252918
P 4.503083587404944 4.432818662555803 13.442629749131047 -1.0397978271777577 -0.10596750257176589 -2.425826576701861
Ni 0.5078968875089418 4.22777501137542 9.654108057115065 -0.6268290371842301 0.8094550089509993 0.7166235295405594
Ni 4.043426202518991 7.775702828185067 13.287588664953052 0.2520223600827208 0.3148711770881416 -0.15770478304505745
Ni 1.9848737054195875 7.875809181961102 5.817641319992487 0.9262280867787016 0.34475613757303203 -2.112600648526626
Ni 3.5711163462255504 4.796013605431078 1.890819373785155 -0.4383833734118902 0.11515122595356297 1.7494276990093032
Ni 1.959108672735251 8.679899044849702 0.3999193162478417 0.259206793646302 -0.6650253457482933 -0.7527678406716004
Ni 7.861840853527236 5.080892050743356 1.8840054428198867 0.33381352251859925 -1.200595647325842 -2.2882000524639174
Ni 6.477494849195214 7.53687937879604 5.109748887349814 -0.9336475191712243 -0.6043334271848754 -0.5934694878871779
Ni 1.7173314463849128 8.09368013869933 2.755948439462425 -0.43943418327390765 0.952159976153115 1.2041651098446553
Ni 9.133648875813032 0.4010594189441236 0.41329228839075116 -1.1217378564866745 1.3735925806432796 -0.539142078089207
Ni 7.920612733439686 7.850679073296487 12.255015412399494 0.004949630695791476 0.6544293154000019 -0.15246461769204064
Ni 3.2127063379916523 3.7365554614511534 11.610690836467512 0.4002917087464913 -0.2939297989497841 0.9507998625807949
Ni 0.903743488233181 0.7201841935925791 7.627331206753359 0.222764491658868 -0.5087418685307948 0.7286622058726483
Ni 6.100764062363274 0.23973902822905924 3.537172756023414 0.32845637197174404 -0.06889733719234585 -1.2218884952663474
Ni 4.2346947630106415 8.532173389594579 4.368712500697957 -2.016375827163921 -0.45864803719819724 -0.5111013699019068
Ni 6.432921342651311 7.2026792994880315 10.289396468012756 1.2791497908816616 -1.0394440433827647 2.2334666654767794
Ni 7.930145795532891 5.592751232207254 11.358641643693774 0.36579341785930547 -1.0823341578780714 0.005752071992428803
Ni 4.175177537509824 5.3125012909807685 8.77477141627186 -1.0271066048633344 0.08846471780131215 -0.687156373319378
Ni 0.890169916907229 7.807191378844282 9.856434417526991 -0.8454396545757247 1.3155951781928892 1.13124579597711
Ni 1.0133939462592856 3.427853562703251 5.006733845419664 -0.885763808116068 -0.22849650904663873 1.9037090581951084
Ni 5.78632024204572 2.5870301246446976 5.667031821436196 -1.2249355096227872 0.42678024195532305 -0.8345145230227885
Ni 6.165461899793121 8.742259625743184 8.752845373457491 -0.8286356956445085 1.938279082860494 -2.2248411285912972
Ni 8.537915311164232 -0.08651069813635406 2.919325431893543 0.6742273239625356 -1.2188095992307073 0.013974202791904965
Ni 5.018954752529689 9.271270957536938 11.116209249369462 0.5058545196806706 -0.5834375575724726 -0.4196760268103739
Ni 7.874732571666793 3.003024980928088 11.041570710222155 -0.350008644221223 -0.04592787288036606 1.0782422471968849
P 1.68946840389628 5.461680830223078 8.289447457933614 0.10308143927322247 0.27358594518610946 -0.24023925140486366
P 6.213237631827792 0.4994864446969834 5.670816520701578 -0.7740650594874797 -1.8301580242808353 0.31411501564840744
P 9.02791102203599 2.2588296172331845 6.52395840492246 0.18625328410671146 1.5295209885142045 -0.7767636893655655
P 0.30426847276671914 7.954548962203913 4.56862799019442 -1.1897095965409574 -0.2672453476800623 -1.1775302808659462
P 6.735660476692268 2.600262309287582 3.118150508399614 -0.9865322829853977 0.3177487557462528 -0.22059833724548458
P 0.31354848543177405 4.318017038352309 3.2022963446074413 -0.2409182797497593 0.579877093914724 -0.5007912462251505
P 8.318434039883233 8.697235231127305 8.513214006257863 0.773241792255236 -0.25213137485675935 1.6980457449929016
P 2.4069509497759585 0.9337983988594597 3.358806035648445 1.6847120039984727 -0.543615026258896 -0.42177121877650586
Ni 4.00580925479986 4.2179566935632105 4.465855875715294 -1.08672611629818 -1.9389316288428284 0.6721449875122102
Ni 4.824290728802137 1.3132345141232538 7.371080473292595 0.32226746955221275 -0.24102960851664298 0.592471642750283
Ni 7.451486699042238 4.015618370814681 4.981926719843342 2.1969186911494165 -0.7288604379263834 1.1080030233990854
Ni 1.1528563874606452 5.940238706942471 4.6347143788500045 1.5737208229598703 -0.00829000792293411 -2.0209261655387647
Ni 5.599330517339148 5.010277457593499 6.193069132314388 -1.5654693815843557 0.8944273973283371 -0.7558385091771241
Ni 0.9991863710933513 5.844171942219444 1.7432400271084907 0.6226985599556244 0.2257253740594048 -0.09413939958858626
Ni 0.27940245568711813 5.199208761548785 6.487675717824482 -0.38246419364676715 -0.2888364435872767 1.7385215936197607
Ni 8.86011624667925 2.316984976720687 2.3952812303294313 0.21274310286712392 0.12776685783504446 0.49423827559798106
Ni 7.865687204835113 1.5156556530482674 4.533423753750228 0.8873661196061815 0.21527769636351957 1.9385513626852742
Ni 8.179827365838888 3.0850774082303127 0.14469090247680247 -1.0940889844211545 -0.16182111920627615 -0.23643221895394764
Ni 2.173602569832354 3.0243823526639257 3.16955634950356 0.04998584499982359 0.3051338951957196 -1.325394423671498
Ni 3.21873351528031 5.648118447086415 6.233027937468579 -1.2278208015903822 -0.27113851208688144 0.5285977269144574
Ni 3.1674334948463176 3.221116780803611 9.205430256871594 0.5860158598226102 0.3742896282557748 0.279691286752899
Ni 2.243977916250142 5.659915151336887 10.4338103963882 0.5919060000548 0.12110255844099142 -0.3736777057033887
Ni 0.8298190085631253 6.6946204603450745 12.002966219625753 -1.211330774355159 -0.41170534990007157 1.3378218508015733
Ni 4.017541546468619 9.088817718942286 1.737947153251337 -0.34400511833962044 0.9387485878432155 1.5271074939767055
Ni 1.3690894242639406 1.9913149635906715 10.035192214290918 -0.6781665111159417 -1.2502256516481438 0.15966627764680244
Ni 0.8715749247470478 3.065275140252923 11.942872961608495 0.0907889950591146 0.9448858110892049 1.19055420392944
Ni 7.270018052768023 0.7425620446586643 10.410606223916739 0.6084284231898553 -0.817877685797056 -1.4610411984752516
Ni 8.034558590486165 5.952716344199599 3.920033780274747 0.4554907225161381 2.1583333746770506 1.0997659802012738
Ni 2.734967421239727 5.753129358869863 13.288302724430304 -0.6675154591599988 -0.8751256116759316 -1.013623739885551
Ni 1.027757951980803 0.8568336453326524 5.103863417740921 -1.1339824781819825 -0.5001142747627838 -0.2931360994038952
Ni 6.027306113820754 4.708348081722623 3.3407585504328057 -1.2567981626593387 1.244482321406463 0.13893264464387683
Ni 4.35207289048257 2.2776380910927503 3.144613957505644 1.572116454587228 -1.1508905667912308 0.005598320023383907
P 6.56630139577969 7.198317647526469 2.7651732413431565 1.133815613586815 0.6853727990563939 0.36516324047447435
P 4.246693906803633 6.176918137540265 4.1153170849664615 0.11985197386334197 1.8747427528697453 0.6724188099988871
P 5.123413556469899 0.5281776489504697 -0.1666758367944515 -0.8505777471332384 1.783344663471722 0.06737858655497428
P 1.7573224578299582 1.6895420182753782 -0.05897892035366286 -2.5873587039128085 -0.1710719483805828 1.4723309124564579
P 2.545023919571842 7.814442395185445 11.493911746005496 0.45984925659515 0.6700963325132975 0.36447367060661745
P 7.5193775601654655 6.038771553365283 6.44840428693512 0.22735905300808584 0.08484846120496356 -0.8066139399577785
P -0.01623013023165466 5.016553083411613 13.271575697139738 0.21013086205525744 0.11545101658216891 0.049374179557753674
P 3.036317083875206 6.906491845186807 1.6350535750466997 0.35396660042770656 0.3564824248710248 -0.22583001795806915
