# total energy = -381177.7721116029 ev
CRYSTAL
PRIMVEC
9.12653024040835 0.00000000000000 0.00000000000000
0.00000000000000 9.12653024040835 0.00000000000000
0.00000000000000 0.00000000000000 13.35759953066210
PRIMCOORD
 96 1
Ni 8.63768604859794 1.3644619268853977 6.995936399296649 -0.31857176586818037 -1.7541194480580176 -0.9980528820304876
Ni 0.3264788085984274 7.5128046711434555 1.1130752977339478 -1.5444943219945853 -0.591456314111891 0.04893220692432863
Ni 1.7595859338589197 9.194249251750024 7.3560565115885455 -0.8668692852044103 0.900529653571333 -0.4228935053064072
Ni 0.9341642717648818 4.367820549670232 8.405750793679934 -0.14915046571714313 1.57079670733454 -0.8726349840435939
Ni 1.2897612755924177 6.292523671457386 3.0364094399616697 -0.8882796325593865 -0.9043978782774876 -0.8604294431163376
Ni 6.219821730321175 1.4125769951342175 2.4175521909372146 0.504051662143977 1.580898314544916 -2.573827502195593
Ni 8.330879476268544 7.801294296967658 3.7627288464423807 2.7621271273083723 0.6835560575626293 0.8984987391842332
Ni 8.858767120915735 8.581703911147587 8.870154292891087 -0.5660013643738961 0.2214259753531025 0.28423905402458144
Ni 2.8333313615034394 8.66687269280502 0.3247794486386531 1.029867198327607 -0.15442534096283728 -0.20691132667669526
Ni 4.560034406344814 5.776719553054777 5.554063241590596 -1.16061473605753 -0.11683195609009557 0.7524058293464914
Ni 2.9235836205915615 1.7055021147309783 12.238806858049431 0.32544098218418793 -1.4625671482014746 -0.3458678825799721
Ni 0.6644168887623362 1.9654348269454394 11.655213609822892 -0.9240981849198924 0.08186649575850417 -1.5222028575862365
Ni 8.938341339440292 0.5777851242823907 2.302956737323281 -1.4849025784738814 0.701220821832244 -0.36111195322323614
Ni 3.068093102885153 3.968881652991094 12.434121909752644 0.08212232052305211 0.9819775737351798 -0.2830020962936868
Ni 7.229581053357866 3.306332052347823 4.0467382584950835 -0.04540799582115406 -0.8738876255037725 1.1647408424107617
Ni 6.3052643078904955 8.50049604368211 3.07696317777723 -1.199893736162811 -1.0989763944204427 0.5908639319435308
Ni 5.62511875664333 2.0877850934370326 8.674826464045317 -0.4782843233718859 2.4142069901850616 0.1875421781214641
Ni 8.872639447117974 4.1376859591993975 10.365309960356292 0.43760767158813024 -0.5789903204343964 0.3142448563580523
Ni 6.9691098758500285 5.587654349366887 10.5890103468978 -0.5037341309035582 0.2545296998856068 -0.08820117972728037
Ni 2.3548364993605375 5.015210983325399 6.669703094365879 -0.26881217794654994 1.0963973208393567 -1.2412576438215783
Ni 0.9396128104114192 6.8701235271727334 7.836796500208916 2.359430151554498 0.1913127009074899 -1.2665644980174833
Ni 1.8674250170205386 8.417973955839578 2.581810572355165 0.5368314276781594 0.751331622445706 0.6927408093856908
Ni 5.480636653940927 5.6531919641420725 3.294732232214239 0.06917578766471312 0.8937483689834413 -1.3718028357327086
Ni 7.307302586211992 8.577469201043746 0.2723384049820296 0.5911212993699756 -0.11244642542789021 0.1029971070895323
P 8.770011612812592 9.18713055804098 11.133813102981327 1.222233537310592 -0.7445688498005757 0.4117886536424973
Ni 3.8765394184422397 2.250264714080762 1.0840885245425447 -0.5953044842133877 -0.6344721555517847 0.40435430885163903
P 3.221628723740596 1.904487856959548 8.643115421530647 -0.7137312955944288 0.9410219572584245 -0.3200910307261842
Ni 4.463183665780232 0.25193787158738107 9.041438277408039 -0.879251718029163 -2.3026445100240216 -0.23409637173191944
P 0.5684158281776414 8.621294800006346 5.41537100977155 0.6066744166132262 -0.26277445639290226 0.668107841328359
P 7.938402163109924 3.541732650857271 8.237684823780684 -0.2968294890950824 0.10290069072098407 -0.3545826367451506
P 5.391333554014011 3.832211860307847 5.139857484864677 -0.7221650281840789 -0.5009401130981889 0.5640866638496866
Ni 2.848353630535601 7.487551561537142 9.157449255886426 -0.5708363238686943 0.493430177874389 -0.2580873353298781
Ni 2.5051413284557227 5.700020191605026 10.60938076274214 -0.510389688546863 -0.741995946867077 0.8252657507310109
Ni 1.48789825049414 7.976103860176668 11.602130971079415 -0.16060730140383309 0.13152606776716058 0.38845075024750514
Ni 3.5499465282138596 7.880129266530121 6.887606308799714 1.0162876598709594 -0.6642303606508237 -0.672650466393719
Ni 2.458596023435051 6.948757713066479 4.9225429316413996 -1.7888856478946096 0.4800673834142377 1.6609521825747136
Ni 6.0264579308166715 4.5899329199227985 8.439491576554722 0.27528313038287433 -1.1279822947344895 0.5034222560900942
Ni 5.343200232704399 7.587843004061095 1.0303998841807593 -1.4154090024584334 -0.7444989157945888 0.7253287706240411
Ni 8.268225845098561 6.633691630728514 12.074628790098966 1.6144704940734065 1.0227344439375678 1.8532969242911437
Ni 6.43905011696854 5.736006100957283 13.372426888358286 0.6819928268405674 0.3317779801458092 -0.5494162063217055
Ni 0.7037458461987246 0.380737857109976 0.06799265145176557 -0.5490626796370286 0.9302703751688753 -0.3377275128610248
Ni 3.3013307136906995 2.5886947142330263 4.800227345965313 -0.8567031433046859 1.2886250773619483 0.2461409616012793
Ni 4.04566315321441 6.529685690333303 12.48453412570219 0.9891470949004254 -0.2943170070858737 -0.20685321974525023
Ni 4.292727457570215 3.929701458000164 10.049723665785743 0.5381398620769376 -0.8558839898375001 -0.6454168274887465
Ni 6.197452604320064 7.921308171677822 11.339933966673653 -0.042025452502166334 0.717464537384616 1.5834871583180148
Ni 6.581989836033983 0.16282642879878517 7.684600654015636 -0.058637092916918376 -0.9801513191597183 -0.5723661302496594
Ni 7.970728333773299 3.629858428363076 12.676522557075986 -0.18317490229170388 -0.24528864090331307 0.6013884856239385
Ni 6.011262257706981 2.6513848515245937 13.361740633917364 -2.4213891097557974 0.8261250134075127 0.2908280200960088
Ni 4.471096367633746 1.2393737012749415 6.62009310043816 -0.745419113616013 -1.238807382508873 0.618696894995399
Ni 5.049736647814261 3.415494482416892 3.1028104245123362 -1.8277080200784457 -0.7179070242386733 -1.0351664990533336
Ni 5.091043324387509 1.5453862654598676 10.93390375587666 -0.7713137219945878 -0.4073707270804597 0.9803796331204405
Ni 1.7835156965577827 0.4891719900534279 9.710707742382041 1.036309097298209 0.19591857511061742 1.391518568994081
Ni 1.2606841497500922 2.9606008278785896 0.3138102717554481 -0.8607631723066724 -0.5774456016550958 0.047260989869492794
Ni 1.779144088497998 2.6759534713511917 6.804214462610422 1.0280219175887522 -1.4710967829390407 0.15513985053135862
Ni 2.132231296466576 3.3147102072515433 10.20830534529725 -0.4546188614341461 -1.2952811492258853 0.1532403195158006
Ni 5.624899719913821 6.673173001222517 7.60572370241335 0.06795219967025716 1.426609499159943 0.18371277707304492
P 3.418697894585962 5.506784163526069 8.41731775830409 0.7439731251981058 -0.007459284491522637 0.27014992292136697
Ni 9.10638814362571 3.2260094583307772 2.6329830282867155 0.5014116534179688 0.10043166035520122 0.17772287803819714
P 7.3319624713425515 6.869493796575394 2.118047755577826 0.06183965901461608 -0.9968436922137348 -1.9407653396174573
Ni 7.472958239433602 0.643539037827966 4.762117692989857 -0.30282838699099457 0.12761721963105763 1.0219643985407627
P 7.784966934088838 2.2470339223205036 1.1490310895358966 1.0699201004844348 -0.6889358338173038 -0.33634374513962073
P 5.500021404502477 8.40392822555981 5.904019136980234 -0.15886203657795223 0.3591620285857169 -0.20027505230710022
P 0.538363076235961 4.686509864575494 12.305835747891356 2.6487779875605546 1.6654066188016416 0.06442181791949551
Ni 5.049298574355244 0.4948988878770498 13.171234351079914 -0.05580579411571035 -0.27897086364710666 -0.4975526846831947
Ni 2.9885462639517852 4.943074887073753 3.8046314854505003 1.802135313815664 -0.348654958406806 2.96529261378939
Ni 3.8036001875157286 8.39660874818205 11.116688993998917 0.009901575384428108 1.0135070118020288 0.821722770574759
Ni 4.558263859447949 4.581034552786494 0.8295057844463419 -0.5138779042057796 0.6107809825824321 0.896900798569494
Ni 6.625924953361338 6.728333750937212 5.01657996288483 -0.5107349877014236 2.0330823412853247 -1.2639923664149328
Ni 0.18879232042904265 5.89914283178954 5.760250728954815 0.4399530318918552 -0.5153624591711059 -0.5680754732941056
Ni 4.085089764526038 3.5044507741887525 7.140265176288396 0.6488608201732889 0.46194496278191416 0.43197541300301734
Ni 0.37266909158668654 6.467232842832036 10.098839914419028 0.4049073531416317 0.16210985409128856 0.30771682543154744
Ni 9.015560913122625 5.074533430900765 1.0981360801283913 0.20167090421336234 0.8085659214778267 -0.32109118985592444
Ni 6.7149725104371605 3.232270258182577 10.700679834866708 -0.8882055847883412 0.21895308833257773 -0.778792032649504
Ni 8.095971710400491 6.113433765492554 8.405483386339323 -2.3077250098707225 -1.2036801997884368 -0.2831471065119833
Ni 1.8461510746669727 1.7025633719433986 2.6773434419305344 1.9771914436549756 0.014311274416349546 -0.5664955304014954
Ni 0.44154701648688455 2.162266708000504 8.852883246769299 -0.5731675431050323 -0.2722985938332536 0.9169024385024015
Ni 0.4964905547781488 1.481080732288171 4.565974864979707 0.430890921689587 0.7304691771744001 0.4261120122437049
Ni 6.515868123313441 2.5508743722711316 6.611504122682287 0.744099366363325 0.3349602345285328 -0.9007322565004423
Ni 8.286716195681283 5.519543053019971 3.6150743617742553 -0.8784063393097323 -2.0001267122949105 -0.4044517536614518
Ni 6.842716556392914 4.170851770659224 1.808699444533085 0.668673484023842 0.1612945572788448 -0.20617624828288364
Ni 7.99275977814975 7.595600554897874 6.5762264320887756 0.6012270203454098 1.558646445125251 0.27491880506492006
Ni 8.871261341028147 3.4472548081957033 6.076732336157234 -0.3817183166196781 1.2114454455561523 -0.6824291430470376
Ni 2.356753070743742 3.9713184366068823 1.9738796055210528 -0.03684262274964622 0.4553603675858609 -0.9942119110178426
Ni 4.797461094602221 6.264925043539246 10.049109450290077 0.011249347661574174 0.9252366693997098 -0.25941376745078554
Ni 7.291404170261793 1.362572735093382 12.049703322933878 0.788291744609823 -1.1737399605855785 1.1674150468088154
Ni 2.148047573643208 6.205210155156843 0.36033093514405007 -0.5203840807554134 -0.800784477760195 -0.06416547893431529
Ni 6.904804342678332 4.9738678006305665 6.246240297859085 1.0437526980604477 -0.989126011854503 0.6747536287796508
Ni 4.068169177171464 7.744563784024816 3.6266285492558574 1.1633287925545837 0.335822325418512 -0.7787174706578267
P 6.709669996276963 7.687267426197408 9.365039490972542 0.3643713407007983 -0.34626614645965526 -1.7106750037211378
Ni 5.259847630595812 1.3932652568158368 4.38757036144763 -0.5646798173489953 -1.0818101670538014 1.1396551030867277
P 1.2810819451856217 3.7242997649030585 4.407113000985036 -0.30579286893595725 -0.23545802796613644 0.4013144935840508
Ni 7.238707583754076 1.0135924658030988 9.835587883099464 0.6497974730549454 -0.898988020115826 -0.7542577949535656
P 5.282928625967827 4.548754014775098 11.852211593731166 -0.11254335601707069 0.5405073338678497 0.8546264632813152
P 3.7984345713114736 0.4028240606688045 2.331395006037872 0.3331208673269489 0.37958044434106886 -0.16604826991374627
P 3.382565960747366 6.2606994599658 2.1314856589332054 0.7711694831072397 -0.17167667184411722 -0.8070201742572618
Ni 2.8996082252407174 0.25207568219636384 4.940174475713838 -0.9198882606036027 0.04447211427044599 -0.0215746408469822
