# total energy = -340893.59428925766 ev
CRYSTAL
PRIMVEC
9.05312722543034 0.00000000000000 0.00000000000000

0.00000000000000 9.05312722543034 0.00000000000000

0.00000000000000 0.00000000000000 13.25016679854607

PRIMCOORD
 96 1
Ni 6.454635235840694 1.7563247767076264 11.199000763499177 0.7908240241133735 1.652958879956592 1.6231052869302691
Ni 4.729199729027846 0.441800753577959 6.072366035889368 -1.325800400860665 -0.6255771670550001 0.6138542221911171
Ni 2.732505372901634 1.6503217107058863 4.865368720063695 1.1944175435395883 -1.0239917133834364 0.1459520133845035
Ni 3.40978792254056 4.454301522593235 4.979067849470344 0.009579416158318987 -1.0729383184854684 0.017532352456808516
Ni 4.974720537804614 4.6050813555643675 2.4840884687440505 -0.9708698938577924 -0.17339005499079818 -0.26956422562122606
Ni 7.100331424792963 6.040020117833375 2.718086457262299 0.8321863891102441 -0.664104890816553 -1.040238771369918
Ni 5.100767227354723 4.506818713290656 11.364191364295191 0.3372197199866709 0.37564897049714663 -0.22161546565608933
Ni 5.442377927885056 7.768732856680782 12.611548426345337 0.2313056963606597 0.44196029212987115 -0.2968911955709532
Ni 1.8856305920379581 6.629686502747317 0.46980750778267194 0.04086948452085219 -0.4672825729447436 -1.1066634786520555
Ni 2.8899120949592185 1.523351602184714 0.2889224057294505 -0.1811450163458687 0.21841109978617868 0.2657399667791294
Ni 0.5341055328628802 -0.16720311096530355 4.789550590663116 0.8664401680867916 1.1753996076761888 0.4600418322219303
Ni 8.561660052754608 2.424825792994286 1.4593604781154765 0.4568847746501873 0.6662160236222848 -0.2853726534083924
Ni 6.765474357129425 0.6691392617519533 4.784794077649425 0.314066164688343 0.6095136858342342 -0.40776050631971067
Ni 0.7779723353061867 7.573529328699784 2.3487903885416923 0.12777020026915414 -0.5573832836875819 1.1043469147037368
Ni 7.838297085834201 3.7222022879563985 3.814470854732651 -0.2291734805090053 0.545646454866628 -0.3018711652840479
Ni 7.146203620149596 3.808034986629428 12.65066336758431 1.213967697757374 -1.062382654456809 0.8114067333607317
Ni 7.841873071065279 -0.2522916425851819 6.926922395154485 0.6556395336580192 0.7816996932146022 0.055541998931362406
Ni 6.973768706994319 0.811673506499122 0.4219318553839186 -0.31751529957920804 -0.5116101912175254 -0.6716217680188885
Ni 1.6461210597002658 6.416141339125399 9.260739816674205 1.2993231805057428 0.6799110046108742 -0.20581449406809071
Ni 0.15379724025598793 5.139731886682718 1.5012574453329548 -0.5864004968555385 -0.963548677606031 -0.34977775915733955
Ni 6.241787163010657 2.0783535631751215 7.0332414152943645 2.183607832973123 0.10349975775756369 0.5016553939976586
Ni 3.263181581193547 4.041460817510704 0.41011752443061167 0.5771470965780705 0.5302458040408417 -0.5858981032978232
Ni 5.760504816543451 5.391716628256929 4.5295828015527935 0.6655403377114989 0.17242100620930953 1.9790611498738626
Ni 5.458528706751493 3.0477262077393306 9.176390020231178 0.07706418927385437 -1.1159497890499877 0.1891239207862872
P 0.22554146243128817 5.655398010131272 12.493263888028459 -0.31033857932511066 0.22942313462596617 0.13916095860459904
P 4.072250503006641 5.87624904737719 12.683841268026976 -0.674048118072194 1.2294796773500438 0.29292398339308906
P 2.4262290277052148 8.695103147200388 1.2112749184122154 0.9603353128750557 -1.1990385872513674 1.1814303872513008
P 6.231991679415654 7.920209780443796 5.872050206997003 0.36096360057082993 -1.7414192268825297 -0.18738765482147082
P 4.92341646614761 0.8944399110005916 12.635265808898192 -0.3999875472425111 0.5248032928690317 0.0906475843852439
P 3.8451528080152966 6.244177188582819 8.25321095703804 0.41031823974455783 -1.0105957516925046 0.7094524657134169
P 4.684848459035316 0.8984241922669137 3.9198365805818143 -0.3772636232824341 1.0627495508779246 -1.2729192365909174
P 0.14624240563488858 5.758694191109994 3.6488438932071716 -0.2128660015982334 -0.17249865352478033 0.05484291598180878
Ni 1.508649323665043 1.0183500625392214 2.8133416506910387 -0.6315084449377705 0.5968049800183141 -1.6749197004983993
Ni 1.7467375150374715 6.693474836768008 4.8677931475190945 0.5447974766027714 -0.5714400188909643 -0.450007845024696
Ni 6.1518715039851815 5.44706744775771 9.054713275164717 0.4895971772815439 1.0176035504689054 1.8857912973744233
Ni 8.685036069790367 2.254129080255127 10.183256190958698 0.9180715191098382 0.5515579352550565 0.23453448771060253
Ni 2.2354072132731817 5.433650713295793 6.926988482982807 -0.13308544183448046 -0.5896400868387588 0.9386904809117704
Ni 0.46679824831226635 9.143205782599495 9.128000150209322 0.882490536681435 0.0849371642640279 0.5874888448237108
Ni 1.698529612871679 1.0334054130184165 11.416569136834235 -1.8397089011940642 1.6621384895733309 0.2273096878273892
Ni 4.005809602725936 6.901778239760069 1.5630694816930268 0.48717751209645777 0.4486947826402272 0.3416669571247471
Ni 5.572661480949455 7.771014244726938 8.105670332967364 1.2091196256364531 -0.035275535372842476 0.6550273539953171
Ni 5.2589434652215274 2.8314379465857247 5.094053428247465 -0.7441538737503443 0.20888567679424672 -1.4623288069384237
Ni 0.9401400969410463 7.653459388459742 7.087434339830449 0.07822041436548464 0.0744383216152331 -0.29154587209863986
Ni 5.1189549598338 4.64675289991538 7.21511330820882 -0.053485630622965956 -0.5172077399099608 -1.4221288376807701
Ni 8.153472655036062 7.310255337547968 8.785828155794619 -1.2650493469245372 -0.31807580006836833 1.642168217098991
Ni 4.860270904155797 0.2500844901817978 10.542548554159456 -1.14226297302322 -0.9158984227179194 -1.1763146632912902
Ni 7.863863116954614 7.501556967719868 4.395345747854442 0.4225284086575045 -1.3630497721304267 1.52554117793085
Ni 7.295824652843316 6.147363046655874 6.776003144024978 -0.42069161255908194 -0.23026285691844214 -0.5573529446702788
Ni 2.367709613695885 5.1107166141115705 2.475382981659989 -0.03788186264743799 0.33024457422041836 1.0083632628175603
Ni 2.3048718580277594 5.426471583452137 11.4287329184962 0.09986884587319575 -0.5449190897823003 0.36331333174992914
Ni 1.2011327000467058 3.145690096816522 3.9146690555947274 -0.5041154255023771 1.105427549362425 -0.3960139073067438
Ni 3.593602616545115 2.6633575875979116 2.6486951428377767 0.03624535548527951 -0.6161206496277906 0.5337167933085776
Ni 1.1419886202628329 3.3623314299296525 8.29611463199652 0.9357946474212141 0.49563721282803674 -0.14304460992972137
Ni 3.8183012328371286 2.64118647916523 7.112477100200594 -1.0151327203309097 0.03287206813767242 0.46456465979294825
Ni 4.28599483542624 6.705859514732854 6.17033807278101 0.17008515898728127 0.9406440050937156 -1.1464677551331868
Ni 0.7048936821864286 7.439850852947653 11.308673061941816 0.4819571442377828 -0.17546493524195586 0.049256165922650655
P 0.16495069292608303 5.70348822164389 7.909104309347687 0.1665339513009132 -0.8481855927519779 -0.5331987160215785
P 8.771683549908452 1.6755346698667748 7.882418406396681 -1.072194241230592 -0.052824857110515475 0.5414064486433514
P 1.9245047200942798 3.3704339787443724 10.553836898424343 -0.1780010714002483 -0.41253118823547663 -0.4594077981823572
P 3.823941331062348 6.1791214167587105 3.87966242346427 0.027185302165540277 1.152498534708299 -1.5695687484647098
P 7.07036557386925 3.8330035113567997 10.435632932939253 -0.5114574676897449 0.48189620909286035 -0.6774316898324463
P 6.347509582070211 7.534935847585647 10.331764594323557 0.06869113471881073 0.06194327447201591 -0.6599813555664827
P 2.699977486989579 8.489488522977013 5.876727052491622 -1.7266238137409105 0.2736422523453416 -0.8891052137844752
P 6.869340885119687 3.9750380234843345 1.7033223383940395 0.4065387180974676 0.157835909306283 -0.2476401718546251
Ni 5.300832284624555 2.632957186570168 0.6657370965624875 -0.354791410321847 0.925301204089058 -0.6695075498893631
Ni 1.7015352510912174 1.1032231297325183 6.987952241327305 -0.403702277089937 0.5531242513009119 0.41801535127849937
Ni 7.062118175019853 0.7204288484054896 9.209316243738593 -0.3986102072790103 -0.7114291298238136 -1.2198717219466346
Ni 2.69584020787413 1.6921652644730774 9.32332046353078 0.9527122491121592 -0.6380333905404818 -0.6527313588722887
Ni 6.233856623612115 2.067471704320045 2.8161110022915112 0.7332354270656275 0.12718244608648419 -0.25538999100337306
Ni 4.110364168380911 6.891964649910731 10.526714634743874 0.23813763168082858 -0.43378984050393676 -0.927652220819738
Ni 8.188363407138779 7.349944247049346 0.29490742809974263 -0.4878344289541663 -0.814872580422145 0.12154375974346811
Ni 7.9178288079988 3.9373408019597598 7.9028766631693115 -0.8644025688314726 -0.6597031622044316 0.252896535157558
Ni 2.926269453663035 8.330216856722966 12.182057209776735 0.9832721241768873 -0.6984669132361906 0.9653062837270859
Ni 9.046409746926884 4.815865315400264 10.346829903242638 0.5535729088025563 -0.2531065942858351 -0.591750191203226
Ni 8.526226113021854 1.9945306587332294 5.71897087972538 0.5436996155529022 1.1645773202497038 0.28828956994487126
Ni 3.851834015864753 2.6037970639643433 11.499806303948404 -0.5139846049869728 -0.6224375929847539 -0.2426062089751435
Ni 0.9808701160666615 3.571657836291616 12.565556729710098 -0.5364051387740182 -0.8673788778509772 0.45747047195032825
Ni 3.297266604978375 8.350948517936049 7.96141599405841 -0.6924747002084978 0.7031414358937245 1.0724384960309143
Ni 5.640252128380404 7.86597249558459 3.5881182321071736 -1.563908464855139 -0.14271242340128323 -0.007953964739754044
Ni 2.9638489845344353 8.389569158431687 3.586687838014743 1.276022043885957 -0.6320290933279309 -0.17880376980720175
Ni 3.5181357484786275 4.364983369960802 9.291268772107724 -0.6574040817576097 0.18141138263337792 0.0900451749145546
Ni 7.2272562676783 5.942354981952706 11.56739514075392 0.21020568115725086 0.8300289764476092 -0.4531286500418648
Ni 0.5178624120993375 9.181500510517111 0.4128787282166336 -0.07128434936728369 0.9951439359138087 -0.7285241376328871
Ni 4.767349606910783 0.396081556070453 1.6561917583611538 -0.46710131017187295 -0.9363793162800905 0.10498971203952885
Ni 5.986226436205368 5.701224939852069 0.501678136662382 0.26735976177073956 -0.4047273759203417 -0.12334327484605208
Ni 7.877985995335579 8.71167036991652 11.394454157789992 -0.45447796498090753 0.6373811016684636 0.09212082649666069
Ni 9.220066832249744 4.791267968886751 5.7385944381731875 -0.5291196608561984 -0.24550538489980947 -0.10372781460796975
Ni 7.8504735418742 8.80437439210952 2.4735017418346272 0.4039845842170462 1.1102193143241137 0.0009127416222564927
P 8.512039862750719 1.5791279186623568 3.498812753852774 -0.21336299583930995 -0.5986834279879496 1.0258346801294462
P 1.7132409445185168 3.122885269482131 1.6184547030770429 -0.4150246440812917 0.07783731999445305 -0.1033999989549058
P 5.006895351757145 0.9189014606065956 8.32920019054208 -1.0122183748975921 0.6472965610099627 0.6040074113040244
P 8.558111226905032 1.7252272848880021 12.405282882278634 0.018318595803529743 -0.43085775445880636 -0.07918380672001847
P 6.34921156997766 7.728220112607182 1.456471625236396 -1.130688380811743 -0.2902850031083452 -0.6518337867586839
P 1.8408809844500682 3.3127565055616 6.0492841828636585 0.4617382460877467 -0.41125720661905946 0.5647885750127177
P 6.976774345213857 3.9041973034003297 5.875415254365083 -0.11856693650333129 0.9391324535451955 0.1272526372027873
P 2.3825929547589015 8.542856707628157 10.025553431642743 0.0734913843209315 -0.22520498277956055 0.5286918292901605
