# total energy = -340865.6022956885 ev
CRYSTAL
PRIMVEC
9.26650961549952 0.00000000000000 0.00000000000000
0.00000000000000 9.26650961549952 0.00000000000000
0.00000000000000 0.00000000000000 13.56247349542503
PRIMCOORD
 96 1
Ni 6.083148366160094 0.32758408074671336 10.004602637268293 0.28553746112103084 -0.3925130932423369 -1.7969326865688022
Ni 2.5706316418593467 2.2050493126271427 12.351656573344664 -0.17569864851931674 -0.7530444913717547 -0.14069256475777706
Ni 4.7248819499024135 2.585578521537222 3.2255088349573082 0.4649346415378574 -1.5992886441266458 1.3449584618463546
Ni 5.154764587928652 4.951651968177038 9.224448723507528 0.811703438665544 1.2951592789360402 -0.5643077787215571
Ni 7.646241706410185 3.9816152301489134 10.193731167669702 -1.2025358017713483 -0.9994140240440723 -1.3821962631518907
Ni 8.006662589901177 8.050446846862094 9.861246956747129 -0.3053287848153451 -0.247454023985748 -0.412673884460928
Ni 0.9254110820128036 6.882848128218778 10.442100492727437 0.256155665524804 0.9220567290098313 0.9524672229808888
Ni 3.594590198142621 3.485384384749092 10.708969477170736 0.34918100611360503 0.34366958937707265 -0.6123488412901842
Ni 1.7976750259571093 2.123772758594504 6.764703839848634 1.0709274587030266 -0.7850706665693641 -0.38049549995617055
Ni 1.3538092252316056 7.095533052190631 6.5574018311928866 0.2906467573231381 -0.2513752134170251 -0.38621851848287675
Ni 3.4891558540788474 9.234058093765405 12.302736816868878 -0.40885528204578614 0.6692378411677442 0.6888995812627298
Ni 1.0818557070751946 3.404617488733988 4.756780055243487 0.5149616241882614 0.9942417358145135 -0.028121183716248343
Ni 8.876917554605454 3.2581510410039813 2.586919385448808 3.3281567738170423 -0.60524231215239 1.33285242261144
Ni 1.1694520205252612 8.266236051486205 1.0270776633505863 1.2913293636669891 -0.36614257366860814 0.7988245258203468
Ni 5.735302135938091 8.230754586956392 0.8191612851209743 -0.22941182177205652 -0.2732396175902843 0.9121273857112613
Ni 8.277763589191892 7.4151164287129925 12.120876936448454 0.6807311865193244 -0.17318668073074045 0.36677249394312317
Ni 2.596068210189023 6.99423157132359 3.1623214339433803 -1.1500968672453418 0.31645394819422923 -0.5019554417365807
Ni 8.497027734844647 5.651430959270731 3.588629979290291 -2.6652633868100875 -1.1357192583674312 -0.7127681603502112
Ni 7.472559520543837 6.615805860049518 7.877640346134965 -0.11917628795255605 0.47289837646962424 0.7414218195311618
Ni 5.788621631081608 5.9353382745656775 0.5744605711385448 -0.6626221356234395 -1.0569311444239344 -0.8696568752518764
Ni 8.819622726925168 5.168886748269063 11.705539938242648 -1.0080809556904509 -0.30455076899874 0.7451236938627813
Ni 4.075698100185783 1.154292011130962 10.489677531989756 0.21378028588238665 0.6214567171287233 0.2722525710866666
Ni 4.1047486071852495 0.9856044738364513 1.0750754021401039 0.09669893278564637 0.0342316674893604 -0.8031902589882103
Ni 6.589553838891786 2.883913791983101 6.257969406032896 0.7700705936161061 2.272535349343467 0.5584184098203157
P 5.895622015235626 6.979229092589257 9.752164387928747 -0.15576668548208011 1.178215736968745 -0.7971859617756594
P 8.998364426929223 2.097706067624966 11.360144699759516 -1.7737837592561643 -0.4011661409316446 1.215077642992101
P 6.06518060441465 0.7364799282618223 13.32294614344498 -0.29501994669016934 1.0194997390503537 -0.6966612274860196
P 6.068590679877426 8.908859212540754 5.117066574348036 -1.214241777354367 0.16305036362768693 -1.33001726715549
P 8.021646535616691 3.582905129776967 4.810649981045942 0.7756416599459803 0.21975398696731832 -1.079277887550251
P 8.280673273146544 8.892855950790171 7.894254270855648 0.15452587109644353 -0.5884756342170123 0.4246179441966816
P 5.308551578092336 4.566220775789217 6.741960119153422 1.7315161088362052 0.8882402946810187 1.0737291898178798
P 2.536049028742278 4.471832110941828 12.389346247066811 1.9231995628195522 0.3105321833931555 0.8555163220854363
Ni 1.6528858164302618 2.74120954707344 0.7972960295178031 0.15367252195721276 2.063812166269013 -0.2515891292000441
Ni 8.98755967695749 8.661897470262353 5.125082104987443 -0.6644409339997331 -1.4271666572149937 0.31572863999243045
Ni 4.764922537061806 2.588682802189478 13.10124027256277 0.13307464320120305 0.19018707194347892 0.033952445686044753
Ni 3.348110314353526 4.454577870420932 3.394361316119312 -0.6263230440820892 1.1289994231450944 0.5606038475074088
Ni 5.423113433924683 0.22616676851205209 3.039390993463117 0.8208375397563283 -0.1802865250003153 0.7589816827917961
Ni 6.507749093822793 0.5500108860610032 6.965007780598163 0.6929097308633873 0.8043860790685244 0.21236772180557617
Ni 1.3385843502714385 8.739004095060618 8.158763075352292 -0.8259589201432935 2.6463069003122426 -0.021728392816027096
Ni 4.3614494508532635 2.975068445046499 8.018445883266574 0.8284611177398572 -0.571135600276668 0.6668004353708452
Ni 3.8361402989257467 8.572512720496212 5.057486625447312 -0.1476880222390037 0.2440437127526184 0.7189295519659167
Ni 0.10704579005012413 1.5237199417681992 4.312716877867556 2.333655870803871 -1.3465944547878808 -0.6805851478597633
Ni 6.7403940790631784 3.3369071044771768 12.135063962354732 0.7394305001327459 -0.3763267132904616 0.7360219886718292
Ni 3.3820535383213244 4.15374990894384 6.151815980838928 -1.6424818916846682 0.0475407258934407 -1.8721351400435693
Ni 1.221622468501975 5.97277497258094 13.008160965494971 0.42490513641979727 0.4494733126774646 1.1442434937883583
Ni 6.8830890574634305 7.088879698434453 5.665777369138857 0.05390137800414588 -1.0644529067222765 -0.8264464013026736
Ni 2.606261370539713 4.380195599389124 8.605254078193568 -1.0405491035214853 0.5066201942021017 0.030049253976896634
Ni 1.7748701462997927 0.12148208505952417 10.483642254411205 0.2458542835987959 -0.9210673685133686 2.1313411623589227
Ni 1.017972391204597 4.713261747102627 6.765355275460137 -1.1145881328157707 -0.46919007438010163 1.1343041231874595
Ni 6.886239670662735 3.622398992881186 2.1857416136210537 -3.7992180970779277 1.6508456902683313 -0.9080812406663458
Ni 4.840463121769829 6.924732750750704 3.515908266744704 0.8795088283452918 0.5005505909692541 0.49148668099477294
Ni 7.768318701373814 4.237065095046616 7.7576260761659395 0.20882859830406617 0.2359174841010582 -0.5794567185478536
Ni 3.7736284264477877 8.146837077741985 9.644206773352709 0.9000897378204369 -0.23172992838227185 -0.2812223786854447
Ni 4.798078107729777 4.922110336178856 12.204774985993101 -0.17854794504265378 0.019131064402496085 0.13105607010927753
Ni 9.20765780845712 1.116410520664034 9.50953195884657 -0.3693513104138929 0.10746722704574395 -1.1562698288252733
Ni 7.172333882178375 2.1209186736963104 8.581180613398061 -0.7933053957743305 0.2709654768441269 1.1323056047001918
P 3.3349704040105457 6.41179438888516 5.324600245739028 0.5143949530515141 -0.41352646226921036 -0.8920990063054766
P 5.4996362686301365 2.986605249261598 9.90071394697406 2.0839860701137267 -1.731816156575127 1.3066909337247237
P 0.39394711453535153 2.9141689452058306 8.148496709577264 -0.11088499447804129 1.311993833994876 0.886955514431324
P 4.107723156705769 0.7521551555793017 7.921677578802768 0.06004888566278046 -0.5557174659493849 0.28662683753046764
P 0.4029587949363025 7.3882528179342195 2.857830421296626 -0.06902023592345533 -0.01831679603131684 0.29518809683691744
P 8.819020403813536 4.214464078596313 0.5199716425075196 0.5417219230012411 0.6835262327659584 0.4032579904636667
P 6.459238917062918 6.054227590292363 2.4920229158857654 1.3745220344360844 -1.2662130282153354 1.4273741452401094
P 8.807928392050103 6.049585069078094 5.606455029199722 -0.2994319597149359 0.8502072511676971 2.9704049953152905
Ni 8.619373458581157 6.508861074951959 0.7987249252687817 -1.4655557985161534 -0.38923802203549096 1.0550735223899055
Ni 0.6821244373662971 1.102631221171783 1.9854237731074105 -0.33900355135997096 -0.8316803960081033 0.9409340255303086
Ni 1.0201870869535197 5.287090342299429 2.223622177437041 0.9496402950550548 -0.823038404062389 -1.37556101722356
Ni 3.5697837524528055 7.078343677235603 12.846808797049192 -0.6028396162481682 -1.0705232812860723 0.917415116472762
Ni 8.290458707083207 2.109947126555204 0.4824617390679211 -2.738759142006393 1.160226499480176 0.6186336458576314
Ni 2.457969420455992 1.9358201482371888 9.17358948661229 -1.6725216325798677 0.3126132342919003 -1.2141193928438898
Ni 8.63669256466792 1.50691976020838 6.741227138259113 1.2182961499293985 0.006756859107859331 -0.25703498280596376
Ni 3.002756775162737 0.14530350079908685 2.8544259057394954 -1.1450621330349118 -0.9143423910847092 -0.7365806893887765
Ni 3.2550838263893644 5.864810871448313 10.46724516601071 -0.4614119730965796 0.43087112419524504 0.3146210087505485
Ni 8.175192596535721 8.96225283975955 0.44038993304591834 -1.1093996466362956 -0.02297794895241204 1.3743520845171233
Ni 5.5316613251501225 8.038020457743663 11.83690660888952 0.8068396828153394 -0.757516153989863 -0.5980311391159313
Ni 7.5131468317584025 0.2791786155431682 11.766150322989734 0.7009565124272638 2.14705523066007 0.02252749167855475
Ni 1.1295133649693756 3.5955724481400515 11.118786415721171 0.015788373182508295 0.4014119383938635 -2.4061535237529657
Ni 7.506493478002224 7.885493712859701 3.1907751777368607 -0.5236375546957046 0.5712780393918033 -0.3296524491623742
Ni 0.039492936453278164 5.13940071532734 9.2090144254347 1.6006500432505466 0.11532169009315624 -0.4407670431527183
Ni 3.2133567345174034 5.377290544893626 1.1435159873384009 0.38586550601883224 -0.0937179957804515 -1.1506995338263473
Ni 3.845184412109632 6.296407813715349 7.4588858592588565 -0.007809211631773648 -0.6470849592197887 -0.03719152144863272
Ni 2.8819678250070595 1.5091807885043513 4.549544765455489 -1.0185175776427426 1.2453369560972745 0.9123952946606674
Ni 4.70197513864159 1.9062043841637293 6.01515998662099 -2.079242899001787 -1.9047570398436486 -1.183855708863342
Ni 5.507744464363639 4.840870848183857 4.557289714020132 0.675751731026862 -0.6165124857495704 0.04128703167424502
Ni 0.6104442804783626 1.0426861718003158 13.076583944325389 2.089785964624956 -2.009253871407159 -2.0811475722236676
Ni 5.357979139283773 8.0568407383548 7.498175859156062 -0.9720047787931841 -0.8558503083860873 0.9961978310996197
Ni 7.288739773383257 1.4843558097957161 4.6618557861522145 -2.604302530855999 -1.5934116165205783 -1.5890754510390697
Ni 1.4210655505273404 5.695270815288108 4.645241861431531 0.42660694960225237 -0.013035493027719485 -0.4385417533666253
P 2.092813350656635 2.8089013983114315 2.8554433684726823 -0.6347634615399584 -1.0680825330550636 0.9211164765837491
P 1.380728435066837 8.084473469414581 12.507150454541616 0.3383862294909462 0.8612038593885167 -2.2270173103070094
P 7.583813232516913 0.8134864747584628 2.5159471898797765 0.779195952956142 0.6045103190823718 -0.6261176129395024
P 3.7194471459291654 7.736191713250321 1.5271207507215658 0.2955758191936394 0.4441830108128028 -0.9502108228465442
P 6.757008930434804 5.853218468176755 12.18740120750082 0.44960315338710954 -0.3116994642283793 -0.24469882983811406
P 2.152702800971644 6.915901767283243 8.643391324320204 -0.05264359433764483 -1.8698995658448312 1.126731967267156
P 1.6611515428237305 9.127743431307708 5.790402654190157 0.8010009646463754 2.0281224261768878 0.14060926101535137
P 4.568315006915814 3.6746899054802262 1.5314065113235604 0.9417017569342685 0.536876679093798 -1.5888574214909927
