# total energy = -340871.27082083246 ev
CRYSTAL
PRIMVEC
9.18383069237326 0.00000000000000 0.00000000000000
0.00000000000000 9.18383069237326 0.00000000000000
0.00000000000000 0.00000000000000 13.44146453412117
PRIMCOORD
 96 1
Ni 0.2206773510134836 5.4410799251526925 12.645004430650474 -0.26758036242197786 -1.4474128090585396 -0.6879827258754151
Ni 3.015529198589172 6.29997932957129 5.632941170382099 -0.40391233621821404 0.22059962279706521 0.6732227939574212
Ni 6.537923200801697 8.750914164362872 0.12937905263547864 -0.4783658273420987 0.7261756920053687 0.15253583724960829
Ni 5.363595945007919 7.191260921259115 4.419701105263748 -0.5391209950432845 -0.5269136543438151 0.35118312414529845
Ni 7.348662596700774 2.1738219253583217 6.831248326680325 -0.8680291098404664 -1.0058330401965385 -0.11762025631934582
Ni 2.435349873987305 3.962620929821834 5.376478104418737 -0.45224059100995656 -0.4904286720439038 0.8002787417683701
Ni 4.950635810933021 5.170533454714752 12.281332079512755 0.3072054330127677 0.13570436751456627 -0.4935173382715565
Ni 4.221476383698876 8.690760072867285 9.304409868683758 -0.05650410573431559 0.4364213645895129 -0.6006732047244687
Ni 0.07960636343403057 7.597985234246148 5.84203679242076 1.8065846078362693 -2.0360784477991705 0.14951042015972316
Ni 7.527306472696524 6.301338536524168 7.624980186389985 0.8592089404456751 1.9950310429395577 0.10534580982736695
Ni 2.8262688142317587 0.712831494521167 0.06070603972442467 0.3000927332273864 0.1981145543206717 1.486981058269465
Ni 1.3257778089012184 6.340039199358122 7.696783967208038 -1.2251787359818447 0.5681639192428538 -0.9847137417194204
Ni 2.1163311447839135 3.716503449212637 7.871079299337658 2.061856070983907 1.9534221091495196 0.8749592613013963
Ni 8.601089149300426 0.04794602526275001 7.265098002208027 -1.008890853186256 1.3431831151134868 0.4091761557203146
Ni 8.95729320926193 7.818727790458047 2.5777910891165505 0.46642819536424834 0.7119096690046578 1.0984575458024952
Ni 5.489028705564671 6.387170618832222 9.635944322450536 0.9155240700976363 -0.6165649362540608 -0.8615987808340905
Ni 1.917593047079408 -0.08378041451567093 6.68910466766779 -0.49473192740494804 -1.2947738705721636 0.1889619412871262
Ni 0.24991315786341528 5.599308145362994 1.7908065898682355 -0.6385326987744036 0.4459491015742901 -0.4476028351276291
Ni 7.487733345940113 6.245170227579585 5.045643458556074 0.5318463157587421 -0.9258642756813797 -0.41121864007164016
Ni 8.970949565606043 1.587764949068336 2.5688919571075086 -0.15864195014734614 -0.21455495926488213 0.6402545665615168
Ni 0.7583584987610258 2.463259535675105 6.792966446529149 -1.2192996514932486 -1.976142947785803 -0.16506070918949636
Ni 7.532614726877356 2.3879062042672743 9.207295450283745 -2.7132332298211463 0.8742694343232233 -0.6582042090614019
Ni 1.5200893001781097 6.5411834607224515 3.5875808329660637 0.2654365766060977 -0.053166042500018114 1.4858999093901442
Ni 5.373845100139076 7.4640666140646745 7.3990423371156355 0.2401173811150187 0.1523322058792344 -0.4046196466978838
P 0.6819517819647147 5.443587110950906 5.668857295728808 0.02430309552173879 -0.02600182338040038 -0.5487132667174098
P 5.883731384083351 2.978353051661823 12.480426509850851 1.0644909590490634 0.7646321962093541 -0.40030970646862024
P 8.674578163063433 2.360437366456083 5.090524839493316 -1.5036572333735654 0.7214744298749575 -0.9195733004663452
P 6.949285348323888 8.138481226122455 5.835800052949821 -0.08542567386467224 -0.5597373857420553 0.5690545493779232
P 3.0104780916696954 1.6761134010053667 6.666562955060781 0.0890640419482079 1.9937730021627404 -0.4616379730644566
P 3.5212735748594777 1.2810525530869423 10.418223945199127 -0.31688897884911876 -0.9772223184383815 0.15046738475635374
P 1.427139749028974 7.060437252044665 12.313483752629837 0.16013396131184035 1.8533843417986273 -1.9569846296897973
P 2.451733828067935 5.378850287904738 1.9679241131912275 -0.25422605260225895 -0.4890922126206673 0.1563827217995242
Ni 7.533735154230404 1.8770648019236786 0.2044403382250564 0.3001762940801282 0.18542770288162258 0.2340297801600421
Ni 6.240835459459597 4.415374602591447 7.886900284592534 -0.5586780912396055 -1.1589010958005332 1.0389591333265462
Ni 4.88198667598195 0.6932350364397497 12.24056413637412 -1.0499349156117597 0.30207556798537005 1.4712572197763047
Ni 3.032950925545986 6.289895483393862 13.463239669218053 0.5148073579985843 -0.945723476499152 0.020546713803100098
Ni 4.4742337739494955 0.15541521284769086 6.17229377532845 1.7569661734781936 0.9491882951193007 0.997149910600244
Ni 3.916040540193496 3.0863365337694746 11.613129410582856 0.6664998734112908 -1.4421806141253228 -1.467594683323053
Ni 7.251020108031906 5.088714706449991 0.05085821799759745 -0.6692578957724022 -0.8828849439063763 0.9346242812621967
Ni 1.5245618257595375 8.321239458299887 10.159166447045306 0.8510719131608375 0.7108110366238404 -0.6099600293430334
Ni 2.2992363182535493 1.4111047805173258 8.726400683291113 -0.6630242561578645 -0.8917470222826965 -0.4515852168141448
Ni 5.615958430535741 1.470588452367237 10.277868378036088 0.7956116753100039 1.233644864471327 -1.4095980522036111
Ni 6.3656988225090645 1.7409420623591607 4.598648047674667 0.7242584203779978 -0.8826995673684477 -0.661235539688558
Ni 1.4588698843140508 1.4996736443926606 4.684592172718026 -0.8493734424124921 1.7881557117071203 0.54169544063868
Ni 2.8517263931059214 3.592962557792997 0.07713591295886828 -3.301890641031662 -1.4595399313393767 -0.03423269593062492
Ni 5.925086174007721 4.0632848988116255 10.339927196031857 -0.4259752295555244 -0.9544204900525176 -0.05759065393027501
Ni 1.4718558210124875 7.772046378691319 1.0064027470642347 0.2424743113829695 1.0166519851889135 -0.15358639000130966
Ni 8.111848116910668 4.227436689863859 6.772925491038817 3.2369011235341545 1.471181372233047 -1.3311781202328108
Ni 3.6106873511649793 1.8920344460668557 4.398611356300317 2.3856466620488654 0.1929839179623257 -0.5577638069554524
Ni 6.172718986692762 5.296673370240232 2.792423642722035 1.537758031712016 1.2107507334819727 -0.7869881953070511
Ni 5.012397072812078 2.7610085128321185 6.263440540498872 -0.6761070574837518 0.7478086968941122 -0.5370119191200816
Ni 8.153551892404021 3.050684902748731 11.461349157951036 0.07135222649074163 0.09250726330180198 0.2888518702062444
Ni 0.5080256398317559 3.394904063564931 1.2986120375051962 -0.869394108508793 -0.39818803213992715 -1.2437505854467612
Ni 3.1844841331302898 8.41886357930723 4.616337024106674 -0.6058658046690018 -0.1264496816855177 -1.611049898427632
Ni 3.397659212793736 6.885044452138906 10.575421739597855 -0.563967621773319 -0.49375747930682057 0.9465395446425441
Ni 0.11994450329297227 9.013819687606258 12.162643924268117 0.268516243972686 2.314015985085757 0.23168724806979454
P 6.13922555590125 0.7778989354747909 7.987724970620673 -1.4426624388577478 0.574706605457378 -0.5273959932968724
P 3.769549255697906 2.4010115307656252 1.681594311204537 -2.780055943872651 1.508743646757537 0.19402392919106587
P 5.182362228737091 0.08300162566699525 3.847229769821001 -0.5213335891528764 0.2851011449145606 -0.8943852312364919
P 3.5328176501281727 4.304838015531769 9.569288078774967 0.39158723899395786 -0.13984384360423657 1.422652571394724
P -0.32754958959884994 7.862709155980546 8.796725867356374 1.134593115182788 -0.8126840574112584 0.2465330548333754
P 4.091451707760781 8.107026605760257 13.379768749799085 0.5123506689279756 2.137419250232203 -0.07594498806774662
P 0.8662648366902705 3.420885120792567 12.59867108606965 0.23485073339944068 -0.9886881529861359 -1.4531692519263424
P 0.08634729521384142 3.358875895482917 8.772854336054927 -0.7473461554353968 1.1737119355611205 -1.8065686669966692
Ni 7.073349718097001 0.056802911650283505 2.4000407998540094 -1.2029736606397152 0.5437086144139668 0.8814749509327271
Ni 8.665054530562529 4.257302507504111 3.9645192276404813 0.8184772670542678 -0.19099774077023235 -0.7349863483184632
Ni 5.396033235261722 6.6744500289197735 0.6761081104504183 0.7783739712754788 -0.22556262322929538 0.7752163994831036
Ni 4.416733809544324 4.565116963177027 1.0547096968759582 2.345436922599199 0.6189480917742566 2.4499874902187804
Ni 3.7181106195961067 7.110911585916383 2.5132315140041035 0.07904059627393485 0.15436029205285673 -0.3385299541576621
Ni 1.7880551141717351 1.3673897460869446 11.59636800105788 -0.6724416928170226 0.8838704477480971 -0.27347101687479997
Ni 1.5140922586900765 3.2777643021868825 10.188038574197035 1.4059856522620042 -4.232958058180535 2.7811193521401583
Ni 7.890949435575803 5.280289416159602 9.748865950359283 0.6249184504250785 -1.3232372681191793 -1.2560720831265917
Ni 8.8373431956705 7.177622932576527 10.839277789325179 -1.1947541009434004 -0.9412158184367856 0.30665161739182667
Ni 5.554812485317785 7.585660533362626 11.65255375928091 -0.05528977371124027 0.7801966263065144 0.057403477620133404
Ni 2.5086552111350575 4.927538476564869 11.557925403868355 -0.11012574771451356 0.3675934471825218 1.1846200978331922
Ni 5.461210882184499 3.078015983098482 2.7311849408133746 1.3099644622696731 -1.198300423533762 0.42695404852902596
Ni 3.9580749335943053 4.595745038770581 3.617232667349545 -0.29048683470650616 1.2048315397840605 -0.15614643741900205
Ni 2.029479657261201 3.3469552831529517 3.024598231467324 0.2971197666419915 -0.2998178822994449 -0.3315445239787645
Ni 1.2146718243342545 5.245317388615297 9.74121765610012 -1.586630589043003 4.2389541278629705 -1.0754749688643932
Ni 0.09196504449137588 1.1427348779701423 9.56552454492842 0.6981164718753073 -1.732605999466274 0.648712981741515
Ni 4.871985484281386 0.7617427403970753 1.5653793615842913 0.9352025223631699 -2.6665656505612785 0.2003529567328872
Ni 8.41965338875282 0.16061877135782823 4.70671693940841 -2.8581308337992066 1.9565992213259207 -0.22034894023883986
Ni 6.893089487887018 8.756360176005144 9.520454895460542 0.8423759280487364 -1.236156575149587 0.5729937365313293
Ni 4.170910211519532 5.20051866215492 7.726611212759087 -0.6986142374473324 -0.3732969253252022 -0.9710992362597792
Ni 4.436038221807488 2.5053490320604905 8.41605057194462 0.2608970368645313 0.29059302126706726 1.1247470756266436
Ni 8.358782958457745 7.428690497966812 13.33408102852088 0.034846932475856116 -2.0530947798515093 0.9657030049448724
Ni 6.502409327242394 4.117772566726636 4.888149944806788 -0.5609298633882598 -0.6220048763227094 0.07161062235845086
Ni 2.424531321348862 0.5902273538393211 2.5849278440022334 -0.24738948929639976 0.048999312716838196 -0.7340746351374713
P 0.7367066993549195 0.7744669379187755 0.7653207608622175 -0.1460841680869936 -0.4443251928176219 -0.07821630060042659
P 3.225067481270595 6.9202919946060915 8.374381695008164 0.45777231946146324 2.087259855768992 0.5337008524689777
P 1.0891472254698749 8.789027062028014 4.174757318226021 1.710909231219131 -3.488585640661482 -1.1670813176184804
P 4.703315248493912 4.964494211553912 5.602886165828136 0.16303365145713858 -0.019096868730450984 0.16298608604865478
P 6.980611395055407 5.998694577570642 11.49405186091388 -0.32897599192063987 -0.3364689578635754 0.5184531822812878
P 7.073900747942762 0.5819159869990913 11.578115137417042 1.205048798001189 -0.7229715832457743 0.9255542006401286
P 7.5285371060187245 3.3379551290055205 1.9743224880835901 0.3692471807358609 0.8270639802820144 0.4033060700927828
P 7.201262112959679 7.112684065253581 1.7150372309268547 -0.692327375997356 -0.6676463283109082 0.2748964364674169
