# total energy = -340861.54673634376 ev
CRYSTAL
PRIMVEC
9.38281488069507 0.00000000000000 0.00000000000000

0.00000000000000 9.38281488069507 0.00000000000000

0.00000000000000 0.00000000000000 13.73269800735968

PRIMCOORD
 96 1
Ni 1.4613639946329342 1.7131987390996593 8.623364915507306 2.693711357738135 1.5798480189035307 0.33058781649245
Ni 0.9649943354757551 5.870451796685961 1.2531152389319051 0.08542515964403997 0.5998589363532895 0.5507835189828773
Ni 8.039289396666716 9.192315337176495 9.310164427116007 -1.1209863230326307 -0.9788251441491271 0.31510591880676697
Ni 0.8775540094461611 2.4428251697711003 1.9216435956262978 0.6672534637478638 0.20260292910932848 0.728505625690126
Ni 1.1594625513407828 2.5642387909856836 12.79561921711199 1.909035098393712 -1.72122449710221 -0.47426826023395735
Ni 2.949759878193165 0.8800629740762059 5.670808020275186 2.0398281446495905 -0.2505547743982588 1.8364669972179983
Ni 1.1885305110411524 1.6047427848786877 4.369991490084176 0.5326652121156117 -0.007299361874890655 -1.794643376313993
Ni 0.7979427039375445 -0.051325872547760026 7.059046110866545 0.20904817051403995 -0.8555286633806105 1.497324349177002
Ni 1.3816569844151687 4.157131080996209 7.6497721687115305 1.5632417778054175 -0.7311466628573988 -0.5682184266298731
Ni 0.23771173189700393 3.8659260463736578 9.708440512521255 -0.41617135609122524 -0.5459261908905759 0.4466142459621147
Ni 7.386648959972529 4.182905672764097 1.5389411059314024 -0.18067013359197917 -1.7291712627531124 -0.5467252897531035
Ni 8.928076511778883 0.766253185831661 12.522050120853807 -0.37127963778485734 -0.5108740843824492 -0.3677423140555602
Ni 6.597892031550368 7.842878938174841 4.2155813246868 2.1154964820171824 -1.6572107132544103 1.7828021607046909
Ni 8.465710172813484 8.139319583356722 0.453841113599434 0.09363160671423229 -1.140935255350732 -1.6463380322059644
Ni 8.75754385601574 1.5505851788778704 7.998760328905018 -2.305810823567145 1.7694691910412108 0.5274438158156722
Ni 2.5615177747451714 6.191588009954147 8.37531144533343 0.061915249447557885 0.47785237804078995 2.4149482392264603
Ni 5.206176669859928 6.957788652023923 6.0403135812035975 0.32663114583754715 0.18754963432063182 0.47757444178905495
Ni 4.049641556681351 9.527403795788272 10.57809137721092 0.31964057345232694 0.06217801619064131 0.11147660531545317
Ni 6.534360993741718 0.9176167513211247 11.462284666283933 -0.22343889201807324 0.7304203262143355 0.17136453992033712
Ni 5.3853696635195965 0.36756331830156236 13.681845762113687 0.38650339671314726 -0.026314726635128873 -0.39221098862088577
Ni 4.184969891981037 2.5560288281910344 7.38867189480513 -0.5590023073482437 1.954824645924001 0.06779047728141228
Ni 0.38711898053768556 7.7219719889498695 9.937982627726486 1.2025543137141097 -0.4813843024534484 -1.417749477666152
Ni 1.860593374003824 8.028555456738626 0.9734463748876637 -0.42409292493114703 -0.5349290684491239 0.6201441689648868
Ni 7.7170835425315705 6.2680954803856554 6.587712615966466 -1.389247513571717 0.21501595806170065 0.5574161938080465
P 8.815107423724509 6.1273063469757 8.790766526030934 0.6866341822673208 -1.2545193939274912 0.11991830832490316
P 6.929152301796186 2.505821387146271 7.27710741409974 0.20991848893413523 -0.4298920481114274 0.013268692084448117
P 4.912034814260547 7.91580217342057 1.2579877345653465 -1.0305853074405542 -0.24586276823922815 -0.25874990861454145
P 4.769416031999213 6.5692087672495205 8.27169796173911 -0.46412320138015556 -0.5030193642247208 -0.5145445912555009
P 2.4113927407858715 5.974563507736735 13.30235594814552 0.48409707339892105 0.010425051988065917 -0.3939899348981795
P 8.327313657132256 1.5902369534723706 10.422636904546067 1.9805403055225503 -0.3038357452095864 0.18825977301377902
P 8.121220133950004 6.099664575097944 1.5921829492250679 1.4861387648738276 2.260533182676268 0.22140334964528322
P 3.508159324819402 1.092994692555303 12.453290978737524 0.033932391081386716 -0.023495769129095016 0.78261500594002
Ni 3.50497855066239 8.301360791886541 13.194265923694825 0.8524302269609448 -0.5996465632321673 -0.7345898842109929
Ni 3.46571147146741 5.824795020733088 1.8173160798392072 -1.1277357259413223 0.0780733472646591 0.2851484532127283
Ni 5.463931970353422 1.9564012941137245 5.588027199987104 0.9832209592239775 -2.3764477691584167 -0.10959558624265642
Ni 0.7354024913530249 6.41488023233936 6.933748942679728 0.12165071763497759 0.6619801311640665 -0.1374581169808794
Ni 3.1215592139303387 0.751840244290106 1.1933148082171428 0.00335940339053615 0.7616083217813658 -0.35875065207991125
Ni 1.5957259000265074 8.463871141147484 5.158399377802381 -0.4286154953918489 -1.2045919129694287 -2.329684287750633
Ni 7.242172380415948 3.956226254300177 5.53412574482548 0.6337576459832633 -0.6837208652752677 0.15515244893684893
Ni 3.6163244117870774 4.419718531020269 11.5839422406787 0.09605564277469263 3.667520279619593 -2.2755779928245325
Ni 5.934161107972438 4.391448110562808 7.9383781636836614 -0.0028657515835692577 0.3225603182022832 0.275778324851738
Ni 8.458691827475887 0.15263868999665559 3.621531873902541 -0.5614718519346589 0.8926013998631918 -0.2803893412611881
Ni 8.48567680233007 5.8478861275189535 13.204881640158671 -0.6918892600186729 -0.2543988307346974 -1.0257308075617302
Ni 0.4596518906951212 0.4730496116945264 1.0599709382101061 0.5974613826553904 0.25433583870724585 -0.06680008834368495
Ni 2.83452953181478 3.269770153706657 5.267437066529944 0.867564511499222 0.477750562355603 1.5660820754676898
Ni 1.6877243973996907 6.52959452391351 3.5644862375609314 2.314968321696697 -0.4891541762068544 -0.2909789438515763
Ni 2.4145922805721294 7.775135016600706 11.061619716275807 -0.26740989828238465 -0.2991411679473945 0.5398013089397606
Ni 6.846602298747817 8.354073444435501 2.115109726889647 0.7916809727970301 -0.18863721095785577 -1.9180388445542194
Ni 9.105383559699437 6.436179221532336 4.628372624312989 -0.8977654605626345 -0.798193062883935 -0.5182652346401978
Ni 7.710487423851983 5.067873982324923 10.844683412515845 0.1879144738592183 1.0571175494031277 0.44362919519186184
Ni 6.177982928751586 7.553193919521127 13.101954978594714 0.27723305502039347 -0.7208370534012747 -0.45806748210437886
Ni 8.002715185268382 7.7550745589378955 11.327855204625079 1.5210342911994321 -1.0123602997920953 1.6378407933682306
Ni 1.6883999600525075 3.994770856769227 3.4381316261661623 0.2290834918983603 1.2227822107252102 -1.2585673387446195
Ni 3.5365048077938424 3.140662624501659 13.1637379980392 -0.20623872608970287 -2.3517726350092403 3.4065078002231197
Ni 6.763648834670681 2.101074912777377 3.207724415452741 0.8999316149760179 1.5984895452641181 -0.20842519221806038
Ni 4.601519947144981 5.588676490758978 13.499461673200921 0.6932082359404126 -0.10502313638062558 -0.5709581941585392
P 2.4393347627315465 4.459182649322321 9.703372854343668 -1.3296603980367037 0.8555728863549845 -0.0012382432824752869
P 7.776626884125677 0.8316307615580114 1.5028510477675867 -0.6153999694116821 0.442379896165793 -0.2571406551458926
P 8.758294481185537 2.879689018592662 3.7466648428334657 0.1577263803116122 -0.6220812380865995 -1.1848592104271916
P 6.349191147167545 5.550854365015856 4.344352949128314 0.5727319982295104 3.183604211883227 -0.6700084007851815
P 0.7283090834984479 8.332295931696779 12.542773005228964 0.17590947897854223 -0.06908708460564876 -0.2185810497051397
P 6.151044867970514 8.332080126960463 10.883176409504472 -2.728078265253779 -0.6245983480814985 -0.7215495060872671
P 6.578000464550763 4.49883442391682 13.089609071114486 0.5862994525013 0.036982490761620176 -0.363796956254567
P 5.2605219321531935 9.160029072060622 5.118560885196893 -1.28534486394878 -0.5734794179184962 3.5365539410106446
Ni 4.244025327214777 7.752100206702576 3.5548050494334813 -1.3540352273366423 -0.0769369196673707 -0.7803583486953592
Ni 0.16211720932826088 4.0158352755966416 5.30229046972652 1.508843662670511 0.5961406069614378 1.2395781992366264
Ni 3.5355665263315967 1.6941328597868281 3.527298390086288 0.4829192510407361 1.5217675698210307 -1.1009016364676136
Ni 0.011184315029967817 7.811352681043387 2.663662847851079 -0.00857437193257233 -1.1619367973030634 -0.8397585450305474
Ni 4.761027795726736 6.592421850625477 10.680275858138245 0.180979694412598 0.5467286321872132 -0.3648577934189136
Ni 3.710490339338048 4.723440240349177 7.0783953511809745 0.6625809979728589 1.5159026263998214 -1.2137915771908256
Ni 1.2105425941454344 0.8053738931185299 10.59886868191089 -0.8029467755188365 -1.269387055067943 2.144185622421759
Ni 4.1775668512439195 0.6632458320619498 8.208102182509563 -0.4455117569265553 -2.727446030986419 1.12447633846376
Ni 7.220620055228166 9.45637588909628 6.824079790528073 -1.0983580441101535 -0.8914258914978518 -0.4137398638315971
Ni 5.187523634390485 2.222910760649971 1.1436196688507656 -0.3440236302823817 1.1576186295436837 1.164675536390465
Ni 3.9275054587408382 5.583309520794932 4.416133357553029 0.5061285992776638 -1.1415170959961307 -0.5661183495677348
Ni 2.963693357907512 2.5624842046512843 10.423886695453778 -0.2547464438821032 -1.6742460714701424 0.45579231291695693
Ni 0.2377605225330407 3.96196853684912 0.4673214033675169 -1.231988816925143 -0.011285600216148306 -0.4938168717898463
Ni 5.425687617952291 0.33099661315492596 3.210018513627931 -0.5366385949410629 1.354458688027306 -2.227781185056228
Ni 6.000122294768306 6.08223130552942 1.9862011133546458 0.23921338124351063 2.2329568157198962 0.10298605134593877
Ni 8.508298768384813 4.170417146501607 7.564477692386093 -1.1456658280571819 0.060936173363740215 0.5337862130939323
Ni 5.195789894072869 4.190261799428103 2.5158572456664503 -1.536083986443703 -2.590963647655247 1.7149666891179562
Ni 8.689387090598219 1.3615871439377347 5.539275971771746 -1.2156648829541385 1.3559452998751615 1.250092468504389
Ni 6.815348143240415 6.656009185321863 9.014087835141476 -0.854450342714767 0.6885547963288012 0.6807306722986921
Ni 7.34738188077755 2.2984611839899887 13.601906996374748 -1.44737758494523 -0.4357209960883786 1.84207611587466
Ni 8.516508731179462 3.096685372366207 11.965958846624694 0.12898556073349396 1.6009398065768234 -1.6101685242639427
Ni 6.901792014357103 3.0067792426538316 9.794695789064034 0.8810270647620311 0.3047888531514751 -0.6623652824176269
Ni 1.0564204811569686 4.792281951234138 11.718357628115621 0.49897656161391485 0.693736854750373 0.7824705099423557
Ni 3.2697983021505244 8.014209133180891 7.119222792447669 -0.1845697257567015 0.8527688412472861 -0.145371201180369
P 4.862118240469081 2.8126018940421 9.55331631493111 -0.4414355299746527 -0.4741551316948608 -0.9419280140124617
P 2.170854905124584 5.514843122494869 5.560040140531242 -1.1008309311306783 -0.5736889628261411 0.06959539170063499
P 5.274455411867541 3.851833058810729 4.955374973283135 -4.087742151631109 -0.05412583531012614 -1.0909771782650501
P 2.1681714201425617 9.046806648011444 8.886510643001401 0.9369555004985347 -1.0135990572952027 0.6301437033797599
P 3.131702036537214 3.4683480423763204 1.7577990101260428 0.30463253007926894 -0.4964365688008805 -0.07251256534742996
P 2.4065887396991745 9.309009402635983 3.1673642383542453 -0.6530321779421593 -1.0239983982516558 -0.025255175022362953
P 8.847149735660198 8.041560037805352 5.9138764010401506 -0.8946063461083626 1.2994751327025749 0.0035985159845357386
P 1.1941132857415135 2.08011370491081 6.638757004075553 0.2838598163082918 1.1753335303249435 -2.4635282050176923
