# total energy = -340890.3461403806 ev
CRYSTAL
PRIMVEC
9.07366428315284 0.00000000000000 0.00000000000000
0.00000000000000 9.07366428315284 0.00000000000000
0.00000000000000 0.00000000000000 13.28022485843499
PRIMCOORD
 96 1
Ni 6.488985445259068 1.9863974504340658 11.483569279259363 -0.6898701727061152 0.8037720996336093 -1.6772380642189308
Ni 4.492280312514682 0.3982313174409968 5.917761094086392 1.0278874488934169 -1.2299815566871268 0.6449026068564894
Ni 2.8872852548904935 1.604695626712005 4.743430258524688 -0.9795663931905259 1.4972934959390665 0.8320007554619994
Ni 3.705330506976121 4.512904750799328 4.852699857311692 -1.3377460032583155 -0.9225123284900112 0.6682348538245265
Ni 5.035520576527799 4.703732978500345 2.7986609638153483 1.6582702648671763 -1.2181423979603538 -1.3447278338927873
Ni 7.148731555103626 6.313564299039499 2.513548293432516 0.6196831701680683 -1.3727893680156937 -0.37234227472141684
Ni 5.44144000948071 4.762321626984272 11.731484464051386 -1.0547374792067254 -1.6233515986131206 -1.7989916259803598
Ni 5.407114338547661 8.001102478122302 12.434658944559375 0.8186567300549257 -0.4855651733040154 0.2759395330199506
Ni 1.9554108878550647 6.513402675098041 0.6407585605465153 -0.730987254461399 -0.3449438281038059 -1.3196930024113467
Ni 2.651333696089807 1.4153464062438954 0.4344769756776227 0.8486293651576159 1.285564950379386 0.14456361767740908
Ni 0.4555705223913574 0.08695836636372316 4.602912775635321 1.244064260032438 -0.6882367508677502 1.048318463054259
Ni 8.720135908579216 2.326696145298738 1.4148482620899896 0.2900734013181714 1.2489840659315588 0.9937403706980628
Ni 7.018324856015661 0.6382977828682064 5.104440498848461 -1.6065800355817363 0.4934738866281308 -0.30259904458900794
Ni 0.38598096366708484 7.4551310412435114 2.397412653092502 -0.12254443309384054 -0.44011578272196455 0.904860676846519
Ni 7.455230851547573 3.5973085369898814 4.001211801800757 -0.17464629599540243 1.0994474205195903 -0.9660033097941106
Ni 7.7129864249536295 3.860589971775327 12.642030276475337 0.3567894145884823 0.12211942974128 0.116718827550999
Ni 7.876149051101681 8.682017446091843 7.032781924875726 0.22547571994244395 0.32380601768392625 0.7511436748046161
Ni 6.6026784552487845 0.8917306627420123 0.1420119153510822 1.643055761910267 -1.0485529476625683 0.9663090139599875
Ni 1.906331439248969 6.484838780808525 9.176475877678246 0.24530432463259688 0.2740222613925797 0.4377236283407042
Ni 9.190351324675555 5.014524118018923 1.4043972158883813 -0.7167888514738301 -1.2402418009625544 0.7884470392407646
Ni 6.287459367695491 2.060438548719468 7.160032803622556 1.2940897000209455 0.3081533987483338 -1.1566768344557048
Ni 3.6379585517348088 4.369613448823462 0.6625807224798967 -1.082787443365406 0.6557804301112576 -0.6828649450328756
Ni 6.011075562086012 5.804704147943465 4.6579853793170924 0.1277020660353801 -0.40776462008476866 1.05754178142474
Ni 5.300208429234106 2.9416183549558106 9.252611177616133 -0.10543708398959259 0.38513017051470444 0.5836046792779562
P 0.3753611473149727 5.49590921450611 12.610981105614698 -0.04495548166476773 -0.5838664175797751 -0.9039708180423981
P 3.9135075802557764 6.177822285516262 12.67861710447857 -0.160619128478375 0.5396881804006641 -1.1528055244257567
P 2.2206340867377006 8.3117575126808 1.784370506617382 2.158462701166063 0.5959668003877349 -0.009361643720558071
P 6.226475271914095 7.68909546762698 5.7997798704876455 -0.735193836343579 0.4212965931329325 1.3239286377592487
P 4.4482458210956795 1.2122596584713616 12.533171714667782 0.9612547393655315 -1.8048573407325175 0.042405975770036644
P 4.123535680992566 5.893235887645752 8.051481275413995 -0.32205818175488404 3.4096337474466116 1.4353288813108118
P 4.927099365325314 1.0964071164483205 3.647665557487961 -0.44215903840423854 -0.7791566150777742 0.6655796755898666
P 0.04664952138540565 5.683788501405318 3.7098836715741137 0.28546135646745674 -0.6167392570483958 -0.12237319762329893
Ni 1.7305745674611943 1.2351706600854109 2.772380003389633 -0.7565422201123679 0.21052064129450837 -0.9457173058515648
Ni 1.918671622296536 6.598676969422332 4.766870254750261 -0.8130386125371998 0.2567968986532287 -0.6335784400929217
Ni 6.24391485413279 5.667827926419531 9.180460123543089 -1.691878954060557 -0.7248580016352096 0.9089397320118991
Ni 8.741595123952376 2.4772735994710726 10.453382670090049 -0.6761106570281775 0.4829853283919811 -1.0862257796229937
Ni 2.329636012436541 5.3132109897540785 6.836288101369635 0.7418450231115095 -0.6809373889928595 1.1929260465957263
Ni 0.5728294823352611 -0.06926109208727113 9.386701784290358 -0.33810032281941127 -0.004178042637089579 -0.9541865196648405
Ni 1.269777614602632 1.1179207738055128 11.395415003979707 2.145363444779944 -1.3123105939043462 0.4466700389007146
Ni 4.131003306469146 6.677318415358554 1.514437168749458 -0.36163620115782236 1.7603839409104907 1.4773589617986687
Ni 5.764934278607077 7.863935899350192 8.192318151276357 -0.8643624596221565 -0.03481453657602391 -0.8822982181649709
Ni 5.1611091600288095 2.726808433288088 5.118795942671663 0.7092130960091012 -0.19470912818354855 -0.983627193523461
Ni 0.7637339288139243 7.294490893689007 6.83217047264391 -0.2604897741237836 0.20895432524865304 0.4683868617525159
Ni 5.126048522311311 4.5240562838621665 6.925065737366474 -0.8796798067055172 -0.8009726825116013 0.34603886094019765
Ni 8.173211736979841 7.087130450169853 9.059888368870753 0.6731767712108342 0.6360600688641949 0.5812572620917021
Ni 4.598097382147569 0.16298387496714228 10.544312579189008 -0.2968950522256951 1.542446952547253 -1.117785556707146
Ni 7.937632198403383 7.36750666794178 4.652301636184007 1.4201138641332705 -1.2011918861489441 0.6086585369227905
Ni 7.3079743584012755 5.9168637087162415 7.144110338025593 0.45721721828894163 1.1732846182157148 -2.189639898099816
Ni 2.2093918170348066 5.17728750295073 2.783030670199364 0.45117435452897137 0.6723015676947325 -0.802142020229354
Ni 2.35616740598881 5.203564833910844 11.476000028745924 0.7981802073681286 -0.06388600002068351 0.5384987880782532
Ni 0.9663179956005494 3.425380751412455 3.6272942744290693 -0.737931032769084 -0.2999646922899543 0.9961734056195876
Ni 3.95805019685909 2.676367935081158 2.4420741346942885 -0.39540609851941577 -0.805797100483438 0.47630405971706363
Ni 1.2730622809726462 3.2358500576642344 8.161680924761571 -1.3624352784748792 0.4193759790714519 0.32080965405976364
Ni 3.484776955992877 2.689125506672981 6.994814085210844 0.08600314363469705 0.27647457958781413 -0.01186255576554086
Ni 4.044767203760265 6.889496974464663 5.917747483590383 0.8393296850232448 0.5801218629356784 0.5022688592119414
Ni 0.7692280323692933 7.309789091202387 11.476000028745924 0.48807379865848205 0.4842276854395144 -0.3391868710153707
P 0.3527223556210905 5.430297550081877 8.088227799903729 -0.5154246798676092 0.22620179947519106 -0.6370648559796254
P 8.425858837550766 1.700404634642694 8.175399397371582 0.9954211008345953 -0.3325739936845433 -0.7803514067168238
P 1.8918317241680775 3.04876017953351 10.399611229826677 -0.40234190640730066 0.387926502312919 -0.03178680549329364
P 3.9089888955810057 6.216122221283748 3.6862984967244508 -0.011997024460876114 2.2513620576999616 0.4197045660554643
P 7.082339555574914 3.9470982844043743 10.344073147181422 -0.8357062293380446 0.3459709838167397 0.9256819844672445
P 6.4510303087237935 7.986802383649534 10.277791846353578 -0.0995078629893512 -0.9193956372379005 0.6991150883431508
P 2.4086041102769644 8.531222223983374 5.877787067309878 -0.25355062380178917 0.10527561871106383 0.01688546290142898
P 6.893516607619127 4.095988037071674 1.4546489818839956 0.10240755313464944 -0.12855001585797218 0.7095848775262231
Ni 5.288621360299 2.8715787424968617 0.32596049100308006 0.7913359307527856 0.540835920851862 0.051117901721737774
Ni 1.2062801138916952 0.8903641689427743 7.109887199495807 -0.05488842450776353 0.1140461658148423 -0.5572902097531434
Ni 6.782709022783179 0.8359521280006087 9.134350485166014 -0.3625134615564531 -0.7067515218424861 1.4694700459688952
Ni 2.7229974944057513 1.3829352784160205 8.994749442341211 0.08505440656818254 0.13314354876592555 1.5169979163465293
Ni 6.468578774910554 1.8854620120361718 2.3731360650456153 0.06438736513713428 1.1058229850286312 0.23765632116903587
Ni 4.2140636267760785 6.831879208029331 10.433076717411998 -0.15398773920478642 -0.5603608782586671 -0.24828603296874013
Ni 8.311576039400688 7.159792351526409 0.19799097806700874 -0.17386750884784896 0.6007007155282945 0.0028310416908918987
Ni 7.644943018575905 3.8924657534268734 8.202942504460472 1.4160237532242967 -1.40339783693017 0.2502177027738142
Ni 2.9880210726802647 8.368966964235879 12.514539852998759 -0.05594694767926493 -0.0765571677304488 -0.14547301686555592
Ni 0.32907003565778686 5.051825950745797 10.351390149835508 -1.5878513488239816 -1.3233779074621015 -0.48978049693694353
Ni 8.65070423160864 2.22094259131389 5.733125642069172 0.10247337337557835 1.0498613820613467 1.3950954877120618
Ni 3.7188321190164007 2.9507283136173967 11.552785910393007 -0.04899391340019949 0.2035264693648624 -0.38506794981820136
Ni 1.099728077474357 3.200771272618724 12.572521473360712 0.08155590649662083 1.1412700129823312 0.7980082005666386
Ni 3.20650582827024 8.18565173033147 8.124814627906964 0.5656735487208322 0.22301517421709333 -0.795759770852094
Ni 5.629954452860307 7.9542188562055545 3.353681565806889 -1.303896144588406 -0.6221108057729544 1.361270825853133
Ni 3.22765653906721 8.577933446284018 3.740574432706533 0.3168416705509511 -1.0916083840911457 -0.43570145570435287
Ni 3.29313209853136 4.331458691680066 9.178999263638193 0.049298332014495745 -0.5721378162889372 0.5503137784353103
Ni 7.235221720404662 6.205270119133092 11.419041010317395 0.9580722278724918 0.5258376476708171 -0.20960918522383257
Ni 0.7066950621421478 0.19639401320202948 0.6923350814869422 -1.0698321687563186 -1.5920607589196387 -0.40008190672853033
Ni 4.805421531010701 0.06307013113627483 1.4958842479572814 -2.099274106621049 1.194257620922956 -0.3053763502238289
Ni 5.874444329490229 5.786302757340181 0.36439471699784803 2.0597691065478916 0.1660472414724818 0.9415919708292816
Ni 8.152941171591412 9.013650791831202 11.296238949032492 -0.9440715427180257 -0.29610366667265137 0.29302811307112114
Ni 0.33816729118976535 4.781766488948195 5.815317612730772 -1.9613164242959316 0.3881507025085831 -0.6192792498614302
Ni 7.626559775300633 8.927686899042488 3.016947913530003 1.234284297827539 0.2620005543413552 -2.6534129152294046
P 8.53227476900802 1.7184067840297328 3.6312385961722877 0.09528996825326169 -0.18099100726650766 -1.1570900107337232
P 2.0017591635954854 3.291979743202653 1.634968091933768 -1.0791184791542512 -0.780353720709669 -0.39859786598383606
P 4.65829206916048 1.1168410077888506 8.090803813114908 -0.1295990259477768 -1.176620110346851 0.8137708627175341
P 8.693813209299076 1.4886979060648746 12.762083017566553 -1.5677219250639582 1.138793783527697 -1.9258871369540445
P 6.5688881304920645 7.992654896933122 1.1636810761183733 -0.016948969149512747 -0.8287046012092308 0.49105756387715427
P 1.6319075450646914 3.0951991919139865 5.9356098985517365 1.4165348885327604 -0.49704977690484725 -0.7549535354690095
P 6.851841268841572 3.99175885863976 6.008199210596248 1.7201022105723085 -0.05573637433035562 -0.6181068268198838
P 2.4598158699243675 8.435213785140503 10.31360832028274 -0.19953663147917897 -0.19723395148793127 -0.18412801023359257
