# total energy = -340866.0885001238 ev
CRYSTAL
PRIMVEC
9.39098407988471 0.00000000000000 0.00000000000000

0.00000000000000 9.39098407988471 0.00000000000000

0.00000000000000 0.00000000000000 13.74465445612902

PRIMCOORD
 96 1
Ni 7.2557841873835685 7.851520043210399 5.87528980946782 -0.46764972647617525 -1.380513219022513 -0.5329128093500435
Ni 1.4074831270063533 1.754883800345287 0.20360498631076385 1.0833440871998246 1.0171299532665965 0.6280176581756926
Ni 1.7852730247640902 7.571133432125044 9.743846529867131 0.15620223035760195 -0.17833711458342832 0.16225614986116574
Ni 1.1545087983927185 8.369676979715926 5.915452230998073 -0.09944769917537712 -0.27390219087494766 -0.8727311433018261
Ni 7.6106037381300595 4.587345457662144 13.566262528283467 0.8291357752093785 -0.3730267023829511 -0.4739425014634225
Ni 9.006545345726428 6.3351108920898 12.184182952258357 0.34299904567260925 0.12760796365967703 0.8840116013116518
Ni 0.8184496165032867 3.2530744423891003 3.658112280397504 -1.83920110831971 -1.4966532912519064 -2.283196685712055
Ni 2.7742563381117447 0.2070514774608568 4.310914329062944 1.6176794879290075 -0.2845966944743163 1.0151743722021225
Ni 3.022769949296785 5.130557539640282 9.368122648602638 -0.0020923637526544608 0.37578703873690766 0.3214434309890206
Ni 2.723347813521407 8.187783009453938 2.193440877759758 -1.1236150189047294 -2.137231045480797 0.49879298484819906
Ni 7.677270333973411 3.347829471556506 8.828411525482142 1.455245674839397 -0.23644893112449603 0.33984944430003405
Ni 8.515922774485404 0.9655903720536994 1.4993908098067066 -0.23759230070031986 -0.6270257265760686 0.6373785305653022
Ni 4.290994173674451 6.477403082569932 2.569920733241098 0.5138359952242505 -1.1840197452450318 -0.1918721729553857
Ni 6.640824987185511 2.8186569107483646 1.17234603351666 0.36859386342257805 -1.3419572131261857 -0.3761824744031135
Ni 9.628857686443622 4.208184476231618 5.713102819256158 0.06488564492979149 0.8403514414195399 0.056123839576761404
Ni 8.065446660101728 8.385510178841422 11.168947142970417 1.2380589343786226 1.0066331675003308 0.2824624217401329
Ni 7.65548325095375 2.496527375515426 3.8094545622164495 0.1990625200562378 1.0474527726198541 -0.41592273041552885
Ni 4.7332250040532715 7.229639687759975 8.725890152496952 -1.1039553356922729 0.36790455066503736 -1.7352912596079213
Ni 4.950785931775897 8.275973740763265 1.1622544820455705 0.6646093412567974 0.9317557014651502 -0.5342986339539766
Ni 4.3436682032681055 3.5414058259893837 3.593498553669712 0.4253918462482287 1.025724636914143 -1.1269476828223883
Ni 3.62390562095823 2.7570708372815806 9.048009357647423 0.0786238204514904 0.44026979180132564 0.061903165262699844
Ni 2.4054160481633775 7.376383204684641 12.122152685245528 0.060754653480553436 0.4830346935726778 -0.26141768525469167
Ni 6.694766799627293 6.404021933123539 7.789728307192697 0.10138065453203185 -0.48236569253011113 0.7451146950017167
Ni 2.9860793745735887 7.124695440887253 4.365302213247586 -1.0526201757534066 0.33679445952379417 0.3929612365233491
P 1.5323644330388768 5.595984100647795 11.299452709356594 -0.6378855521087078 -1.0151242356904775 -0.9572762143337578
P 0.822192862749682 7.145825155022702 2.714844277454897 0.1492365976730462 0.4715940558359039 -0.17661396124473452
P 8.358323279987147 6.057100199971675 6.548791465198751 1.6659519497821502 0.25654081677836466 -0.4244312821071723
P 4.554045028184679 7.125596975357032 13.07107030419875 -1.1286906336554239 -0.2650079737091113 -0.45504206501449374
P 6.489000947884278 1.1249929354915136 12.995021176180854 0.932851248522174 1.771829206632955 -0.10260578518838458
P 3.7843881475629666 1.707365421000681 6.810256182501211 0.02300674530781844 0.3753286110432504 0.16610020619760424
P 7.189831306328792 6.459259701365627 0.7446562028566507 0.3893110413652715 0.8315772947713355 0.2439352121992122
P 0.07258009850605836 3.3311416928815327 7.560893503105803 -0.25171871279937297 -0.3965813497744396 2.4139241688373203
Ni 8.759919322337488 2.3155161577550945 13.31796490973181 -2.980092912027016 0.2785049797542816 -1.660305293019334
Ni 3.2460969412323726 5.250179894599094 12.579849527273089 0.6951201082511448 -0.30719694837233547 0.39469801670879767
Ni 8.392149604571982 4.906366577171156 3.4375791062198258 -1.780675087059359 -1.2844822588381686 -0.3713081770299477
Ni 1.153025022911207 3.4160643617379103 9.722075411520372 -0.14315413892439216 -0.7105667818235181 0.03990454950442159
Ni 9.303845119104201 5.565191063914402 9.83227954856521 -0.4995843704012428 0.7809859549770292 -0.736425394757835
Ni 6.571989074024254 6.838721194286081 12.349448307044954 -0.74041446131257 -1.1223101840503769 -0.40333383800692474
Ni 1.842849148037169 6.2755720531481405 0.5258453351556129 1.50079585266537 0.7231980974342834 0.48965297022014387
Ni 6.200585045427452 5.009423236247779 1.9722756903548286 -0.3707808437715679 0.25228692659801716 0.8051908343580069
Ni 7.686952438539476 1.7538977470189663 10.972783572428954 0.491007170255193 -1.098980765295817 1.4656617279663984
Ni 5.70819696918311 0.28839805958711073 7.002406985553751 0.6152732140258307 -0.2999670062827995 -0.1995713413718563
Ni 4.333723151148355 4.0546324958633075 5.79447100064575 0.48774701144668253 0.001111487896623892 2.1207261058472375
Ni 8.612386962751765 3.8780068676590886 11.343119846138112 -0.0023782704241894527 0.08698864747641792 0.22875979001035443
Ni 4.280025504292139 1.2282937601537 13.592762007104536 0.230502483733074 1.6077257191504055 -0.033861685744451364
Ni 2.537631712746916 0.3087267227822231 11.292250763680828 -0.08035365865840355 0.5277729170203168 0.38287685570415353
Ni 1.166923679320301 6.155996653109629 7.732179417773393 -1.4205000438280955 0.5518811229224301 -0.3810619139826018
Ni 3.233419112751104 6.403017097829098 6.669744522598894 1.368792588151475 0.04129603053530952 1.2270294160373383
Ni 5.167529843885285 6.3101402654737315 4.917823577724599 1.201695308147924 0.017318693784105655 0.08951578477364583
Ni 9.414085880986875 0.8121933429223822 9.42770562516938 -0.4480838885291057 0.10036789699680135 0.06942364200946109
Ni 7.205880498087672 7.271692514381545 3.1847879017953646 -0.4255607677259251 -0.39889894216402266 -0.27867775788672006
Ni 7.685581354866686 2.5068198940454036 6.378824983791619 0.7914210342674242 0.28263648542415193 -1.0157778101140766
Ni 8.356060052828639 0.15996132698939602 6.909272840235135 0.42617320449894347 0.9048866449884481 0.6573711716371453
Ni 5.809272130623029 4.7118886882685 9.61904504719912 0.9317790985039178 2.3865570896782766 -0.3756258305686951
Ni 9.049405796977176 8.672770990258844 4.004834924687291 2.600113689585632 -0.8635325075216935 -0.8240151661533616
Ni 0.34293807771352725 8.158896342484766 0.8666047045671741 -1.2138458274675288 0.5341772778847639 -0.09298883092391082
P 7.192864594180237 1.0825362965553549 8.914920331546288 0.520974920261877 0.049337669892863416 -1.4069909535980671
P 6.363528009855962 4.269103789830127 4.821335911998087 0.297290745002217 -0.8845559038508959 -1.1935742217026866
P 4.432863769871874 9.113696473853297 9.925303819370322 -2.018464077151517 0.06594005433623483 0.12091949589590788
P 3.353116595582398 0.6189193781762431 1.621951603677955 0.4987058244510314 1.2088208634491118 0.7601137395137103
P 2.529611812359506 5.081996761064994 5.3003239930869315 -2.3236447664247724 -1.2391225997564466 -2.128388250378186
P 0.5252687287343167 8.572860310842389 12.237937884117342 0.4171632876908493 -0.3062356129003307 0.5600142935525259
P 4.720500220651702 5.139366282688749 7.818537028994169 -0.28405059216285916 -0.23794454183341604 -0.7549877311410546
P 0.23455391337955497 1.455283235872765 4.752942314186065 -0.32905106813294943 -1.2051832666965245 -0.34953761812207546
Ni 5.293049736833902 4.370563981616515 13.350993939769936 -0.638067843322843 -0.39903701040378375 0.21392478188005096
Ni 2.212506453598774 3.8614599537450185 7.474741554435945 -0.23582595282851643 0.031666992085977716 -1.24422418264907
Ni 2.3730077621716315 2.5263155769543766 5.075557363294916 2.100705439750937 0.33653966320051076 0.4685339288533415
Ni 9.18944415128286 5.71530594411668 1.3155341238761349 -0.8400706769543275 -0.3741135076892267 0.5525840625267258
Ni 7.28706555528809 0.3257028046678444 4.45480768232534 -2.5779289259584766 0.8084147406119432 0.12874233437443633
Ni 2.8567467420965307 2.985074539279147 12.178272266890868 -0.4549302220269778 -1.3036320922937419 -0.3996749010980988
Ni 3.4742790719270826 8.637057077877907 7.156978826790999 0.11397623180885531 1.5409775670905783 -0.47771199580818363
Ni 7.4374152100918725 8.639893155064087 13.539941478159541 0.16461693678385841 0.40151683940284394 1.146528433167793
Ni 2.3505727012518163 0.8280143337685992 9.016534535471262 1.6183479747509417 0.07271182584242962 -0.3927442354165365
Ni 0.3571503929902321 6.237435266879672 4.562813390001686 0.4010496699584383 1.809590998762761 2.025598117093137
Ni 5.71386912355547 2.6758294341768014 7.562157529560306 -1.3627818631810207 0.3234247230851075 -0.12642988419117582
Ni 4.325787769617487 6.6476804055494565 10.777829560634446 0.4423225605652963 0.25822874600374884 2.03526957874463
Ni 1.759795285008771 5.1145928667379446 2.9707006990766067 2.1670334735542096 1.0052650835082106 -0.6422122045085198
Ni 1.1081173371353363 1.601594767530662 6.763332252447617 -0.3280120853454738 -1.1786690224560796 0.9312000860719963
Ni 5.748615764578205 2.5291704361086764 9.964984483418286 -0.07011835408364053 -2.2477673983701676 0.9437735518616328
Ni 5.2837526626143045 1.3807563863710275 2.7147757232712575 -0.35446230911720245 -0.558215035560258 -1.1186908421302344
Ni 5.4511375625032885 1.9226255576285576 4.910305155886004 -0.23768306064191325 0.2073720683631977 1.8609564977189306
Ni 5.059890384587287 9.175432803065043 12.076039197116325 0.12067344132337283 -1.8081601798535054 -1.0933587911233493
Ni 8.656994137037708 7.859793500167434 8.775549676207282 0.6780199582357485 -0.6270385820918749 -0.7332207717776082
Ni 1.3521326669555416 0.724455257044757 2.6542855776442993 -1.3317162521244679 0.9499843086580347 -0.7299683262785815
Ni 2.2451776871442055 9.088594373460385 13.654997936668286 0.8407995847005519 -0.27092305364196567 0.21025478922763144
Ni 0.8904455958008007 4.3908203342343635 13.20618027006964 -0.151853466470603 -0.7302539758398005 -0.3869021748134627
Ni 6.484831350961549 8.50963081516507 9.590580035414252 -0.9532439532459132 0.8696401630813281 -0.6097085754538596
Ni 3.293540192704497 2.7403079307341263 1.6795004930972592 -0.358466288070273 1.0077883641506966 -0.34643275394450657
P 4.519364124050364 3.9118238012598647 11.064254574470509 -1.3728472178368227 0.058435775539389674 1.4466566476188054
P 4.768243983613752 8.541682243762528 5.249606105473017 -0.2327797098030249 -0.3772885629830986 0.13140291192573497
P 1.4277206976560817 8.686556954859215 7.915298911455239 -2.127544928541284 -0.5841474391553036 0.8769174134690316
P 8.97975286820268 3.126775097763487 1.510826211096811 -0.0658382386510479 1.3072321509401745 1.4061064941105847
P 3.4617045442704764 4.94005203699509 1.2654773615400572 0.45783736837144373 -0.6113024023035407 -0.13989320878493325
P 7.210566599133712 6.480117076963329 10.228276686218862 0.9491232462093202 -0.5961485773812378 -0.4530841699571745
P 6.785540051553174 9.236126733046108 2.182101264507068 0.3418032255922952 -0.24562622674838988 0.6228584825722564
P 0.6191917167139889 1.9764922421978577 11.607814122858876 0.8682497104917047 0.4461905281611348 -1.2412424743129267
