# total energy = -340892.8798313807 ev
CRYSTAL
PRIMVEC
9.03833575556015 0.00000000000000 0.00000000000000

0.00000000000000 9.03833575556015 0.00000000000000

0.00000000000000 0.00000000000000 13.22851798724227

PRIMCOORD
 96 1
Ni 6.34357392171221 1.7816819063242952 11.422084546666785 0.552470676877313 1.070152785320531 0.6424831987817193
Ni 4.500792866691644 0.18142470295125587 5.915025758123557 0.6691344828206606 0.3534048143869656 0.5670668295239331
Ni 2.8365279782243373 1.5698685113986905 4.874603062183501 -0.5057527039954838 -0.17002473806299104 -1.08614633253531
Ni 3.561203650438767 4.309695336974894 4.828237304358501 -0.2716272787978419 0.051542905074298324 0.30600472783644717
Ni 4.901118827350697 4.430836149101537 2.742588940937383 0.4237998191707605 0.11131976802261473 0.10796267862492374
Ni 7.088043548903685 5.953217245226528 2.677425252719114 0.4204969800497726 -0.40647186941527413 -1.318050067491285
Ni 4.794394160515555 4.61501935207973 11.255603827806418 0.8573924560622266 0.3449332865808447 0.07795224830576251
Ni 5.774267238564184 8.008146113590119 12.342960792881087 -1.4563962435040725 -0.09052185744065701 -0.2867926736843706
Ni 1.9990629159831699 6.586108619362462 0.22017927836247878 -0.6336087791102248 0.02727786187934657 0.2548114927920837
Ni 2.671316241683048 1.667572919299087 0.3437514027671244 0.5722635432335241 0.04032081110623379 0.6180034684728002
Ni 0.4883945989699378 8.941281958220342 4.732039587003618 0.6805409248853892 0.12233000309018932 -0.03986341185384102
Ni 8.586120560584257 2.409132202425444 1.4683390798698532 0.4930275431193316 -0.350330546337016 0.5186773824769519
Ni 7.105153118205761 0.562795466177495 5.038967002844951 -0.6566435494425014 0.32247907134238657 -2.032507699728777
Ni 0.7808507356725739 7.398899025399368 2.318840133555493 0.5328264202838243 0.5014167956242913 -0.023524051263869163
Ni 7.670112361927323 3.6090977908147335 3.741302429556629 0.06538701004624223 0.13858348883457425 -0.2749727982313071
Ni 7.653906626185842 3.645296324916592 12.756352571492112 -0.2954714324052911 0.822830401816641 -0.5730695840745873
Ni 8.004494626005311 8.800112194390898 7.084029624061079 0.40788031972702654 -0.8530287797768921 -0.059398396562975124
Ni 7.059735481785827 0.5845398939783066 0.5085184531966013 -1.778185744978602 1.3554061395422399 -1.5383038769131572
Ni 1.7837697618492714 6.724747649222239 9.206148575485797 0.005519130046016302 -0.60816977021183 0.05042730341261638
Ni -0.11434579141808458 4.831062688068923 1.3390438813595154 0.7010781256067926 0.2631848044574435 0.22954140537138532
Ni 6.6056585392781475 1.7216131278871045 7.006047768286441 -1.8753667596069896 0.6489644356306887 0.3577684906723
Ni 3.4039004575526897 4.468046976791261 0.366434913637395 0.42469019219551374 -1.1698005163218563 -0.5071336435034104
Ni 6.082076795960658 5.559218119491646 4.896126050761966 -0.6947843221782809 -0.1401624032859199 -0.022329002514503482
Ni 5.158141976977299 3.03669999688947 9.228359381403875 0.2639669340391067 -0.262613762445322 0.2312740717917759
P 0.10561566305629061 5.7074468234293425 12.550264962172882 0.5461316220331626 -0.6972155573275927 -0.304602705282598
P 4.070414440142784 6.200677835782028 12.580214391036781 -0.7955484261722364 1.507719833478713 -1.5716695968577963
P 2.5713703265523744 8.544797290193822 1.2994541637383021 -1.598515256295731 0.4056655714638949 0.7773902672059708
P 6.25226865542083 7.788153024941122 5.977689442713218 0.9521846587434634 -1.3077371156010509 -0.2699946282904253
P 4.727347786990565 1.0057317562172714 12.780573503248956 0.0012079042651721133 0.3859092147725741 -0.9665987772862644
P 4.066564109174647 6.229627624727908 8.241485208594872 0.22466016601968405 -0.06396287600520598 0.4096451249369332
P 4.797458156285974 0.7770636730536779 3.746620586227174 0.6381722301111913 1.3625741180455888 2.1001007162874026
P 0.18973364487381225 5.625044317709831 3.339936156469331 -0.618592765317367 -0.8627071834069208 0.959458052476425
Ni 1.5575131066253471 1.1324221064059725 2.5273744203232567 -0.07878734261254819 -0.32749220828626174 0.3567323360983018
Ni 1.7348994812278615 6.347568866050042 4.608246927210187 1.4606794442604587 0.4938927193331043 0.19745583769075026
Ni 6.0539766105617385 5.5710673774710555 9.25287225140079 -0.2610212211472215 0.586771249931396 0.1851623650353779
Ni 8.561319367681513 2.435460874045597 10.080566872851918 -0.5705414183360948 0.1427283642408832 1.3628690235781882
Ni 2.5180531848128327 5.2917195388977385 7.0381266290191045 -1.4126134419911671 -0.47702808236728167 -0.23104627205168593
Ni 0.5362543936706019 0.10889205971345006 8.948840718287604 0.6265120201644436 -0.4922477275305136 1.431639605384683
Ni 1.351411939802707 1.1506795443300057 11.39549466714762 -0.2605607365710351 0.4383399217684645 0.11266445497596726
Ni 3.9578329318349827 6.874277873487194 1.661753135002411 1.3603424005015927 1.1169550903860506 -0.42144674555755157
Ni 5.681353148534945 8.109628545773806 8.10560196726135 -0.6683811495944038 -0.5508053733597482 0.16629226760375232
Ni 5.494105949786332 2.7835181398953996 4.9115635279769405 -0.6850539822643944 -0.7367568099553247 -0.6589806822161102
Ni 0.7199070463487262 7.117481407972287 6.564122868000972 -0.270797840918011 0.43243435491730686 1.3358842674592284
Ni 5.026905343978802 4.592179478003477 7.037187545949647 0.060324250811354174 -0.1927255220946165 0.2918796012889747
Ni 8.110188922581376 7.2241699214650055 9.038344644292716 1.1329905465823584 -0.33635711487605946 0.011393586548922313
Ni 4.456215795483064 0.7046955275239004 10.345891733732591 0.144745394670912 -1.259951877796972 0.6518548698046065
Ni 8.049993607445701 6.987708985341955 4.661517973438137 0.7163340233245986 0.5186370161573197 0.5664497647652245
Ni 7.392319117078231 5.893726920268119 7.112987547509006 -0.18137230186532635 0.5202835506218072 -0.8556284221832684
Ni 2.4071347302565274 5.426978231240887 2.45154820759064 -1.3477864182134531 -0.5620256675555998 0.6317424153254475
Ni 2.2770821192224107 5.304472630437745 11.335556944576714 0.45049069819838544 -0.17601849375258075 0.9007011461521908
Ni 1.3211967838719925 3.289203978713094 3.714501956817845 -0.5142753967545143 0.43180520597374017 -0.03820685008702452
Ni 3.778973308528698 2.3742532653220554 2.57297282345531 -0.3939680805213086 0.35680766942092745 0.2531395044062995
Ni 0.9780654109274368 3.3964167156709566 8.270046349109696 -0.1607883070663876 0.4883612479919138 -1.0535187763082758
Ni 3.667593898856488 2.4471835953265235 6.926702931502427 0.8605065762111761 1.2452048013947847 -0.12624733586672449
Ni 4.092025100576628 6.8049267243826845 5.85789172725762 0.17475145411469903 0.18154765110092602 0.37620998520693916
Ni 0.8245818186684367 7.461308732758502 11.379329603916366 0.17285397998167004 0.012161317952882281 -0.27534586530000965
P 9.363444537703389 5.554382609942459 8.105707715787942 -0.4704815394980155 -0.21952053080027356 -0.3941190042768761
P 8.498249861823144 1.7137859292523456 8.007063320984525 0.5793505319872926 -0.16474137817686466 -0.6650212319832353
P 1.47599635779522 3.177716109013613 10.523722794446918 2.2803592162632595 1.1441200808366168 -0.11218108758164551
P 4.045043832096863 6.197062501539644 3.7157058631205584 0.5484139903094362 -0.4509738084823911 1.0395898249320097
P 6.960675323544538 3.934170569218587 10.684263519147052 -1.5125370523616983 0.18125274556832657 -1.4909567550877612
P 6.532565519232773 7.702496718403467 10.279709425091532 -1.1480443555916875 -0.045513668161082904 0.30362208653688355
P 2.401684613886135 8.380941303993426 5.776682281838095 -0.5173316670823349 -0.011637327128612216 0.14723165142787548
P 6.800326211559253 3.9024731262484957 1.6011800174384077 0.5777425640702244 0.6667009336785034 0.8914114933201487
Ni 5.434136593040805 2.9138599776689067 0.274334273812692 -1.2814033628025285 0.18674385058988485 -0.6067394655232067
Ni 1.6719745887391881 0.9980130176097841 7.03292868221212 -1.4642846451132137 1.0032876480668658 -1.2361455194059938
Ni 7.042562644134509 0.676176867186424 9.422289525499531 -0.6994950973903888 -0.390503776121792 -0.6229443574178432
Ni 2.6695899195823096 1.8353967348304985 9.08116556689306 -0.2528919071718677 -0.501796033340581 1.183648477948542
Ni 6.251843853647351 1.949126111760257 2.3536042837966855 0.46344931524158245 -0.13392593545790482 1.797702217744975
Ni 4.031766517091712 7.043511669373134 10.361765762557335 0.6087644663730355 0.20045580085933865 0.13415450652894315
Ni 8.211120016293098 7.375896461282207 13.522587414656293 -0.3269931571626562 -1.1357084597341538 0.3059255378590796
Ni 7.431681068642174 3.6979898214993216 8.236194166931144 0.3221936788914838 0.4127193929868828 0.45980863316520165
Ni 3.0198254243131477 8.547698595923334 12.364828142046141 1.126973136743685 -0.3998921593152274 -0.42208335070028596
Ni 9.150862884251277 5.060428530741296 10.436599566040417 -1.0153818602272382 -0.5859788359370877 -0.7790524853997421
Ni -0.24579120996907947 2.4587888182445723 5.753016303887457 0.10797527703041404 -1.2297041346560242 0.5457480134414988
Ni 3.6025992275140504 2.6823701261291335 11.540241804209902 -0.7864783455501682 -0.31659021666177734 -0.3982219707016561
Ni 1.0155293120141289 3.3763696872969438 12.717923376162704 0.7799392588800697 0.7215507916388476 0.08964254015949723
Ni 2.9851634072643027 8.439464527041999 8.151081968196968 1.5727332622356205 -0.44538757264386514 -0.6188020531146955
Ni 5.986848892016294 7.753246972830916 3.683097355921386 -1.7816469640543253 1.0147138876259365 -0.45086813614246224
Ni 3.0319548706963424 8.259095501689517 3.6110545904734237 0.4292482438798414 0.13132320772773512 0.04245765494357849
Ni 3.021307711352525 4.366880886353783 9.319914105757977 0.8874571366580909 -0.06296914463336897 -0.4773412427323263
Ni 7.0307585778331285 5.951771111529575 11.670092860360004 0.329216132955904 -0.04545813233279913 -0.18727966848869684
Ni 0.5695868715518112 9.23256943812913 0.41430916967502857 0.9895764691283602 -0.4081245745273487 0.26169973527148477
Ni 4.644782591230147 0.24100089209792216 1.756152223571709 0.17634502385406403 -0.734533834162077 -1.9856873969411286
Ni 5.610573942404694 5.509932075432362 0.6717200638991264 1.6565951911575985 0.5117300046248413 -1.1431849706168569
Ni 8.012665281393097 8.852905112665294 11.61086826246841 -0.17762029102206184 0.15239108414162789 -1.2053928116041692
Ni 0.14177262081436146 4.769583929277203 5.488366606676548 -0.2582385161957617 0.7240655876409013 0.5492945931421765
Ni 7.950029615643815 8.7954122598758 2.3421888659263623 0.25714528313158297 -0.06094928598986277 2.5003320041096035
P 8.649018338066114 1.5420846677459783 3.548787688816864 -0.2554972060051987 0.2844030904062715 0.4696793553116943
P 2.0927181495320974 3.5070188284810544 1.653631286626898 -1.4793834484278652 -2.332002908581481 -0.19326519664817038
P 4.613012841575208 1.0776769076406902 8.245665438812626 1.2970035312336308 0.17818336261438344 -0.5672686611220941
P 8.546731494013498 1.6911991285730588 12.525858744536114 -0.35933917759352957 0.12125605329972021 -0.3709808755975159
P 6.259427017220749 7.700851741323183 1.2432348124356882 0.007229684979219807 -1.3277320706657392 1.6056863201228733
P 1.8792145858481784 3.3722030145825976 6.014556813649916 -0.31257569618574554 -0.5569479959223763 -0.3718218834415726
P 6.929981135826707 3.8920248102880093 6.051716122826688 0.7475659847556868 0.07433367771656876 -0.036040695673641154
P 2.4042063095201973 8.739284195762808 10.244759085136858 -0.25257309037986825 -0.8564280352664283 -0.4974958633033303
