# total energy = -381163.1707881963 ev
CRYSTAL
PRIMVEC
9.30534697264264 0.00000000000000 0.00000000000000
0.00000000000000 9.30534697264264 0.00000000000000
0.00000000000000 0.00000000000000 13.61931589335796
PRIMCOORD
 96 1
Ni 9.298553880241846 0.42172948263954363 4.039870709811146 0.051833439731523635 -0.8667792965937653 -0.18936740425566095
Ni 6.602497145995616 0.5209933389167178 3.8437661095591937 -0.0074988794802064405 -2.191642530352142 -0.4308734381880902
Ni 3.1570436138955555 8.402123297863612 9.693983661267485 0.1722572269379356 0.08992587572787093 0.19184157682776637
Ni 0.9278324056334748 0.5537546733370121 10.766954352285586 -1.4291116967565063 -1.283183080410771 2.2528044465734425
Ni 1.0609491135086355 0.8559244078301214 6.17452098406038 -0.09044343879423779 -0.23460673570943466 -1.4526033521205433
Ni 2.2796982977700617 4.98054728560974 2.418368436605552 0.172152068818639 -1.5782297665738174 -1.5171802075606644
Ni 7.333757822968612 8.872024699731428 8.705833997784051 1.825640596026456 1.606377175542311 0.9984444610419515
Ni 3.8963534158361863 2.7638275748696866 6.255623595020404 0.18441211713291467 0.5767272354318325 0.48643009240747204
Ni 1.6163294309287062 7.7404573094836175 6.7381700326321745 -2.0504645413175138 -1.7958633647640232 1.0484107656577493
Ni 1.6018689220273123 2.5139138763080817 7.7691382493393935 0.767329283425543 0.5960704158451348 -2.405339769602419
Ni 3.7546329843251005 6.489725648327667 12.698281868782988 0.8865045429368346 0.049111412814670255 1.2484683026374046
Ni 7.657248898546511 3.6567965682444985 8.298507330895845 -1.2617526784511366 0.1519812502977189 -1.8927965250476626
Ni 8.52926225096512 4.3051373000306725 4.721162605091997 1.8349179075633235 1.7296101500627439 0.48739039943821216
Ni 3.05960732772664 5.040585383056196 6.8036657159670915 0.48362424752756056 -0.10659665151533254 0.9666597124311869
Ni 3.515885701903567 3.945355371997538 9.312097812485074 -1.0207276979201838 1.8572209419358983 -0.11651468195999287
Ni 6.597118655554814 3.235636572828099 5.707651264174594 -2.6452121245861666 1.255651193539089 1.4655758531208116
Ni 7.734027314856293 5.679313691615124 6.687438212503791 -0.4761161120759736 0.20082629682487993 -0.767963317465116
Ni 9.049719601907114 7.695931225125078 10.019894127009065 0.6241031536126348 1.1472902510344822 1.4362742759432165
Ni 3.8955252399724642 7.391655690654887 7.601457761371996 -0.6329207519042648 -0.6496352364454683 0.4380815259007552
Ni 6.71152789425664 7.526192394449194 12.843450861812 0.49816614989747754 -0.7073084227872206 -0.09834521013981773
Ni 8.445960786560178 7.570448623751014 4.639978107080278 -0.7993058363321395 -1.145304845173337 -0.16188488256467604
Ni 7.6491718575385255 9.065119950833632 6.158709338806037 0.005409858161661651 0.7445642218148854 0.7022456635523324
Ni 6.0793505498332205 5.666137320569839 9.641331217563009 -0.9967984407980961 -2.409843056789411 1.2450590198455396
Ni 3.611433002675454 1.528756812350188 2.2525397126480486 0.059350059823542946 0.6034278846514705 0.39786304470034056
P 5.780360452335997 2.570713713073917 3.481791841823891 -0.9367778372700898 -0.18131393782356517 0.939505263503582
Ni 5.19112728331794 7.434469591205282 10.945094980572197 0.22548266192097943 -0.8483354880662809 -1.26495087367346
P 8.105710781425389 6.17485132387119 11.584085699910416 -0.5109663869859393 1.088767315097925 -0.6957991365960404
Ni 2.0949499427325624 7.582443215754809 11.631140977524682 -1.1087051916724324 1.598859269898711 0.36911502603337076
P 6.3654341313418765 6.18137437196635 4.747230603570995 2.473178069402631 0.9528009521712235 2.300118401168058
P 8.996921064258139 8.117649541348483 2.3985927136214835 -1.1080701291915949 1.1128438964311544 -0.009820071414215346
P 0.8601946314690209 3.398601111045673 0.2685495165647078 -3.3329390256970335 -1.2885695415336649 2.8196761293674344
Ni 8.654447081242115 2.550269866190801 6.4983200666168095 0.09864808609221722 1.0302477215954773 -3.9164133500447127
Ni 8.427331482299826 5.684338578878156 9.426854140621922 -0.02516184397760828 -0.42971387066235023 -1.856758657587499
Ni 4.670781596537346 1.8165804937073393 13.607616175545754 -0.1702031726223843 -0.08344335332732082 -0.17602594995174847
Ni 5.385813748720103 0.3750734044022858 9.760050692894902 -0.26016684356672615 -0.12065364382903093 1.3599623914543546
Ni 2.2260250575234464 1.6352937276732629 9.533684174368673 0.599582028542819 0.06353735843201316 1.9542780293919118
Ni 2.7072324557330862 8.267000357221951 5.011186070428741 0.23158671793618824 0.4630289398747123 -0.884231944852574
Ni 1.4194841250727954 3.4998060626618632 11.992692782516018 1.1248303793690693 -0.8640181889088604 -3.5869419065448933
Ni 6.315929686454222 1.6163294309287062 1.5890470846944744 -0.14222339958000668 0.881774741561333 2.0148617045122394
Ni 1.3531835292411152 5.571985821815462 5.326241849147494 -0.3663636885404787 1.586126909933707 -0.1740793677483389
Ni 4.141205005747626 2.0335718753492977 8.590982755110014 0.5823088432846681 -1.8021150021006902 -2.568233038826951
Ni 1.0776429056380437 5.675917240039186 10.834492559239457 -1.5615386790713817 -0.8832217584205047 1.558142251795323
Ni 6.30991843243215 3.39560478938142 12.355266314584172 0.06555387464140969 -0.150351942224412 -0.15725766820530984
Ni 4.237180352471548 4.4267954038767625 11.515716525488788 0.10123230187962566 -0.46355498758151137 0.49287096293680926
Ni 1.672003320733751 3.3982475078679037 5.532261296397153 -1.3629088756771883 -1.6406011297221872 0.4323744482136489
Ni 7.723698379926725 0.040106975171105286 11.26591169948455 -0.35624614049050257 0.08927204419395593 -0.8304069286123181
Ni 1.6996774220675641 5.309844897580477 13.467215242208553 0.6339597346917404 2.0255356392863177 0.16066643677654266
Ni 5.834768814978499 2.9290998390895426 9.68460014957111 -0.9121698089134226 0.4301710128044269 0.9449842843402823
Ni 3.1086930320090413 7.3654797501532006 2.0031973623789434 -1.2345360088270287 -0.2473601787203611 -0.5841404971767682
Ni 8.803853729196286 1.2738833639530338 8.064105645422156 -0.15096052234268842 -1.0763411735194301 2.2225019389351592
Ni 1.6198840733999629 0.24746639235757267 1.6806777650052307 0.7807566125750425 -0.21213786518295724 1.0176269475076731
Ni 4.924082441328107 7.002785248576863 3.5619276272531213 -0.5837193504789495 -0.24258641148080157 -0.34320113438108635
Ni 2.4951263811524096 0.7401956709544104 12.810655097608606 -1.7876538323700375 1.1928633116785907 0.7626370201561963
Ni 7.780321415103677 2.298001914892997 4.151208253539774 2.5504924270140785 -0.026079727806187347 -1.5121015074861766
Ni 0.5615776783778113 6.344925147031277 3.2092829002028496 -0.19176855749798585 -0.3612950157683197 -0.68113459260533
Ni 5.25175161761175 7.9527401856531785 5.778457508918793 1.154761619710863 -1.6219243792482905 -0.4781740230462669
P 5.480179270450499 4.513232770147707 7.728294290703044 -0.29779262433930004 -0.3414813234765022 0.05602819453916157
Ni 4.411934765063683 9.133290921368774 3.830813997371388 -0.9747648580368243 1.565892328054387 -1.9970581006719155
P 2.3095405449044053 1.288325262160861 4.223744362251006 0.6738948803237813 -0.7206005119104364 0.29731979846793954
Ni 8.643299275795611 4.822030703154628 13.11356274610164 0.08166723526350451 -0.9081594022024487 -1.117979674995823
P 3.13364066673532 5.926482312875628 10.430447888161753 1.6425921920102875 1.168630150162839 0.3703447846754138
P 5.188335679282921 9.14915653763446 7.64829436333685 -0.17617044594941272 -0.22870888216776095 0.0700309365761568
P 5.803000361059993 1.3832956314321774 11.776403954556207 0.6076815177215019 -0.7590421037160863 -0.6574593604755774
Ni 8.968037267842485 4.232127549168165 2.0045587346133544 0.7965226171600476 -0.15250781222515028 0.09619242546287304
Ni 0.9600326276427305 9.01214461159577 8.546964742685848 -0.8992762407802061 -1.196644633097894 0.9219045197026833
Ni 1.8987280951111392 6.1710268263432155 8.72747544279819 -0.3487467467896639 0.2059235088421292 -1.281170420856116
Ni 7.533925137626193 6.253546641618351 2.1006299264091464 1.0698547944641381 1.3929051649289623 -0.6605642246531462
Ni 0.34531676645834936 4.392961162972343 7.295282075088635 0.9137595219980457 2.0692089118045525 -0.8831595377240016
Ni 2.7613895740124375 0.34253353723543634 7.577133584880205 3.30036263442291 0.27671703461592345 -1.0614596284219073
Ni 6.417767401651684 7.104678795855024 8.101694593753676 -1.3921040091839059 -0.9790693989494492 -2.1356410752858572
Ni 8.91247504219884 1.1957928937467939 1.728972514811044 -2.260414654820533 0.17531915369271095 -0.8172323389035732
Ni 5.093746829229724 0.8747286526100034 5.696074482241373 0.3233339631435141 1.5819396113252369 0.7352367737663724
Ni 6.70900614527834 4.720807140844871 3.343542304663011 -0.697720007767837 -2.286721411035862 0.07182042437641178
Ni 0.8352525799508123 2.4535500917242064 3.273416280768677 0.40439827471569706 1.4528589197747752 -0.12957357202648007
Ni 4.9162194232961385 3.853157996067673 2.0209836022207224 -1.832884679183379 -0.36977091444981475 -0.4411200556167629
Ni 5.181365974542159 6.2389930792491235 1.457716072867047 0.5968011233635722 0.8409301967411452 -0.6718675654811074
Ni 4.669785924431523 4.840846114350649 4.973106730321738 0.11424079832415164 0.37975116559097827 0.35683132357001124
Ni 2.8444211833606596 3.249399180720738 0.35840566724387096 2.7617941694489856 -0.37630537313422285 0.8372409208150162
Ni 3.2418246284390557 3.3900401920049505 3.939782399808964 0.7078265000742197 -1.1951035138630193 -1.0433948005003966
Ni 6.971854275868862 4.16858133598437 0.811418795234506 -1.3957981702060414 -0.05840055142608007 0.8165090875843034
Ni 4.286889514988438 8.880567008078582 12.356097282051929 1.2260786220882949 0.5129435653169682 -0.03244963588827315
Ni 6.681676341775513 8.374318921674831 1.6513007852100567 0.9261540390076565 0.2151653391553714 0.9600298658194949
Ni 9.282343966145174 6.7943827020159775 0.5162671532854322 0.07486769584316783 0.8604189015933761 0.8208820198410185
Ni 0.7162213755016749 3.7947669450018773 9.407732583516726 0.22711968330377014 -0.7082404476831867 1.8366156069807207
Ni 9.549519082989976 9.01055339729581 13.283081970593436 -1.9858424344617542 1.1225395264523634 -1.0828146970589156
Ni 8.718914523757467 2.0594500447539152 12.267775583057347 -0.19453172206541983 0.21339230641534865 1.0584542659366805
Ni 7.737284186230481 3.7185561548458828 10.437407357021053 1.0908092852286182 1.513064385620078 3.710279010743358
Ni 4.515410221295021 8.895455562932014 1.1631376402798301 0.1724207490989934 0.5860302580003133 -0.5415679139218802
P 2.0275420106336584 8.125577696807934 0.1894680269260363 1.7331772985887117 -1.9336744942089474 -0.5398187924412574
Ni 6.472929497383641 1.59939369978293 7.657909578168131 -0.20244223516174814 0.2679539437113127 -0.4552562379078289
P 8.673699843736957 1.9364612763178006 10.067044319160523 0.7737051050448998 -0.9881389653508853 0.4145592744090989
Ni 3.7853406287102995 1.97745132889865 11.302847412471872 0.1544785627982759 0.6989235411576351 -0.7652166079579145
P 2.733892274267509 6.376433051239848 3.8713862398816627 0.6494354617298363 0.11685072514317295 1.4774042132143073
P 8.837138954640485 7.2956803439309645 7.74469217280474 0.29624044936083177 0.417196712031946 0.0044086705906569235
P 4.874801324763253 4.833439058311068 13.62571693610881 0.0007073104796697496 -1.674353286471968 -1.208989784926808
Ni 6.901803625283475 0.5222197836227691 13.449673732987177 0.6639220853817855 -0.3696361886441634 -1.3506295440892029
