# total energy = -340895.69575871807 ev
CRYSTAL
PRIMVEC
9.04848600065659 0.00000000000000 0.00000000000000
0.00000000000000 9.04848600065659 0.00000000000000
0.00000000000000 0.00000000000000 13.24337389694938
PRIMCOORD
 96 1
Ni 6.370559249639778 2.0484504959029026 11.665054476443492 0.41439678068930563 0.06100610736972718 -1.890367089670564
Ni 4.666195521503874 0.4099597440560494 5.910689867861868 -0.729397541376776 -1.0577721522679913 -0.5394470109241355
Ni 2.621871135104791 1.7891208941935337 4.711078725389393 0.28673019587755133 -0.43562715082299164 0.5912940775024139
Ni 3.2437464155192988 4.5104710816776965 4.772024801185396 0.036833623888581725 -0.29227426562423214 0.6229024484363143
Ni 5.215891031058799 4.73650225581238 2.6588323897126918 -0.21283643391187862 -1.4599911599441824 -0.38949410391035505
Ni 7.192858489505176 6.2057410816308405 2.524770024781568 0.8360942088050827 0.3043674493433403 0.4516078425219642
Ni 5.136988235284001 4.392831718390066 11.444513018615757 0.9396433317433429 1.0430248187554876 0.2522964396797139
Ni 5.677553822713151 7.700270425131704 12.360226110859626 -0.12531762496360355 0.06245543822174405 -0.4559476075478986
Ni 1.8564416282032232 6.540824606072618 0.4263302644821691 0.42547412154938985 -0.8980508530135373 -0.43793600146182643
Ni 2.843721908821131 1.6651113969350932 0.484062318138355 0.1408681711036929 -0.24840918881016574 0.024757409450338004
Ni 0.6053880345221617 9.191180374330973 4.743379104985413 -1.0777663360017309 -0.014709281185716601 -0.18332582604727138
Ni 8.620139486882382 2.312204807145973 1.2337881780138722 0.22901844298837976 0.10624132505844285 0.26696072656010794
Ni 6.984562347448315 0.6592762914300524 4.804973957209977 -0.9900079002388241 -0.2712392993308038 0.22945990140117256
Ni 0.7141933611681718 7.481306118370887 2.38135695467227 0.18293733235960105 -0.3761331092224168 0.9019000515562983
Ni 7.616436204620982 4.179169824281087 3.722407692511097 0.36134772338312604 -0.9649735829780156 -0.7114931502925295
Ni 7.783073118266472 3.8056211868990952 12.535687107812407 0.1975496829561372 0.3959478299554987 -0.39133964175952607
Ni 7.69887695832559 8.538485951438371 7.087945821430533 0.20360565934223002 1.2718074915839774 0.1531935254382652
Ni 6.8184592944623095 0.6198511341513402 0.22883529986984538 0.7443544197969244 -0.23692792764344361 0.45772989625930205
Ni 1.8228898430274263 6.272410324666243 9.372864919785348 0.09066069701136645 0.8708940900930873 -0.6467406885064927
Ni 0.06838483593435891 4.932736766359173 1.547607760933772 -0.2209246102366518 -0.5143134490813014 -0.5818079923888496
Ni 6.264728160261106 1.9161073432650368 6.838904348023452 0.8427960463052905 0.25621222979435226 0.5358952890171351
Ni 3.1800631727827136 4.40238691934628 0.7367340440299376 0.597210700097165 -0.43169644831001786 -0.7693884799474168
Ni 6.02459039683595 5.696899485255182 4.792630917792959 -0.509000264398504 0.019107153143096127 0.2793881536901833
Ni 5.376954077479831 2.4852842426483037 9.165433812966567 -0.05590786691121339 1.8455982700953053 0.7827538455107294
P 0.36579860933369857 5.603853906246898 12.321767331859439 0.4775518160812356 -0.5426184666735817 0.7571729117178315
P 4.046844768614729 5.968851724591368 12.55004343530969 -0.39429229662994675 0.5343019763880863 0.2475969773215155
P 2.518609815680251 8.373957334973563 1.5122345155756969 0.7347122687214701 0.411636187225033 -0.07193792379088255
P 6.218888531431389 7.600755178809316 5.90875620645624 -1.022521299485497 0.7857201272279049 -0.7749664882558266
P 4.678528607586563 1.097128897671353 12.64546152728267 0.1633411553952284 -0.9717407264985201 -0.19875090235308995
P 4.020305559898275 6.010139965086827 8.094773545822786 -0.6605233441128818 0.5177543564420503 0.09694087359312337
P 4.817649076054167 1.0288218787144785 3.6830612570584447 0.17315068528648245 1.224883316228613 0.07399660609212418
P 0.23775529712612925 5.861907671464953 3.754575964215109 -0.818009840499546 -1.374403249470033 -1.258178587946633
Ni 1.3906436785592982 0.9768926189723267 2.463704508973612 0.06498308973960422 1.4289463748232358 1.9750216896971662
Ni 1.6343284484000176 6.855395213310099 4.97075488410314 0.9978063132373204 0.0387660650246042 0.1998148248412301
Ni 5.818882121704729 5.227717401939264 9.186411822338618 0.31490434431892217 1.2581032546240074 -0.41311765686656593
Ni 8.682049226411186 2.050649277941122 10.115951000814587 -0.47197149377998077 1.2332044344997988 0.6254766369213938
Ni 2.1485991362280696 5.360440590978798 7.033463079008605 0.3284010932537763 0.07005767604903418 -0.16406157850102066
Ni 0.6899597066218343 9.105310244525601 9.37715571172989 0.1741593290566549 -0.34682613272818336 -0.6694317023461052
Ni 1.726813021291555 1.1338747983183086 11.351452057181689 -0.23393464934307454 -0.04804929009874306 0.7591588317996087
Ni 4.1315747892150965 6.771832447371997 1.5197167084456717 -0.10936213007561166 0.7512979409942933 0.32556568068751024
Ni 5.4967017379481415 7.812245436337337 8.11609539765349 -0.4717238965455489 -0.6342790657043721 -0.32854456081017613
Ni 5.040278019545351 2.900455914498652 4.756105800198402 0.9621584821267235 -0.025285771149982258 0.08880975984555672
Ni 0.7409551626341742 7.655046093333259 7.276174231782195 0.847839779376785 -0.5453479497896027 -0.6087883776324354
Ni 5.039762255857374 4.511403075710358 6.843009646010038 0.4230572845777811 -0.1868994023311426 -0.07802089676016886
Ni 8.4308451649089 7.129555283170259 9.29278220146823 -1.0527487309114707 0.2978239917978677 0.45463248828090086
Ni 4.813694887779674 0.25521073099415237 10.401067882074253 -1.002516831339112 -0.5661407181652378 0.7085227548102959
Ni 8.0177094023532 7.35269999034942 4.7512585263799885 0.4664485070792224 0.014222571357285182 -0.2682686467382541
Ni 7.135590623168171 6.023395996716424 7.047792261048625 0.4666536811114931 -0.4414944082370461 0.6814590658242844
Ni 2.194556395372588 5.347302189664004 2.6617460021254766 0.16585749405917888 0.26532653339079465 1.0152203949487095
Ni 2.3591935936664457 5.092234424744765 11.355371861210317 -0.015221444935444752 -0.13450160545571674 1.0640186473983353
Ni 0.9344914147291271 3.467985989474693 3.983540657431236 0.08316747395811483 -0.0816068143392143 -1.3484741883090972
Ni 3.6208511078026087 2.8205034943763914 2.7488078175046473 -0.1844224015455598 -0.08962685643021338 -0.6727949623913833
Ni 0.8853092752618869 3.4624030737644804 8.171744489889107 1.1574419947565036 -0.3298123717790062 -0.08703929820869527
Ni 3.6591895419422666 2.602199727075616 6.92680043378914 -0.30110574787293304 -0.16739861329405362 0.3075311917833027
Ni 4.013012480380558 6.960900557201629 6.057915969867897 -0.022946838604160483 -0.13066500531844594 -0.752099353849666
Ni 0.9409701305289843 7.748878890602142 11.76346671235247 0.20551341788790414 -0.6663417505668717 -1.4962072048534232
P 0.07372615707493953 5.592850947570046 8.03133823159586 0.42694813499175505 -0.35448827725913146 -0.35345186557481706
P 8.559948959646837 1.4525262726308394 7.961611505224186 -1.1808130653822762 0.07123626973816764 -0.14828708927558332
P 1.8153253089370902 3.2184558978368956 10.2293538630722 -0.44655279659655994 -0.41082988927365377 1.0558209420788915
P 4.0720176559823305 6.172560284370958 3.7641374991113503 -0.5955104295766066 1.2317741298111753 -0.09947880952362867
P 6.927755953884762 3.738933846892185 10.231936300906387 0.8504479064235934 -0.23588200287743244 0.8139552108141983
P 6.361465521457017 7.490001713180472 10.112719786551837 0.23850941319795052 -0.07950802282865661 0.9645858606212936
P 2.3837149900597603 8.829620980573017 5.783433773914895 0.6848223258695625 -0.8219788524496231 1.0856555089418205
P 7.009481877214804 3.993730157238805 1.337858432064819 0.30679791316170385 -0.6138637352728137 1.4417838929075364
Ni 5.192147804440329 2.972020388326963 0.47125871079645837 -0.0505813124919774 0.17750150605601045 0.2501575389598401
Ni 1.4824858089623023 1.2657655266684749 7.123279253451291 0.2863424735208295 -0.14128648958803408 -0.3405588116622328
Ni 6.873817930305225 0.4648306665168235 9.238299459046303 0.7359723663808164 0.534639305122847 -0.7164175841773404
Ni 2.8594210316043047 1.5971844143798863 9.252363520453729 0.3255062882044846 -0.6740630304705295 -0.9138716220958776
Ni 6.536264169252607 2.070058279883432 2.4613075650973797 -0.3574098217813006 0.14102860794095712 0.867278604827687
Ni 4.124924152185914 6.753672136463738 10.356676010965176 0.4529026500739877 0.15586798694663478 -0.02121185819092476
Ni 8.336324682722715 7.221469801459294 0.29430742823999473 -0.3955462236417059 -0.08131756523356963 0.1987172209016771
Ni 7.628515933102559 3.719932026808805 7.9821524727343185 -0.8425039689861685 0.06534252996155197 0.20191181657957485
Ni 3.2356027783407075 8.311631365100075 12.577284806520654 0.6236051309302937 0.31698848054146056 -0.249663372932241
Ni 0.006759218858230934 4.641836997854131 10.27375930690991 0.28404673550811727 -0.7222336766384853 -0.5490099720222222
Ni 8.588361204914367 2.465721416448176 5.832620437625013 0.6837833430820869 -0.8552389000543336 0.4082747269519678
Ni 3.817836642666983 2.6301595480554463 11.354126789570568 -1.265608304751801 -0.6759880154073842 0.07466792112753592
Ni 1.1896587129916605 3.2270881532462026 12.65294462500122 -0.03759518464495461 0.4687167342881089 -0.08257792000323198
Ni 3.058143875733445 8.303451533978468 7.987343589011383 -0.08362050233513339 -0.037461487280567744 0.11408344681068093
Ni 5.528407632030124 7.987270296276776 3.701483069204994 0.5390070951732394 -0.8046943543375625 -0.10342982375157671
Ni 3.1582472736298426 8.590831441525207 3.6939610629977015 -0.05323777627821799 -0.8294111403579524 -0.43464910318043853
Ni 3.42596482163316 4.228782671670217 9.204806489027906 0.4818525003391186 -0.39208011946997634 -0.3494689696676691
Ni 7.565882314713437 6.066439643448156 11.42025131376358 -1.8699864691316828 0.517328067537909 -0.30875992198408114
Ni 0.7729270821973243 0.11080594684621736 0.48862908889839396 -0.9218510407569285 0.038291953601663084 -1.8650352957739944
Ni 4.873405845270256 0.3105168856196934 1.6141421815314398 -1.0609104407866565 -0.4686187752576639 -0.34256015836297776
Ni 5.959278426663646 5.575812648895281 0.4416240151035639 0.12534770687059058 0.2217080253698956 -1.3255569173912913
Ni 7.925939659836228 8.78039721807131 11.306635812090748 -0.3210778201194857 0.005178715987462049 0.2508784762862647
Ni -0.019890381384422007 4.947648670881749 5.761530104450211 -0.20492283549175674 0.18770287206904449 0.554452226083716
Ni 7.9613373361058395 8.917870862131688 2.3755831159126486 -0.6080401866125013 0.5172162245503932 0.366622084408188
P 8.437314832223002 1.6906281267613466 3.6912591851515595 0.630397728372095 0.49542226860375316 -1.1826709445266212
P 1.5875115831088702 3.14697286038037 1.8040255599275068 0.8836200223001879 0.3670172629640776 -0.5880827696539678
P 4.6904273663530605 0.8549742267716336 8.108414138096927 -0.10074147828613618 -0.077645258588305 -0.4110147515909502
P 8.67367032860299 1.5432373423145949 12.35904709316588 -0.2717427213297836 -0.12575908337639632 0.09070003488973412
P 6.384349141928859 7.6396546190657215 1.237078207434023 -0.3639537935474055 1.2435299847955228 0.24442706423396612
P 1.756283939392302 3.411794892942411 6.032237272146647 0.11228727414220663 -0.6297552096920896 0.4627072948692354
P 6.913604122165521 3.7794710630700625 5.713721525120426 -1.4055657911157664 0.9488481381710626 1.1847131717676307
P 2.5346708778935843 8.299343521446156 10.196696068288896 -0.2886348690994319 0.7432136213242619 1.011254468322426
