# total energy = -381174.1563252289 ev
CRYSTAL
PRIMVEC
9.18582788836287 0.00000000000000 0.00000000000000
0.00000000000000 9.18582788836287 0.00000000000000
0.00000000000000 0.00000000000000 13.44438763233323
PRIMCOORD
 96 1
Ni 6.596921705967064 1.7531887370380568 7.602478667806249 -0.2567277359781901 0.22389372016730472 1.1049598656973874
Ni 8.335661135753861 7.139216240541348 7.976003823953363 0.012502246232068791 -0.789135323557041 -0.02368474521144953
Ni 3.4189192068547274 1.931917390049979 10.016431561554313 1.021851527111982 -0.5405734112190949 1.60278431598473
Ni 1.3653722698791757 2.649137644894913 6.942574304585572 1.4558367714561766 1.4382285714561103 -1.8243961820963934
Ni 4.83450121191215 8.644405996543487 10.379161532779824 -0.09699820919362004 0.6063388876506783 -0.2240086484786142
Ni 5.130624745198132 5.386450051585655 4.811383238892923 -0.7476289767831382 0.7879806411273075 0.3947856913265976
Ni 0.5713290993293894 7.1108044749163355 11.49113355483113 0.4836029073713219 1.5609799783544342 0.5203678828054974
Ni 3.0842611256227617 0.31823657673541356 6.255364149416331 -3.118576384948616 -3.510321489676677 -0.03888510710097174
Ni 8.049173535911347 1.6966775239358651 5.6090796131895795 -1.0699380982065638 -0.1977574280915691 -0.9888298207703228
Ni 2.006203180095074 0.29007374704588 11.23781414228858 0.3930005744017167 0.2990164694440721 0.3716599039424115
Ni 6.78300820710884 8.756114849361392 8.80612800782306 -0.373056527179622 0.12792060980408937 0.12629078751015024
Ni 6.941059561568578 4.2356036059569 4.144568377360027 0.7433082379205973 -1.379416129303592 0.39783013457987615
Ni 8.730486389583252 3.9073204892718985 6.186946266219364 -1.7473132237694617 0.2840804169595301 -0.5630955035810109
Ni 4.844284118601656 2.0385005509122567 1.8637420127089765 -1.3671571094305808 -1.548672364631675 0.16391399717956287
Ni 2.2211882957393683 1.08102496793211 0.28855257394937106 0.057778601571365 -0.5872510177812919 0.5341870480767769
Ni 5.438010103461891 6.173574456578132 9.475012436376751 0.7960695887830289 0.6392780615808603 2.495734357436592
Ni 1.5759665597980395 7.149384952001707 7.945606082341241 0.7680113970942322 0.5398758709314379 -0.35073163843017663
Ni 0.31326979960206575 4.575993643784407 8.446167563702605 -0.7512580888952932 0.35496470267491764 -0.22860038161435473
Ni 1.179983891656088 7.986526189787004 0.45495935744645594 -0.07132780101070942 -0.9064537323652518 0.03641453407329212
Ni 1.672390195027836 7.45395944693496 5.267363141816566 -0.834127314886699 1.5890574533169406 0.2521671131907012
Ni 5.21317778033295 0.34377409681756615 6.2373489037830385 0.9437928351353424 1.7405044283777444 1.7367377622464604
Ni 2.3343668810176688 3.741332579526026 8.998140286528592 0.39366160502448333 -1.5517556315426888 -0.6366046285137553
Ni 6.769753057481651 3.1018979151475032 2.114116448834009 1.2764123373458405 0.6589493147575426 -0.6601029687460115
Ni 3.9659720002695407 3.4427472443688827 3.479044124643915 -0.3805608059764672 0.1827542698145175 1.6300272108610832
P 7.136313518932068 8.466834757844126 6.570097251399278 0.6373595044019088 -0.04374706317896336 0.48527669552931907
Ni 7.165175390123077 7.478485607367804 11.03879675124369 -0.2904698654256417 -0.5996671320574576 -0.5242011405086584
P 8.952517035209565 6.360643841302796 4.9345605978158495 -0.13044928976321404 0.5447229146110941 0.49555442330624333
Ni 7.188709481145154 3.2609045957064984 10.221619991767287 -1.1570928389472008 2.477030867489818 -0.1950405433810383
P 4.936096468236962 6.935731781399646 11.861445508386705 -0.17736960846383645 0.015365169602160635 -1.9605155256611912
P 5.695672575424908 3.7947849119450208 0.03361002562087283 0.9946525980996869 0.5373363923390359 1.3736288331978537
P 8.742666797348777 2.177059578616005 7.734973211945292 -1.4737177655016553 0.5358844903838578 0.7256208479431632
Ni 3.306806177610213 2.3612446133871443 5.4929064480232235 1.7561945854194914 -1.325580057319743 -1.9747794917793735
Ni 1.660512919582268 3.5625579973747166 4.667393549748015 0.1281656359353599 0.5742870014214561 -0.2973208269092041
Ni 0.39245806598536637 0.667182294647995 2.0892715401738178 -0.16868210799216757 -0.6882691467675824 0.763326590024053
Ni 5.437734528625567 2.647419895081826 11.726329328971433 -0.7650921665649081 0.48824092036396555 -0.4257726266264151
Ni 2.0333748589566287 5.213949389874657 12.710740515036681 0.5409513633838039 0.5677157759618416 0.25145414628407664
Ni 7.137847552187606 5.940410587564325 6.262462957200039 -0.4083526313777548 0.042563841504139596 -0.8304462664906859
Ni 8.64265150341889 5.075812910253272 11.976919632051587 0.5129466506407617 -1.423006355189717 -0.020059489754036423
Ni 4.899270484276188 7.3750715571232535 2.361116930379648 -1.412019002940278 -0.40849481338257393 0.5025822766873023
Ni 1.3996078503785043 1.3569304940597813 8.80974446825842 0.12908146288140995 -0.3211801500253049 1.3514546110936596
Ni 3.664695217544299 3.71765151525791 0.7791060958382333 1.7667101402388348 -0.01287094242539719 -2.2166475370369114
Ni 3.3330960169955306 5.659305882858007 8.511480637076989 -1.2990940952140722 0.6604271848546497 0.9941540611967138
Ni 1.4081231128209184 5.235288068034018 10.452487403811723 0.47454079716905373 0.5112697771589712 -0.6434324500688661
Ni 4.001245579319023 0.41200183337747026 3.938318065444419 -0.8007315130350726 -0.3744153552003616 0.36489404597348774
Ni 6.957437892674107 0.5292322873325226 11.751645470601739 -0.9731172951310725 -0.6032142259787676 -2.489938062469789
Ni 3.406077419482025 8.032032781091988 13.077812627099874 -0.23314866310666943 -0.8336447188233256 0.6826996230996049
Ni 8.155361706174892 1.4655988378502445 9.727148714288683 1.3107807875233812 -2.3224697722800647 -0.35305077348165653
Ni 0.3738650317785805 5.382867578713443 1.1298311086106807 0.963770820919166 0.14069822118473188 -0.7680862161962256
Ni 3.3480046156406633 4.2026081122210295 6.586768610414097 0.21144366732941003 0.3522691581206256 0.7143082511438213
Ni 9.147127984621632 2.7721358801742286 1.1349714978909125 -0.25611041410916535 0.08061925361496439 0.5278744755951876
Ni 1.3271775975646578 0.7408223209933039 4.2358157985808695 1.1619799918361728 0.3051601204479648 1.516589625164517
Ni 2.492014059050799 5.6435430022202695 3.619283240266453 1.1781643149055194 0.5047761990148274 1.5239985160340785
Ni 6.411983433309973 9.00466498006996 2.2255837143787374 0.9262013473058242 0.635588528544415 -0.7742038990581892
Ni 2.648825326747079 2.809788588643976 12.154116088973545 0.24207913282707982 0.13138105754886403 -0.33821010892439823
Ni 7.365747941827622 5.665772705683745 1.5420175771284879 -1.5864608962343583 -0.7558989301014143 -0.16931357092857938
Ni 8.113749905889955 6.900311229104124 13.187492330539646 -0.1795265069058392 1.2421798985255317 0.7010411017212701
P 5.602932457173977 1.7324471376907307 9.734018794958242 0.8186204775003515 -0.9320781178015753 -0.8781338023746361
Ni 0.0739137640160576 4.9089339752032854 3.485498087310625 -0.1394329813190631 0.4328099930891707 -1.0537416909523594
P 2.975868356668623 8.814573457973607 8.581310382018724 -1.7042744995114327 1.1734278286617983 1.0813977621067312
Ni 0.5908094845091388 3.0797784416185565 10.651491016114797 -0.051646520531698145 -0.753427071522154 -0.09149193466341018
P 5.15680435464892 5.673543916068084 7.464862106042729 2.031303909228663 -1.8482135962309652 -1.976518843067983
P 8.492022297884146 6.0579248836007915 10.017077325254098 -0.25855116234017406 -0.5080756957017056 -1.5763716303191562
P 9.087622191631386 0.036750660172179615 11.462012643293976 -0.5815133439665662 0.07193766668056643 -0.7415375191734197
Ni 6.353855514501347 1.4452614149295273 0.24282276702696512 -0.4350003158722702 0.4056843405169723 1.3089835864136425
Ni 5.107650989676581 5.066755683966087 2.541002997704131 0.7850549828400802 -0.18729715199019356 -1.0657029770792936
Ni 3.579515035636525 6.437593521432358 6.203442175921723 -1.0246735699418095 1.0892511967128788 -0.26440479290747365
Ni 3.8098496696640702 4.543466627270287 10.637683798232175 0.3027144871209496 0.33388988428248945 1.1778668382697586
Ni 4.586309328490804 7.72820233821681 7.922791241641971 0.9870382760875389 1.3203563470269584 -0.31953747221555934
Ni 2.4346485639560025 1.94665145796544 2.5320624314309903 0.038577860273198074 -2.3014381484207465 0.3296354798815097
Ni 5.986229497017143 8.166568416185406 13.298785065354704 0.009832669819705646 0.20146778706362078 0.5324348412723604
Ni 7.892839931264694 2.5121126504467024 12.33670462685958 1.4497142034982067 1.6222478240259801 0.6084464209119843
Ni 1.2386445884816077 5.416680611130407 6.355564997069344 0.4020513717500754 -0.1834358692625744 0.043880246322717975
Ni 0.3792653799877448 0.40614403094000806 6.768442239843536 0.390775798836256 -2.2788911163581655 0.11579348752325219
Ni 8.50801482421882 0.3192506921330861 0.06046020050671591 -0.3162032656360038 0.606692157225039 -0.095194580325978
Ni 5.764979646760415 1.8857126758263079 4.31059303041741 -0.4903564240450717 1.2132004805740462 0.8113617390554092
Ni 5.717139855174555 3.5121921031225516 6.348062931441814 0.03631400393968585 0.5954016719128843 -0.9207416097428337
Ni 6.366467656177112 5.127648536965832 11.683575730281326 -1.2631899251182954 -0.03829375337387598 0.3878228868555192
Ni 9.120911631859334 2.665038312950813 3.514873446279985 -0.7219570259383308 -1.3499124634175204 -0.05536253593070466
Ni 2.7721083226905963 6.089487388187777 1.352357788942377 -0.004383216669360194 1.2014942478807114 -0.007004713452607291
Ni 6.150049551383932 8.432130700123047 4.628620170277217 0.0995662270311124 -0.8420866789430916 -1.2967605619848892
Ni 2.104684440769424 4.002458108598849 2.0845252229095292 -3.645465099591767 1.0509155343574739 1.2992686731187235
Ni 7.1603436446595286 4.761878056712878 8.461265390402016 0.030236944507670505 0.6920658948058532 -0.46177064198757894
Ni 2.8177251439301094 7.266871690554541 10.592685183208815 0.6860402574370636 -0.6654081830090088 -0.3530471739372307
Ni 4.245763131589381 0.8334742552966116 12.453913034827726 0.3486174203006512 0.473043643798237 -0.1407205897822351
Ni 0.3955077608406862 8.5506278797424 9.370778091702743 -0.21449505256122417 -0.02764810073457174 0.9496282108701969
Ni 3.417936323271838 1.9213261305072566 7.739987755383603 1.9347427875724614 0.4602030403901429 0.3755942059998112
Ni 8.604732405940696 8.651332110763098 4.421267559016312 -0.36737721740665763 -0.23406500427335172 0.5287514788835023
Ni 7.127329779267902 6.501040034582039 3.6430791273830376 0.16210368344370146 0.638257590736146 0.24743525493267066
P 3.884668237726059 0.05535104304126743 1.8587403294296945 -0.6815703945911681 0.6141825520648132 -2.6104986323643815
Ni 4.9912114355017785 3.7211696873349807 8.640547030252161 -0.5190419649052223 -0.8118744170257697 0.4744456663520861
P 0.7054614765789855 3.5080401089219353 12.829898155680429 0.48890863585495153 -0.11363941729472687 -0.49881869587981187
Ni 4.837211031136005 5.950156750942321 0.28053610196070355 0.591156266372969 -0.7987394223057083 0.045090721691051376
P 7.475105222708895 1.1858077065304038 3.4273646570052727 1.7644061746960065 0.6753802066200563 -0.04505369780552886
P 3.6278324902720143 7.483188751241068 4.334000357014777 0.6260641339937476 -0.4732012524220238 -0.34309057694515105
P 8.35871756372631 7.990659812331866 1.6488065005352208 -0.03102601606786915 -1.306963727770136 0.44320059229487546
Ni 0.8881299311675545 7.314913570353705 2.9625250230938103 -0.6884293264945305 0.1252343212211779 -0.7878939949507721
