# total energy = -381166.01458883454 ev
CRYSTAL
PRIMVEC
9.22631566446603 0.00000000000000 0.00000000000000
0.00000000000000 9.22631566446603 0.00000000000000
0.00000000000000 0.00000000000000 13.50364558522384
PRIMCOORD
 96 1
Ni 4.685344571894881 1.295494674086841 10.53612505783825 -1.768678062598483 1.1137244992638948 0.7005986148672129
Ni 4.215577478920544 4.982561107621868 5.9340959624728855 0.2026450952011736 1.659497195295742 0.8090544310784712
Ni 8.630526414987807 8.961760376902957 1.2623279142112782 0.6668968517393934 0.9493749572088103 -0.6530604600769334
Ni 3.4807475606248985 1.8034956195493086 0.5267405153921592 -1.5976423667724744 -0.09135900862997169 -1.4758155285709487
Ni 7.397936761717588 1.7644959828535247 1.9601086389617166 1.2480754380743602 0.5805607502453098 1.2017341318056594
Ni 2.776705858003213 6.144135808526949 4.235418670951365 -0.53060652981437 -0.6744142431623611 -0.6596897924679929
Ni 8.268052147926712 5.79183816774346 10.427988024033441 -0.18835258983790143 -0.11731018127809474 0.5689596756712717
Ni 3.818098569885517 8.780371009162453 0.7648708023934622 0.40059201359572943 -0.3593605177497682 -0.6198634044996744
Ni 0.06514424765032409 4.314105304866669 7.696456975860737 1.0266607755751673 1.2798730422009312 -0.4105666083099381
Ni 5.402782884992619 5.993691503828239 0.19222290769985728 -0.12415137256964424 -1.2386389752518085 -0.4049163520026962
Ni 8.097420664356372 1.0350819119059809 4.352076207355787 -1.5692545596584007 -1.106415110086675 0.31582197103718507
Ni 7.055013057741035 1.0452769908150987 9.864048848780845 -0.8493595584554211 0.5184650093558296 1.6172485710391762
Ni 1.752031230268712 0.20686599343439202 1.7764043885983196 0.9983609001892098 -0.4687051643238831 0.1409949264895443
Ni 6.927634542429469 4.76610251369715 7.6042676288381985 0.7976760140382004 -0.03782221305409615 -1.2037241656524946
Ni 1.6714485884657844 4.756128866366149 0.7826600618004034 -3.1404647003812753 1.134161426962008 -0.9283021956989109
Ni 8.88085481404861 5.3902720008290315 5.466869796857436 -0.18588870167844113 -0.07282212616804878 0.8046388185092788
Ni 5.706900704904241 0.026831048846701813 12.517069485669163 -0.44293062646294046 0.6808792820614145 -1.5653876205038266
Ni 1.1238206168362028 7.139009436373259 6.202129661467259 1.7981786431607611 -1.8726532173305683 0.5725545921113817
Ni 8.273947763694066 6.726952948445558 1.570960170421751 -0.5430028465961939 -1.0190364262606904 1.3457197654924113
Ni 3.1252299356429645 6.732285758951866 13.422056654905347 -0.7440687702357056 -0.43802084786614887 -0.6482252434718191
Ni 7.92864367025276 3.330091050663826 3.9044578079825607 0.14792636350205493 1.1756276645265946 -2.127669369934291
Ni 6.674658190747024 3.8834762433244387 0.3357502434771509 0.5557074386470559 0.17319105160611464 -0.8905031225732664
Ni 1.3168905003223559 9.021426960889622 4.1951771721549775 0.8355007981954579 -0.41195166158292285 0.30354726743489013
Ni 8.709226888376746 9.155300802492608 12.258838747164328 0.020734404333873968 -0.8252243559701142 -0.301953440585209
P 8.869967761457877 3.4263215239869926 1.3207120403080181 0.12151547760869395 0.22859601073898048 0.21326477969854885
Ni 5.5813766790594 0.30472491148829073 2.1868887123213936 0.08978317950241957 0.06328847564600068 1.7240676229779597
P 1.6291459307297618 8.785297861775547 13.004996735943784 0.13629135036628787 -0.801939931520877 0.8597486149992289
Ni 8.129223774763368 8.59514349406793 8.717751081502659 1.0604877514269413 -1.209871673311129 -0.13777153445624013
P 7.226797830780732 3.0131671044844626 11.506051650515001 -0.08038502611697124 0.32976326370862563 -0.11550166731444625
P 8.308241979354873 6.706774995889684 7.164183438910389 -0.31127780330992844 0.42906235312128044 0.5992979216434968
P 1.6004705413636637 5.5245518003252325 11.752979229588561 -0.6614687387452867 0.7417516920667548 -0.1464307527931349
Ni 3.7738860647882384 8.427362942065841 3.2250623626368276 -2.1638797584165763 1.8034571179508812 -0.33106707012171366
Ni 6.6441283119142 5.062608623111014 2.2770252040884764 -0.6429737652648927 -0.8715767179824087 0.2903096856986936
Ni 4.402336562430374 4.218981989434086 3.3896847467560276 0.6208087991320792 1.8836027743635366 -2.246042702369577
Ni 7.5399020822375835 6.431166491660574 3.8268930940630472 0.9294429941715735 2.632851031917653 -0.5072681121987458
Ni 2.265780170446456 4.6828719192725785 7.743192878316968 0.7330914452885955 -2.8769099141789227 -0.1821922266634604
Ni 7.051230268281544 9.097728592182296 6.602634802069878 0.883858363563239 0.5515211684798501 3.6874396442513393
Ni 8.69039597792108 8.130284801075177 5.389102103991316 -2.7874285821876383 -1.8293103315685593 -2.8139963053738377
Ni 3.8025614541543367 2.281686338807831 7.243382133350088 2.197907794535563 -0.47133874529198827 0.6387841526635772
Ni 6.351727913011248 8.083553511776822 0.7248267467542285 1.081049891849009 -0.6552081025475555 0.22428838450256214
Ni 8.017483864656285 3.716101649215565 9.371489987997283 -3.3072465060269365 0.1499685907430643 2.3207535609199064
Ni 4.533968409304929 8.661720588554983 6.980277132231961 -0.1147215946153121 0.764863852604186 0.14777569685680356
Ni 3.7601573069450103 4.163384210695313 13.399532450253012 1.1848748941564755 -0.3098426135252986 -0.5664315099327794
Ni 5.193077954200457 2.5481976957026515 12.236153081986282 0.6140467978178973 0.5527118463538416 1.902270268866053
Ni 0.381498930147613 7.5850095399630835 10.505971612688224 -1.5909736965030472 2.835417965582723 1.095281719177675
Ni 1.7650495617988162 7.1249669837943665 2.082289047976996 -0.10121893214318697 -0.9312162840219125 -0.004909264376159288
Ni 1.6168103465655168 3.4054885030125237 12.455195966953935 0.7157712088425932 0.008484383321927323 -1.3804427707958935
Ni 6.026933919492991 6.930531605576494 6.735699495781162 0.8270084444537306 -0.7730733849981719 0.05621948461436124
Ni 0.8244580400646354 1.6627389463931985 0.3043881509632384 -1.3780950964993235 0.7318781417067847 0.1115156860835047
Ni 3.5512642919392765 0.9233050965358793 4.967572957678102 -0.05601662457493579 -0.9621201726896204 0.5620662909855481
Ni 0.8679868751644788 4.166982473839708 9.937765266399008 1.6191128779414246 -0.18650216689272395 1.2257685470470436
Ni 3.6250932706096477 5.514679642467534 10.723906417133719 -0.6674624944348763 -1.0784713324885555 -0.7847590488662163
Ni 4.887908334292782 6.88243482154642 2.146850192471613 0.04497450782816125 -0.961115899794822 0.05602510921536803
Ni 0.4721567087548452 1.6865705199879961 3.0008610445306334 0.33191759104746704 0.8253146016910753 -2.6464688798114033
Ni 6.386225107618661 5.08721520722922 4.958674176132541 -0.6386941640529323 -2.499043367205167 1.279446496186474
Ni 5.227298359335224 2.5221149010636688 1.6254747796909037 0.9995981150304203 1.9174845147126462 -0.7841751513382882
P 1.5567008994226188 4.314446678549599 4.970570587666854 -0.07564828276293423 0.436081721861907 -0.21803134784925673
Ni 5.211401417289605 8.531491141675165 9.88539762080601 1.5835547783311568 -2.5873448199557374 -0.46734916451662095
P 3.3833914767796394 5.367270795652172 1.6774899800220653 1.3265143962085542 0.44533923590443303 1.7807355079836493
Ni 9.22159188119126 0.6922993705604775 6.370601264519386 -0.4363540016866872 1.6854805067333811 1.984552254895421
P 3.3520865874234067 7.937510159693178 5.24284470138216 -1.1317394477840765 0.22485608408057403 1.6296626284328126
P 3.445715239703704 3.3683618084149765 11.142951839245725 -0.16994734785783636 -0.8696010823132766 0.776672929423972
P 7.5966623767614685 8.4459908735749 3.0260996312780466 -0.7902200719807875 0.7976649582946069 0.5035140444729521
Ni 5.002628344388683 7.047290631454219 11.59690410438466 0.9937758519216885 0.15571474919822215 1.2591193545933477
Ni 5.183381096342102 7.082073841850033 4.445494499636872 0.6444557491270578 -0.9425743893472089 0.6989744490002285
Ni 7.430653277384313 6.55848964907761 12.78337509572265 -0.6220390719947546 0.47354783712816506 -1.4534284191250002
Ni 3.4540466028303403 3.148637098713039 5.022599627471649 -1.916324175855958 -1.0606597582284314 -0.05508639945118255
Ni 0.39280762536834213 6.744676701010639 13.339197881005697 2.739057389973102 1.680322102460893 -1.2524311439398947
Ni 6.068387756179567 4.7971398398964915 11.325210325930335 -0.22571688941897255 -0.12116735024065584 0.5921584823852383
Ni 8.151265443101723 3.2833320824182075 6.07627625614997 -0.11787916640768731 -2.153801548244968 0.3190823869560118
Ni 2.526432816836942 7.571225424225326 11.157927072347436 0.8930881096916231 0.9783181226057215 0.2748041338639267
Ni 9.072245508067377 2.166099055030973 11.051275475379157 0.6782760401106125 -0.4761431086591671 0.22683917594887384
Ni 3.0579331885270324 6.627659338291778 7.4464099794304595 1.9645611564854748 2.533362709312327 -0.08484871831527967
Ni 8.71956958833794 1.8926864139515183 8.526579973798855 3.639172838825152 -1.9620617871023887 -0.7059465094426874
Ni 5.720952383798888 2.2565907599546176 3.953813061481597 0.15220545049338302 -0.05626627869189665 0.3242207366238416
Ni 1.6246711675886556 2.240287860015784 7.213256367147327 -1.366627719289672 0.7324029038620032 1.543746130974651
Ni 1.9327009453803363 3.6078677390953287 2.6400844195684305 0.27550578791664165 -0.5375153411190614 2.033745171680304
Ni 6.727303548444242 2.248526959984872 7.6448597276332695 -1.9810768947523107 -0.0527441244712511 -0.6052603098745188
Ni 2.1052791815749505 1.2541331005578136 11.826736242996045 0.8407322217977262 -0.8070050047486101 -1.037369420241923
Ni 2.3893666699827754 2.1895984812585954 9.583185957729343 -0.9121878066355517 0.3910946156282555 -0.11226490554470343
Ni 1.3760680895740136 6.28193083432575 9.186867719216277 1.0054311767724298 -0.625501319511742 -1.3097022097472217
Ni 1.1377892588890575 2.1655454760856814 5.083163931981262 0.3838273925428809 0.9365711205759224 -1.1643436069723432
Ni 2.0823148816611097 -0.06842697079590249 6.768689110394232 1.1397304364093532 -0.19589183563774007 -0.08072878260963516
Ni 4.529632040900147 3.431469808178203 9.31284291190153 0.8118350791474017 1.1708644388099965 -1.0758161542538958
Ni 0.3112257735691635 5.3069399169311575 3.2863149503017524 0.7537818837584115 -0.2569120840748543 -1.4103241317363582
Ni 8.81333663535456 4.635670087870727 12.750723164266207 -0.46861491860292204 -1.2264534889292102 -0.33610257566309215
Ni 6.126245982278279 6.208544718811611 9.424329098325353 -0.04024213534949844 0.6638585791337018 0.22360987037829877
Ni 7.398278135400517 1.648844114866383 13.204539802563547 0.17968720085341958 -0.14250364982458683 -0.567588506355358
P 5.220692317254747 0.9470259543416186 8.505892728613313 0.8011881409565169 0.8277345239864776 -1.1360717566108436
Ni 3.276393892970554 0.11094367905743795 8.971619617918597 -0.43850267259857384 -1.1547071123238437 -0.027416958560372136
P 4.982164376044409 5.344472569421918 7.899038268258573 -2.8524921474561906 0.268278416930267 0.9782492170409991
Ni 3.462018139642537 1.8477450299096063 2.8100820552464114 -0.6923358606377883 -1.0464754963082494 1.0640397304442577
P 5.511229000375217 3.1209858303957305 5.950556632411128 0.6390752015414349 -0.06466658694044991 -0.1789220405526209
P 7.165996409956219 7.754764523536711 10.870447990268126 0.27304447086034267 0.7468956981615394 -0.0462492607755268
P 1.2396293321911773 0.23673619069074395 8.794127445952947 -2.6300989230938123 0.45968650576504055 0.04364473327314419
Ni 5.796192988779754 0.09823166121039496 5.045205023702626 -1.5547067437512128 0.16782310242598195 -3.770149718957062
