# total energy = -340866.07944022963 ev
CRYSTAL
PRIMVEC
9.25686029033217 0.00000000000000 0.00000000000000

0.00000000000000 9.25686029033217 0.00000000000000

0.00000000000000 0.00000000000000 13.54835073267824

PRIMCOORD
 96 1
Ni 0.763548426731298 8.741697597937648 1.3391326004487039 1.0976597324915482 0.31776649635806564 -0.5777772739629017
Ni 7.398499384404558 8.5302986771541 7.054233043663285 -1.2912571156681567 -3.4910207324655365 -3.544464711217289
Ni 1.9616397994956976 0.12150462382593046 5.375701359667684 1.7726077366701927 0.406953437037383 1.1814586693860751
Ni 5.755073417761479 4.476515860349225 12.955068687909245 0.730155245478407 -1.0154865041259027 -0.34121649985088975
Ni 0.21619952858309918 0.7439174028969209 6.6956491169529295 0.4516569505923448 -1.936671629164058 2.460757327140775
Ni 7.031094595426189 2.4226129333214685 12.130678620562193 0.686744996813572 1.0147262289211105 -2.543874407476929
Ni 0.701118308872192 8.784954906551807 3.471291173862586 -0.06955322560878989 -0.7018412290250623 2.909026592207809
Ni 5.997010720979889 4.332145865667777 2.279483357932616 -1.659323388722039 -1.5030046873912308 -1.3138709964129307
Ni 8.271643484066834 4.114350454353011 2.352819908706167 0.14860564895726663 -0.10360388743559576 0.029583627194387757
Ni 6.741067902468736 -0.018288779077464463 5.016656441309783 1.0764895261718364 1.400954774706316 -0.8596295729228615
Ni 5.660894120128174 8.261544249378616 2.88631313821887 -0.4375858172112593 -0.15936417302535133 -0.7564242064772649
Ni 4.084043493427962 5.789684818769041 4.057893788505186 3.268222559355255 1.808136011483789 1.6135369265155435
Ni 4.372191043725737 5.61676666663712 0.902746613511455 1.3096176204532155 0.8301559889437767 -0.6271352555707392
Ni 0.09057837894062347 2.4465604311568687 8.418389714811036 -0.2253250532971926 0.2730886938347168 0.4148289831307178
Ni 1.0000649125038588 4.704317937748285 6.84134839678674 0.5656087569211677 0.2538015634703306 -0.4360840358547522
Ni 0.5440543815345077 3.36717371091189 13.354893779040271 0.1936727164992342 0.8944024576276726 -0.6868229012393591
Ni 2.5368888748668947 4.711945590711705 10.094848787764755 1.2439791565177996 -0.2047210038935958 -1.238893771575092
Ni 6.062123476980742 6.967194488136753 5.370511963731648 -0.4110975411127436 0.004825189302785238 0.14516139916240806
Ni 9.460696458343994 6.0607071773406895 3.725512330821844 -0.2945846589249636 1.4963722696763777 2.3940454276355223
Ni 6.774633278251946 6.409588988673664 0.9223174677532809 -0.5996308795028834 -0.5059349952096189 -0.49017850370631066
Ni 4.452651674257357 1.8443461214623158 6.468592216815466 -0.7097260310897776 0.5214384901618568 0.4069801765102604
Ni 2.634058138406979 3.425334564757975 1.1221517928484774 0.14680716229594715 -1.5464041374227884 -1.8566612127776863
Ni 8.153535202318912 7.458826343582488 2.5112279321728423 -1.5323664283827996 1.227710758375079 0.6412336426453343
Ni 9.36599877652871 1.7084554109003993 11.170831989405634 -0.540447684274508 2.0800132015089083 0.5295384935611719
P 2.464166979623406 6.000102512350984 8.13749213757267 -1.8194745764250602 -1.2598333499412366 -0.8460646897542332
P 8.781557638787758 6.698921417101678 10.430929286860941 -1.2017629281610658 0.19543057973060537 1.537719208054281
P 4.642667247534227 4.634317559460191 10.776182408920054 1.1438202902080108 1.2040956900593005 0.7573783428604183
P 2.312345212325995 1.2378366285456424 7.44919458034409 0.7809867263079776 0.9207788907386724 0.254894025203561
P 6.234902776206775 6.196570117321428 3.114657667636931 0.10820179121892334 1.0252294424452795 0.07939283740703101
P 7.957382330601814 8.750176882057179 0.6384651006776265 -1.241236560775656 -1.500363650223958 -0.5263454405451709
P 2.6196729773570326 9.136243501586831 10.476885895965554 -1.0102915901885245 -0.24003099204879955 -0.11780743262948744
P 5.7985343773042715 6.756165841768906 7.669829996427277 0.9105338159718964 -0.7861132489012654 -0.6109478471775994
Ni 4.052875644486411 6.005823252073549 6.627243695710464 -0.4682233395914581 -0.3118017941341985 -0.4485880818590338
Ni 2.8799944053149487 0.6855852971335751 3.2821966581947697 -1.5155961509029963 -0.7936743490779751 -1.7033486452630535
Ni 6.249065772607302 0.8736402673793139 -0.3138695882704177 -2.325423198481434 -3.752124743134551 1.5395477766225873
Ni 6.323157683188881 6.307967175284786 11.572851882135721 -0.8742424377400297 0.9523826336868824 -0.29438976930533817
Ni 0.974617803284873 7.233356995002339 6.085390595577294 0.4727407678458374 0.11541656379980768 -0.3519256587382778
Ni 3.4302592144867856 6.556504619963048 11.434713605870506 1.4566443549591366 0.48751124128679263 1.2011959999140023
Ni 2.903673454198967 5.092643231213707 2.4524005843784975 -2.8558926884973075 1.3768589100993773 -0.04290734088648739
Ni 8.95566066904992 5.067168351413543 8.66239592632717 0.05096286420111223 -0.3039475881971023 2.9910409263980875
Ni 0.22700783877738348 5.823555670945202 1.5474517637796665 1.860587544415286 0.5119220660309893 -3.5851470194279993
Ni 4.21105687487347 0.8315585800350037 1.5182685857062677 1.075197032612658 0.7705133375804795 -0.9606991239723778
Ni 4.0713338241090575 7.020541774578737 9.040299846362714 1.0450966136828517 0.14505212727805342 -0.05599117065363905
Ni 4.911810463446197 8.495964981958315 10.708373129486866 0.27782440874748926 0.18365646991381274 1.3762212765153785
Ni 2.241187726488839 2.150303871155263 9.721185435475016 -0.4219475964533701 -0.33183248753282846 0.05184346703385265
Ni 4.425455018424189 0.07802607624839196 4.773368562160108 0.03060795469384406 0.7893631232971309 0.017406368401905507
Ni 6.756776794554811 7.628782300388809 9.36303472983103 -0.32795449263466103 0.4637010262410723 0.28377831233807904
Ni 2.035259610197259 5.187914838373329 4.786930788321161 0.2702602232469862 -0.9571476591756936 0.8645226393491047
Ni 3.125847360479386 3.8665257879249704 7.50741190103857 -0.25519818670754113 -0.4425007380143734 -0.5281565256119807
Ni 0.9079045361221567 2.2511018239692078 2.3020136304419245 -0.5621354536605866 -1.6020669782027313 0.5820517329685395
Ni 6.496640503804744 5.250602296951346 9.281528074075059 -0.9187222653199596 -0.5984808250588403 0.15706354991663274
Ni 3.870043394874121 2.8836230945888093 2.9555729676755633 2.5134142912148585 -0.1073391861083119 -0.28308385737421565
Ni 7.404932902377347 9.058948717309448 11.15491296658865 0.2244125687852522 0.6232302640893783 1.046640561131204
Ni 7.8236114410697795 2.14474049805937 6.041697288838649 -1.1605062355041238 0.1762648054354319 0.028676027778453836
Ni 6.5254663670669935 4.62354257396332 4.604704863064581 -0.09177398468020323 0.05355659307021744 1.1116722447205565
Ni 7.311494153575441 2.5115621048330112 0.9217731643622018 -1.533058826464134 0.7024842619256999 1.2518325911239474
P 4.497973262739042 3.8147243971685345 5.046746791701647 -0.40536192418054706 -0.2039157343834811 1.0115300905813158
P 1.0269560919440743 4.1573022865742155 3.118640894663824 1.345250796275793 0.24947491107051872 -0.5737079889895346
P 0.7969342194228926 3.7592943171382376 10.611786122465471 -1.8882348738189094 -1.8924124022353668 0.25066173228976835
P 2.0087387051727434 1.4000816206450095 0.5516912913583211 -0.19584786977368207 -1.4255507188781253 -0.8848652075611987
P 5.777808266885462 1.1116100802334972 3.4025191809485773 -0.971604715141288 0.05174602222403991 -1.4662371408538941
P 2.1449348921276123 7.18376799387971 3.0715605027075634 0.43222506711997816 0.049107813270244466 -0.687866512012525
P 4.867303478679052 2.843735283157522 0.6151952050229572 0.16648818566464232 -0.27222043229715054 0.4905474570099551
P 5.874838677519659 1.194051678889112 10.253188310464527 -0.32286653658879233 0.3416736419929664 0.33317666026554876
Ni 2.728006014530473 4.385437610947406 12.555162136406762 1.3551045491414209 -2.5376459100687137 -1.741030990305176
Ni -0.3970452559551581 7.423465136883134 8.404001776702971 2.075743370488961 -0.10189950314997934 -0.19132349954076724
Ni 2.78654639965265 2.37420881032908 4.799381265549075 -1.5926066041207796 0.8838025706246392 1.9578415783734537
Ni 4.47468300199151 3.090060338201977 9.30485813932228 1.2659698018562777 -0.6525832633301987 0.1496258626916649
Ni 2.0885513554768877 8.295739091668514 8.122723742502473 0.1644798969853619 0.942650236890467 -0.7400917878658286
Ni 8.918549915736383 3.9460237049757705 4.726708431665666 0.04420291976945936 -0.653955718197693 1.7758200729599027
Ni 7.876986498092942 4.326989794429154 11.253571658965887 1.6997097629588855 1.5997774108376062 -0.02747429416086881
Ni 7.083044095948906 2.8289335633899126 9.526333152643065 0.22820083218309087 -0.29488907753925986 -0.6151035212171858
Ni 1.0028142000404314 5.5821552656295585 11.969859184963271 -2.1881283465512964 1.4068598273368416 -0.46712393587969225
Ni 3.3508723797606956 7.910459305272225 0.9958150878976614 -0.48381142383770226 -0.6494485743559589 0.20663339042496026
Ni 3.3644984782584575 0.1139815733849448 12.503163574523967 -0.5732703872314837 1.0948081219753663 0.6699425805442526
Ni 8.213695538009777 0.7483144115833589 2.481651337532762 -1.1470405969175212 0.32106496460367934 0.27154217528320335
Ni 8.896213111609278 1.2692266421366138 13.535168358126112 1.2406410932835021 -1.444920638764305 -0.9387894683834799
Ni 6.006961845901828 0.8309041200052539 7.960225112428351 1.3649122792604622 2.678663205155761 0.921384128422839
Ni 4.692802403420013 8.617961145071085 6.946591493961164 -0.46424455744936827 -1.8705539115993783 0.07352480866202821
Ni 8.284890051288503 6.033834511621259 6.4276491232994335 -1.34596093496894 -0.721107533453842 -0.09147882203728762
Ni 1.2180176904452975 8.237606008403608 12.799208152422585 0.596260934589386 -0.5083088947584343 -1.749525143819116
Ni 5.7313110571339285 4.191395303399798 7.058771682313727 0.7960544192743775 -0.23323453795225638 -0.24731338464282568
Ni 8.348475425324594 7.0033888122714325 12.801579760055144 0.506160995177496 0.1846571432641852 -0.8734525948488828
Ni 4.15446968729411 2.8232035668069546 11.974438553799443 1.5051330465881432 -1.9083000199999007 -0.4434291633659137
Ni 7.2367912902079565 2.5581611400488624 3.7119501046607906 -0.10545868125614741 -0.7102340810744477 -0.0573890794424302
Ni 1.6738069824512678 6.917836908523937 9.97517702229654 -0.8956170467610639 0.8653847302390838 0.14198608675822
Ni 4.031390471515415 0.5860027700891658 8.965255404846747 -1.7507307340914429 0.4386173437995672 -0.24090876666806255
Ni 0.34725630664805157 9.082961013167596 10.055870925710051 0.33489672828044903 -0.8922722986585472 -0.9605206894129844
P 3.303680905479725 7.695357640331677 5.443212568196235 -0.6222727852721154 -1.6561776440042058 -0.15174985101320318
P 8.17358556192907 7.584728901780895 4.91348595517724 0.7646658776607669 0.24427639758871475 -0.47386459703763556
P 9.557893492465258 1.344725595497853 4.720177716658757 -1.0010878122020694 1.5456531181893767 -2.355326156688453
P 8.069723588325207 3.9304536657955835 7.147676420895388 -0.6436211690409044 -0.31056766461678126 -0.3783717687449484
P 7.880152344347176 4.4055620254407035 13.629641098233861 0.019109467135941284 1.6047003020605202 -0.2443339902995276
P 2.4610289039503477 5.95160582075467 0.10093217728963598 -1.9584285612251755 3.3457181797395736 1.948734216755547
P 4.889455145598307 7.888020675680803 12.854295728618357 1.1740914303877263 -0.7348835041920118 0.57029202132945
P 8.032566550709708 0.4143916866446659 8.451474659539874 2.9181128707797934 2.753962589219709 3.5974420347452694
