# total energy = -340868.1692372309 ev
CRYSTAL
PRIMVEC
9.25235623851738 0.00000000000000 0.00000000000000

0.00000000000000 9.25235623851738 0.00000000000000

0.00000000000000 0.00000000000000 13.54175859756965

PRIMCOORD
 96 1
Ni 6.898371613398135 0.587963169968691 2.44221581510137 0.488291828206559 1.3271905963399724 -0.545876311489247
Ni 4.106852526101348 7.912864695688787 5.085797131265688 -0.1808107729349015 -0.6933817854037995 0.2497700737134344
Ni 1.9266458544659644 6.163549497010785 11.593695263814556 -2.299342442233982 -0.19780653616194965 -1.759586641820176
Ni 8.794197869907839 6.594607512376816 9.938350693981635 -0.5392449222156583 0.4013954833336313 0.18289928003281403
Ni -0.055298556320980484 4.731238520841765 11.499187073083775 0.47720831669888775 0.8221580583399647 0.450109917820199
Ni 0.4414761682626841 5.258835619088502 6.346250220242102 1.0480690660476144 -2.416082867051536 2.3402371235658146
Ni 2.1377291050736322 4.438262666958544 12.921464794367244 0.8912757390732328 0.7093719901844686 -0.9341195737116363
Ni 7.118596191769473 0.627219991394275 9.87603144990046 0.2672471474522753 0.0530148616341345 2.2232861253993517
Ni 5.139193403185645 8.139260595536207 10.916227577259411 0.35479912363133087 -1.2103262443500444 -0.1264216566610597
Ni 8.838729459509604 1.2859849654580418 12.297053818265532 0.2269255650150931 0.03733627455661312 -0.05936882887662032
Ni -0.238770926045708 8.188335091951702 8.268448467161512 1.6120991656277526 1.0696316227097387 0.978592459313031
Ni 2.604482710026952 0.4035988731220831 8.926144794103108 -0.8959284073538958 -1.082891315933122 -1.5182274178782564
Ni 7.959727879011652 3.5861021713213286 7.117751451663376 1.22919171379598 -0.29172507798898145 -0.5807975488464643
Ni 8.341979716287238 2.976529198594714 2.4288359830375605 -0.43912513667392117 -0.6501893091767255 1.455795890915912
Ni 9.380223596522569 5.9598773835880365 2.0612047187702265 -0.6003363902103402 0.9649895238176155 -1.1506514541972312
Ni 4.198090008973367 8.146560704448692 8.281516494826905 0.16354272988307317 -0.7318717139488814 0.3566737149462244
Ni 0.4530499404282461 2.7575351835761777 10.649590405304163 0.03380203615110953 1.207284115089611 0.05809844680462898
Ni 1.5339481072256185 2.5855616419331198 8.236287277580015 -1.0309257214991083 0.2980515344276415 -0.002568532058124609
Ni 4.853711957691668 3.595280508509143 10.507212374913792 0.24501970351264252 0.18964688316929273 0.2901852443056873
Ni 4.668979417074824 0.8542718832846542 6.902396388273839 0.4563875232987946 0.48875128434148085 0.9466542158435375
Ni 3.7182443202289606 2.364911455184121 13.073172900584424 -0.6152284768308244 -0.1568907717841943 0.39177827195884135
Ni 6.150503674999879 6.817367236302047 9.261574158422386 2.3684230990817277 0.9290958952448 -0.73782304643631
Ni 9.064949564592338 0.21813447114278248 5.738265877046886 -0.15977246420736355 0.5113949898829258 0.9634646025326569
Ni 2.5084154973040875 4.448329230325824 10.115760920031509 -0.2832059847743768 -0.08202847525766518 -0.5260711038378617
P 7.561700774694511 3.556762950330844 10.587272086458592 -0.27904234031499037 -0.5559869175606876 -1.4882110740218242
P 7.463200192334152 1.7532196929252382 0.3303692508031338 1.4097443479734881 -1.015191598593303 1.4893611284658672
P 8.683567448784148 1.2174712690106946 7.758276331037568 0.004315082435586117 0.5623948779695604 0.24753321396311567
P 4.354695387240456 1.6214753953271588 9.083093434779137 1.6644550535216496 0.554980073562728 0.5171221221746901
P 4.211913028891305 3.34244137511054 1.7069384827970444 -2.0165002685569275 -0.13002145819717606 -1.1744359582113386
P 4.508774872309689 2.3979608709450826 5.413466544577487 -1.4832398460594778 0.2943388614627447 -1.6707455145160515
P 3.4669318255763137 0.11080251494596247 3.2414907688718206 1.7139040521813966 -0.5506768182016838 -0.9978628775068685
P 4.139846427726094 0.203681365778785 13.282826662184515 0.4381404041631486 -0.029904757979232366 -0.9423003097502158
Ni 3.8271167937057915 4.251328065605106 4.391795484474024 -0.7576020288354501 0.45830556625711394 0.1878828492903345
Ni 8.921612064881021 3.779531926612111 0.4178595294805296 0.31328197822415077 0.5401604920513923 -1.5250637240737992
Ni 2.7094876986806917 2.1395333145006727 10.335164814422445 0.1925792263247393 0.3204661546774158 2.0294791973150987
Ni 0.8642227922014836 4.367648685691001 3.4516589614675177 -0.16272666173968103 -0.7402969618980992 2.329520251368943
Ni 1.1014189672498467 7.542011761049682 0.3924072232608122 -0.9810244657932911 0.499042896075476 -0.822168599862926
Ni 2.3139402257812254 1.852034855390825 6.035832749995222 0.7140349428777768 0.7343338023361289 -0.48723819013106406
Ni 2.154679421331774 6.635068065322698 8.893198079494146 -0.7430105041745203 0.6720647690935782 0.08736377142764955
Ni 1.9846026126761174 9.145667118651307 4.554702642437304 -2.2729117588462793 -0.338929503588926 0.8186603295993513
Ni 8.72219603523488 9.148350301901777 1.024559645657934 -0.18042022236470218 0.3561654078512382 -0.0978800975779411
Ni 3.14886358212318 7.713513432534899 12.251255581122422 2.3575355056349463 1.1637458254873443 1.0029688312748661
Ni 8.77484194108031 6.334856869019244 4.761132883194415 -0.32740247678593287 0.7728916080046688 -2.856064438188481
Ni 4.9073386132769246 4.339965636430979 13.141667167084096 -0.6791599853774626 0.3971462211389741 -3.465904139903566
Ni 1.0710249776712464 7.5744042595320815 6.248735939035192 1.6863135441576378 -0.013172018605583766 0.14157676713494327
Ni 2.71958201911608 6.139252810059977 2.6821479118296088 -0.36100113867698475 0.05009820220797179 1.4208139755240885
Ni 6.51574042952507 2.7908251605940784 12.292192630404163 -0.06543046168966796 -0.2479165654444634 -1.2620079889950524
Ni 3.942058812742307 3.4246578108473567 7.502188695434689 -2.537178740624308 -0.9179820447198254 2.404856916428729
Ni 6.833577364077302 5.476488042481804 11.220999259853059 -1.1876416582683353 0.24958392584455724 0.33213536348522804
Ni 0.26360147393979927 4.744330604632851 8.898330361387373 1.2964833970641025 -1.9562192122786826 0.18020759213326382
Ni 6.828951186059249 9.02543275196214 7.7999174846136565 -1.6602530996251599 0.8250690613391727 0.8411363992146804
Ni 2.699800481910891 2.1012100557991316 3.237699153368225 0.14525061644210469 1.072372161569353 0.9746435019676117
Ni 7.805370823261336 7.562311430192894 6.569566936000705 0.2543378955897749 -1.208797466410344 -2.61988084491023
Ni 5.526987401726856 2.877769550265344 3.1807286963115207 1.3284332104978216 0.11576957626385223 2.6050481507727716
Ni 5.161963451390497 7.005273335039275 13.104860369536874 0.8757460188687498 0.3811647581090532 0.15787601851559907
Ni 2.9755577012109233 8.452092005472906 1.3571411347893 0.9050650795478412 -0.13772319771680797 0.2900150372764102
P 4.8639635681796705 5.980565651684764 3.5034018373638234 1.004071834531058 0.06223766578398313 1.8628670844780821
P 2.1566779302355723 4.688594411871364 7.683309116255039 0.2730370146611749 0.11752435417142985 0.5972976033840165
P 5.642299515004816 7.202311509184138 7.097641455818906 -0.13023254576671767 -0.8654181545801806 -1.122870170318905
P 0.8073356063491041 8.083774216387694 2.6417400973131335 -0.7071500428324853 0.4140885054202675 -0.1686682240350966
P 2.8731618769593643 9.175163629694405 6.696345494114209 -2.477456642173327 -2.5841972754656917 -0.4811511033967197
P 7.789299480826624 3.859749853445129 4.4860187026388925 0.8349302704039686 -0.3263113006042832 1.1452603650886468
P 7.245769825485717 -0.052016745634974534 4.5851576975657435 0.5989893892641425 1.106834457012281 1.1164632383512965
P 8.125095238444933 5.916382057862313 7.8836050449602135 -0.9894250311521604 -0.39288641742135566 0.17976073440383233
Ni 1.8826323968022194 0.2425458873084383 12.40889537279435 -0.6291211756525165 2.7999120593666293 0.13145022022390265
Ni 6.39128698848344 2.133130684123689 8.315397697395511 -0.590046578248558 -0.09248078093924073 0.6532412086291717
Ni 2.0240454064580273 1.3238826157819221 1.1342037656281763 -0.5411683644906163 -0.2861444985774104 0.6319923265527244
Ni 5.69552831928052 3.671149828005193 6.435232903948121 3.0205901008101144 2.465780234276663 -1.709191991417708
Ni 5.236158094444011 0.6958363889936231 4.335786347209471 0.12737116505852258 -0.21881167765870702 -0.5026717510773149
Ni 9.14582440870392 0.9177208400378384 3.4420439130747993 0.5399126377066443 -0.7477732156704863 -0.31308271772915114
Ni 1.9949097373003368 3.866476316283377 1.5482152402332905 0.6957443720987051 -0.7959950267913516 0.5550003852777022
Ni 7.137258193894294 5.287591941648712 3.1222824884670577 -0.97892721694463 0.1564032906248145 -1.1627109564649267
Ni 0.4403899416640455 0.7490910998662282 9.847052145559779 -0.39506568446086154 -1.6613836136851774 -0.3492722802758307
Ni 7.017541959143149 5.687117927643701 0.2377716715938088 0.48364455924253474 -0.4164462070191666 0.8498714650948331
Ni 4.811354671758386 1.076622653073089 11.318404363258745 0.16636965780890703 0.8968820295164168 -0.5487243224610034
Ni 6.3590887894777985 3.331292286087035 1.0693965630088922 0.3903294553274568 0.8911312430755685 0.6987134820293579
Ni 4.804285871746803 1.1183970405760968 1.6920560681129717 -1.626352333112657 -0.02595297242033595 -0.985181425384458
Ni 6.755987106358536 -0.1485382490392111 12.739774428415073 -0.5676314437781514 0.7694900385222877 0.5655287956128519
Ni 0.1158320956871884 8.034884767092922 11.677139487197365 -0.14996062032326432 0.9157019904363972 1.0988303557608818
Ni 7.595444117158181 7.741029939386272 3.206675078343566 0.8699723496097662 -1.9311000486135514 -1.3918060183275127
Ni 5.168652904804599 7.890131656908082 2.500878528077078 -0.1617560702962956 0.19699663866614459 0.33974377196010525
Ni 0.09360886172407111 2.5419645402909996 5.431342096439239 -0.20735844151644287 0.6269311099797332 -0.6632764813779868
Ni 3.867642113143926 5.7481834774819855 6.569486440503192 -0.08742496368288814 0.39191094088196377 -0.6995488334464597
Ni 6.6160452213124685 5.927429370969421 5.466171665501547 -2.3164986422982947 -0.9254575271612642 -0.3437536644504467
Ni 4.370822243811385 5.602505131693534 8.86977018877513 -1.21217281064048 -0.9401027878782648 0.747128640107952
Ni 6.724381058139206 1.5501859920689804 6.116690014630335 2.1204828794881805 0.040023591580789136 -1.848304613282875
Ni 6.453129736228757 4.353464823887655 8.637203892687232 0.2623887909187094 1.776170514320786 1.764679225851735
Ni 4.777315253901561 5.504282120014259 1.3785917970234027 -0.05853424879046694 0.9109472493602311 2.265871049949414
P 4.218445192252794 5.78958777074355 11.200442375212043 0.27921743244027397 -0.42441302727472713 -0.2075222207878168
P 1.7058753870884962 6.008498514557761 4.716811322074668 1.0254215038514276 -0.06549011128300979 0.1458288575430779
P 1.477915839070975 2.515077193650082 13.062474401299879 -1.8721366827054662 -1.079871812380508 -1.1461944468671423
P 2.8302124402397717 6.388307729839814 0.6002817567951594 1.3479049460691883 -2.2312154075487576 -1.7295926665612469
P 7.368067467570935 8.027667929384762 10.986049556850261 -0.7409711051469885 -0.7826258045732973 -1.4540675953708957
P 1.9115367570590074 8.293784193695174 10.47165186972463 -0.22734516905101493 -0.3041211376604891 -0.6279137856079766
P 6.819939391280084 7.7942957530861205 0.998973180275693 0.19319526264218342 -0.49391868747503326 0.2637604744552554
P 8.9362400397741 6.206933794464075 13.019832142800686 0.009725454817880026 -0.620242642215964 0.24774404442234105
