# total energy = -340891.21157109697 ev
CRYSTAL
PRIMVEC
9.09740607991590 0.00000000000000 0.00000000000000
0.00000000000000 9.09740607991590 0.00000000000000
0.00000000000000 0.00000000000000 13.31497337785564
PRIMCOORD
 96 1
Ni 6.533274877091603 1.8983284324491694 11.365328450872681 -0.4108674273798085 0.428879547686513 0.5818640424377657
Ni 4.6549061535604395 0.25330180643423233 6.382532677989704 0.10980873069472703 0.2865201367492743 -1.8370061575509202
Ni 2.6860819214733374 1.891177871277997 4.584811549530202 0.918648988879863 -2.1051758168174644 1.0137366113143313
Ni 3.3421595550375174 4.315900413760731 4.8175968857949325 -0.40261984265903566 0.989863918461792 -0.1549732430465073
Ni 5.068310480202195 4.531527132436469 2.3548599223072864 -0.37774159136011715 -0.16358052509954407 0.5005181950694219
Ni 7.254908418797601 5.575327115306246 2.5778719152308076 0.4658232147903978 1.728964803169261 -0.8402524539478303
Ni 4.893094439290259 4.700120261729304 11.451036932941193 0.517547896858199 0.7341479115775679 0.6116564432088498
Ni 5.567066670594511 7.935467172096674 12.968757187631658 0.21438732333876626 0.05400602190281021 -0.755142254441048
Ni 2.019387615025241 6.58980615841179 0.39331270533573187 -0.5420291698290148 -0.35229358360065777 1.1481981075607322
Ni 2.9533364195974263 1.4815125785310912 0.20177227897143954 0.010443049710194918 0.47215044256000627 0.31269422404148084
Ni 0.2139355108872889 -0.04616296762198537 4.927405306283996 0.6384151993599327 0.10753638972078253 0.39200221504418936
Ni 8.766042151493245 2.2200763929337204 1.1179756832631045 -0.30313177716402634 1.1330854202890097 2.131519854028632
Ni 6.7349279800435236 0.8020254996670881 4.926287235077969 0.095034657709346 0.5170861267304321 -0.02808467405135808
Ni 0.7959902804801214 7.45180357837481 2.6388281748635354 -0.35835264531054417 0.22957971480848846 -0.5014797876517428
Ni 7.805337875668619 3.6741420973510364 3.9252678042532785 -0.28237140468822336 -0.007913598420121855 -0.15208229465195744
Ni 7.829891774652072 3.773895154910713 12.605392233338398 -0.8083131820370725 0.5136732443941411 -0.13886631018231568
Ni 7.8500698213157625 8.983024383673442 7.226236124086172 0.033357492414523196 0.11938326175703956 -0.3984063187983203
Ni 7.103964257280943 0.5633868923367945 0.5613090447903623 -1.2238965268353115 0.5014304224710461 -0.909279374739505
Ni 1.9084265531870848 6.337735231018854 9.243307539525942 0.7185644553170141 0.31497222144238013 0.07612393684777212
Ni 0.34155210375875616 4.711373753038134 1.1611892718371328 -0.1886660073132622 0.3111063107290707 1.7664712847551514
Ni 6.297961371679966 2.1690763345042128 7.236115907078402 0.600237916959263 -0.4794022390264131 -1.2177348781092898
Ni 3.228751290966479 4.2215967024371 0.08541918455547945 0.5479450210928176 -0.6347974001016874 1.0853222939721179
Ni 5.807483820811528 5.575190654215193 4.498637280270897 -0.3308567538831205 0.19615331682924284 1.0291053804609178
Ni 5.280816788595856 2.9552195826539562 9.213974773133813 0.8446194726672743 0.04874863015861282 1.0467302926315327
P 0.250379719604486 5.728754868680068 12.634245566430625 -0.5369712956901334 -0.7986427488268439 -0.5390893704744006
P 3.98943089952575 6.244404942144733 12.963817296135542 0.8758699460411238 0.030098362047277193 -1.1996173425729726
P 2.3872776190978158 8.465518439370456 1.4834475968022216 0.31214400796496566 0.8353876696563612 -0.3251036534494272
P 6.374324998233175 7.856729122559145 5.877734900226172 0.126758214064872 0.1548572862939333 1.3524138896831353
P 4.8351257678109825 1.0681446415136169 12.517898840198914 0.1369004447051965 -0.9772660271921233 0.007094959173568427
P 4.055059586916129 6.136655264649356 7.918455022745411 -1.1999644414997463 0.8705472482766297 1.516041465970531
P 4.582527190865976 1.1605469949685772 3.9863568860146312 1.8900102205517773 0.0700327363483697 -0.03127489885388163
P 0.13852347300902282 5.637162184365355 3.541783026695177 0.281224949788606 -1.7354933483163983 -0.049324814377056984
Ni 1.3253556033362115 0.8672284284533824 2.721687349350862 -0.11118838465107302 0.7664090856041188 -0.6122853350421004
Ni 1.6164362079581385 6.58985164544214 4.868619687739616 0.4727482240450052 0.09528868270168106 -0.6352260029986737
Ni 6.439007555392253 5.807720353369352 9.366218044237296 -0.6698399935281174 -0.2756058038296157 0.28926093271920506
Ni 8.74335322075418 2.5239752427085507 10.282541534289088 -0.17884002236177585 -0.6050057706615516 0.5987217374250526
Ni 2.207267245186887 5.215879504066812 6.841513189561916 -0.13001785865275028 -0.5102894155235728 0.9514033004927487
Ni 0.6190148012342097 0.09351951492038019 9.100531029179102 -0.3096639218555893 -0.19685497088195772 0.6372833997483347
Ni 1.4563400559348647 0.7571325299325018 11.3980299867326 -0.08629007874749656 1.2357729665579233 -0.9817657148346899
Ni 4.211434899856693 7.254680983645846 1.710774489424836 0.33081690178412054 -1.3524622264225674 -0.09678815006534298
Ni 5.662907843544004 7.899232203719091 8.230929997222614 -0.7601157963962394 -0.05741119092961726 -1.2155417271127131
Ni 5.31334911270287 3.179679882623853 4.858819961920803 0.6409004276756317 -1.4482137076932802 -0.15330613975672952
Ni 0.5765562973640073 7.363285817311822 7.174600156972357 0.9006144999756555 1.1704024115719134 -0.7821398660758143
Ni 5.375784610562612 4.640941635242692 7.4470110648570325 -0.11082585910533171 -0.8677151781444734 -0.7767174095086623
Ni 8.556401526011694 7.106393264701684 9.503921840959395 -0.28678855991931257 0.8967084800530298 -0.02546317726811099
Ni 4.706206426390264 9.097051271357254 10.386251963489299 -0.8758887150942012 0.5836872116894335 0.49947586984783654
Ni 7.907874739485775 7.13149300804935 4.501699467154124 0.15482437617346884 0.2110952828510558 0.09448726984630823
Ni 7.464148758412064 6.275054103195218 7.207221635658859 -1.296454086488064 0.8411387132075256 -0.8425067971996457
Ni 2.5960539910026976 5.077962828042671 2.5939834213811213 -0.7840558521516046 0.3739574417273366 -1.1932163241426355
Ni 2.4016333258765816 5.288585973379802 11.524322907020856 -0.7094051574152492 0.08522332804587904 -0.6518155319262388
Ni 1.2908036550816149 3.3138029403167226 3.507044581616141 -1.814134652269385 0.9308252192310807 -0.32136629789418203
Ni 3.771602608581025 2.5341916297253784 2.3149541505803803 -0.9486033691501082 0.8914004375765552 0.6376713792153728
Ni 1.0582921507395968 3.3733090734218614 8.336624570686734 -0.12712819580978105 0.29553596709463936 -0.4455073860511811
Ni 3.781291346045781 2.692213573164648 7.13138020021408 -1.0319299943939066 0.7786351953566655 -0.8708583517591454
Ni 3.8270785907970675 6.976027435715805 5.869666410782517 0.9321909892303558 0.030134871712167454 -0.07689758178900305
Ni 1.0058092151206477 7.39829263586993 11.62241386849151 -0.39038190583194704 0.9141529007817223 -1.2330370556839991
P 0.2381528058461453 5.5116088831906085 8.14018883011607 0.1534084696625487 -0.5307358563033827 -0.04820329917810408
P 8.369386149426717 1.8223832865751899 8.231170168742866 0.33951314400653787 -0.4623056885554425 -0.6498260123000356
P 1.7247681194420086 3.3513115455441325 10.475488419631834 1.1052779111584383 -0.16884974391828342 0.052929243898863686
P 3.7927813699124364 6.352827827689306 3.745927909169723 0.851031032620573 -0.4265490997811235 0.3189065234997798
P 6.7621019319751925 4.097917466912813 10.62628065446712 1.0208793930067 -0.656230887385115 -0.29828576192563466
P 6.556846256219476 7.786970212812897 10.212012074248696 -0.07073824705582656 -0.015787601851559908 1.4798506178722708
P 2.1965959878665497 8.522213473999905 5.7946501100683045 -0.5428197840511103 0.8493698428680663 0.8846425500274312
P 7.051999873807995 3.7678180876558236 1.4186040155556998 -0.3294079372517359 -0.031174368720275344 0.015489610995166873
Ni 5.383772133092242 3.0837295408015164 -0.03260601309618228 0.03349478932333586 -0.7997316110156485 0.9841411570454018
Ni 1.565445246934701 1.1824717435977448 7.292104982996803 -0.18003275711829642 0.14854419959171192 -2.4110157369412732
Ni 6.780023821933475 0.7372073911575631 9.371264375384433 0.7147401964749175 0.11462646379834453 -0.7322236979716615
Ni 2.7824962310052532 1.6927543474809958 9.319123502233722 -0.4551593073186484 -0.5858045151427523 0.1866878005409688
Ni 6.240775077122727 2.066776003244881 2.547740396585718 1.5553497766518503 0.9069209018096573 0.518927807924861
Ni 4.246305257323747 6.64661036191408 10.340727633773442 -0.44583700147645794 1.0494991136259215 -0.5550435798108119
Ni 8.391410969522656 7.541876995875801 0.3109875485847254 -0.2027386833562444 -0.9872629905038353 0.778020444590802
Ni 7.656567994202736 4.062010005153757 8.193488712800123 0.5844649703957224 -1.2447211768901467 0.31429267887685225
Ni 3.1229302635579823 8.424707475739567 12.455105814280612 0.8838218538983488 -0.3057825845233121 -0.21894228969930035
Ni 0.06623457463465436 4.959942179094044 10.42012524525106 0.10072193790211041 -0.685530921900813 0.1753248101196658
Ni 8.566135750506803 2.356965062071929 5.992536886907164 0.2938781197762423 0.29503768730198215 0.042022110068056666
Ni 3.8790793638942964 2.706278162949168 11.18207485169773 -0.7997809761963451 -1.2008530147522867 1.1463230020252064
Ni 1.014460848293402 3.2025325666721796 12.587376640097592 1.1488956478483892 -0.09695912842556849 -0.9309560883819902
Ni 3.0407806867441307 8.242868523208529 7.9055257892384505 -0.15737105385472253 0.0876368225833781 0.5328634441693468
Ni 5.5004281711303395 7.994008980158371 3.927704089598876 -0.2084717291852797 -0.08630859069025781 -1.0757516195645473
Ni 3.076942875873152 8.584066737871154 3.6839600179819896 -0.09270960912059517 -0.6544228876420988 0.7125316188593729
Ni 3.423981625232842 4.351098277846312 9.348908409707539 -0.3356189511584543 0.6624524428147947 -0.5500816078198462
Ni 7.385347027032043 6.1162588802399815 11.733540503120143 -0.5350241992660915 0.8195884978405756 -0.6430308437550732
Ni 0.8029734493796024 0.35624441456211947 0.27099535150015264 0.19210845733590784 -1.3465108939351391 0.59044227102508
Ni 4.758889504942758 0.48926122767685387 1.8872241385998907 -0.22777454327894966 -1.404519095018807 -1.1829722778171239
Ni 5.975958683825449 5.449873885598271 0.30988585270962493 0.05885152292056961 0.9839141286362603 0.22248501274523616
Ni 8.020919107314006 8.876075277912241 11.610190593695597 -0.30678222943242006 -1.4195361372529294 -1.3019377353104544
Ni 8.98339737732232 5.092127489293962 5.817831210475766 0.2802127064740077 -1.1561109346499059 -0.5966579129174885
Ni 7.904872595482611 9.071787774700324 2.6739532597005544 0.1524000830026924 -0.7156588516344449 0.3306842328609982
P 8.67013729670126 1.6831383892648009 3.6948514325292257 -0.8540433370843357 0.3319096206276671 0.7903059468263743
P 1.8640403089706081 3.066262521146744 1.378366188507232 0.049888143079694726 -0.31640252613100345 0.12721432776568414
P 4.598474943707027 1.0823002053588386 8.324494999173345 1.04964001007916 -0.7471836617156035 0.6310361332870422
P 8.498751263744875 1.608394100992087 12.404841736002185 0.030230516749767292 0.5897357318763585 -0.6084459066913521
P 6.555790957115334 7.625136456230216 1.642494817905602 -0.36657709010286543 -0.20335626233558524 -0.049372894006173035
P 1.6459481932498476 3.194190245305812 5.847896318056542 -0.1533295367954972 0.9704245787902578 1.860635624044402
P 6.901283147443091 4.194604698626835 5.978236674305426 0.5622748074519285 -0.29773066075311305 0.02516930017677601
P 2.487785761361319 8.307232671155152 10.110725194025582 -0.07936944036826331 0.5559046422595266 0.8441803282473267
