# total energy = -340870.5295172926 ev
CRYSTAL
PRIMVEC
9.23088683867079 0.00000000000000 0.00000000000000
0.00000000000000 9.23088683867079 0.00000000000000
0.00000000000000 0.00000000000000 13.51033596073716
PRIMCOORD
 96 1
Ni 4.62415735091923 3.6198553302037206 7.022213429007078 0.5633929802167716 -0.33543408884115783 0.07401563225551769
Ni 6.716494766400421 7.420571425236565 10.31528982839827 0.5661420037168186 1.3256538479804718 -0.45234343513640807
Ni 0.10742629116786055 7.202537879313843 9.631613429362686 -2.5740527308325216 -0.9940797563153524 -0.9678735302336298
Ni 4.662539378182004 6.394198354211943 9.21846662941081 -0.32236285747949645 -0.673920077134762 0.396528127939001
Ni 2.9662439294352954 3.217545591340469 10.840153435696873 -0.15642540211200157 1.5994462527504325 -0.4709258261242857
Ni 0.5215017183305664 2.033278201814231 12.691203778348742 0.9172101995508075 0.3440403424529301 -1.6545722471902988
Ni 4.0809104325831544 7.436485474058359 2.6991759128969295 0.3259446612934838 -0.42385484077841196 0.048336482321858686
Ni 2.7889185942458163 2.045998363807521 3.210096265702889 0.3166969174429707 0.7626123375658479 0.04278907014106824
Ni 6.554741937221595 1.7632101470699002 9.220047880317523 -0.4386201720130446 0.6891806028382582 -0.07171938002217325
Ni 4.81893829302403 2.819251288229816 2.1217580978505763 0.5662834143906892 0.17982115532812254 -0.9006594942809778
Ni 0.9115140698153995 2.1825416411694563 9.897090964107552 -0.19776951227642714 -0.9804385113828341 -0.21196071617514464
Ni 3.2221425729606854 9.104857490272627 4.292611590169594 -0.1750435314338211 -1.0985362215592307 0.745784981595864
Ni 2.411993794048419 5.5503753002985725 13.40214544768881 1.1120201149782785 -1.952304707715625 -0.21496170778499754
Ni 3.9092436309944634 1.816296976985293 5.584226808325998 0.033458279658445604 -0.37126061162146384 -0.16987895651374615
Ni 5.110634315511669 3.872670857542058 9.634855316802485 0.15350025804540662 -0.4605650517152519 -0.23890741996731757
Ni 1.8896732960597944 6.463254618269856 8.38552771410868 2.201846981688969 -1.3927372718925306 -0.8337064252991965
Ni 5.732509927504382 5.340446472975348 4.841496734155527 1.0922275057323836 -1.6328507963528072 -0.8406939123606231
Ni 8.0697150767998 4.17054234329059 4.8774334995082675 -1.1164670950060385 -1.019166009860019 -0.1755117293194913
Ni 7.20877795878225 5.225983476809312 10.124862172502496 1.3132505892201125 -1.2733133867055424 -1.2185622591065917
Ni 5.570332477533328 8.73541893925996 1.4657097429702293 -1.2763532019731307 1.0748535332303102 -0.36952151744317
Ni 0.649131651410411 4.729934082618151 9.82055491248566 0.6082615585946879 -0.9082411632829778 -1.1969379959685966
Ni 0.2347986825063315 2.72377622618584 3.12987155172068 0.04803874857578178 0.7064008233712866 0.6704398318956454
Ni 5.744270077271763 8.624260600563879 12.463676265364988 0.07736860788815063 0.04837222065580057 0.6458582859015393
Ni 0.13806083514981393 7.9251409279326674 7.339408853156737 -0.402306682293991 -0.2735707756774579 -0.3745907044359613
P 2.251893293604571 1.3678974203916368 11.544568868078123 0.3828573153201277 -1.6325533197170465 0.49569866219359143
P 8.249745061818041 1.098207832005597 0.1943424749823893 -1.2330180295206057 -0.5247127900377544 1.1402551985645717
P 2.3452083281402523 7.58439197305581 0.7789963821815294 -0.815536439258389 -1.9824364941039985 1.8024528450560828
P 2.1004421340806885 7.109112074136711 10.390015703121115 0.9039520489893206 -0.2817977915729405 0.8035823522203063
P 8.091804588882487 7.668106885332405 12.367091650729146 0.4258330475507054 -0.5957073760787611 -2.2412460523118822
P 6.334649903545242 3.0460264839403797 3.7323115315821354 0.16201343772274032 -0.08477827008866044 0.1694279850192566
P 1.2369480604229772 4.173090068043963 12.160099168493051 0.09991461150946665 -1.3111628534531483 -0.05670902265627008
P 5.794218405679378 0.06643930765363228 10.36712956550866 0.009405352474299931 0.7448897234751042 -0.014871260684877612
Ni 5.490051455141715 8.296785660887567 7.7828449619247095 0.6380215634659399 0.5811724156873798 1.0905208074539219
Ni 7.261274011943237 7.711787441611249 0.7086145627809203 0.8926021711941402 -2.00468193576576 -0.4673514785094662
Ni 0.23603562133586772 5.467841941530788 7.19502393746875 -1.4592108301347322 -0.2956562947225876 -0.6093537632176022
Ni 4.533362348476559 4.408099214769051 -0.025155089584843804 1.5632168381047529 -0.34396552335093666 1.1106402039116163
Ni 3.9012496830364163 1.0917462112542886 10.18345614947536 -0.5286044117826767 -0.005160975375649177 -1.7424260708804897
Ni 8.424716520876686 4.5746890286245705 13.319826245494498 -1.5165867969510398 -1.654288911621925 -0.6051926898613771
Ni 7.126327677995553 7.301197597299535 5.781127162037227 -1.3719200780368632 -0.6552402413370716 1.3794516105272179
Ni 7.818330336913538 1.056364222197481 4.131163380254759 0.20835988619776374 -0.8043410847632019 1.6995146162289438
Ni 2.4575389894583566 4.51957140361591 6.702774899368035 -0.058377925718260754 1.2798216201377055 -1.2651987280182082
Ni 6.474405529509256 2.744739570080442 -0.012811547772487147 1.7645822952625547 1.4114615877749113 0.555279864191334
Ni 9.123337725621369 8.21456615227056 4.949579341373985 0.500040741212371 1.5433072436650195 -0.6323687360555367
Ni 1.47327722395869 2.4057444836932254 5.212584844637135 -0.25807473692438776 -0.55092878631149 0.8630689376217136
Ni 4.794476443036935 5.2287435119588 2.4953053165723964 0.13538066562656043 -0.4255828792131122 -0.5191931457711059
Ni 8.458787724009657 8.74474213491542 2.2443913519123018 -0.6636397782546765 0.6738611988723685 0.7879410461386237
Ni 7.552766954921548 1.8525005149661955 2.099817203045169 -1.335570078652919 0.3550976287083562 -1.4663839508444036
Ni 7.580542693265388 0.32115916693624774 6.637560530391116 0.4330272513062994 -0.12154375974346811 0.154826690166314
Ni 8.233157158260754 0.09293564508871195 8.923765953273813 0.5791718403175832 -0.18025541465206377 0.9787464683923918
Ni 7.808877908843053 0.4750242033550834 11.494445152821545 -0.2381600002783318 0.049651601588856425 0.21007609755792206
Ni 0.5379760819803666 8.573269181949268 13.395673672962037 -0.09204343629150599 0.6858420253833285 -0.007970419799986273
Ni 1.202867626403219 7.882217304370403 2.953805309489027 1.0637489386767165 0.41678302153329516 -0.866890625360649
Ni 3.0509096230510115 9.0038438961561 13.019586114196272 0.7328356205240475 2.136505223058365 -2.7939607268792015
Ni 1.0281915557217762 3.4509577946513055 1.0011145955077574 -1.2389801606413113 1.5171310994902838 -0.026977557030108377
Ni 1.083429182258676 1.1048540704926573 1.4700325672528542 -0.36948449355764756 -0.12810650056265033 0.7742486362531956
Ni 1.1815535088106885 4.572519770229489 4.609402701477958 -0.035196088285158744 1.6533147206341139 -0.007563414169554716
P 4.954826177424047 1.3074443428197522 0.47801039523086664 -0.978580889348805 -0.6776666886613878 -0.27125909682514576
P 7.235501376032303 6.639361476403373 8.261245823666691 -0.02114629506031197 0.207428632632746 -0.30073602323834014
P 3.6854130881691387 7.8980298134375335 6.320972498592079 -0.1791873783988656 1.9436377760692463 -0.3321816433421311
P 6.0555263488622915 4.19991502504868 11.587490645463028 -0.9465022636467054 -2.0713295576919815 0.5585801322091606
P 6.2452672267810705 8.280705456103597 3.4542956833136955 1.340328419273511 -1.5566206729444738 0.48415723721289516
P 8.32756143743737 3.2698662576524926 9.223236228613954 -0.06629255257964711 0.21487711849099123 -2.1263521937847636
P 6.514855275412447 5.111871254341206 0.9114882233323943 -0.6999445262229816 0.06785655463265733 0.01691940146315796
P 8.729668096791295 6.175075563648286 5.227526881080197 2.0321991673494226 -1.4004850341587496 -0.37453773971083887
Ni 1.726978916428635 9.546398497983109 6.357707735651947 0.7486386489945752 -0.9330350823982061 -1.5071945571028622
Ni 7.398177293889888 6.184795687435612 2.6179385706341223 -1.0670121828090207 1.0040245262328904 1.3681202446747986
Ni 6.472799355208217 2.2037172954601725 5.854731484015382 -1.2681007321563516 1.5281667884791552 -0.6559917747911154
Ni 4.324688921756446 6.791920342341767 -0.017844227249077672 0.8637477088562932 1.6259265584291482 0.45784585301187597
Ni 3.0036013282646463 2.692345056674118 13.608691155004387 0.6685053338770939 -2.472428592831116 -1.8225293040909838
Ni 0.3854790629834508 6.012704265054691 11.656204443621123 -0.509555879791658 2.2932389004394054 0.5744698068562236
Ni 7.955455160143091 2.9258680306264053 11.21774009047694 -0.6884555517467756 0.4359169141492686 1.1886593008995723
Ni 1.9808836884079069 6.878192210258521 5.66165456361157 -2.9305187006433147 0.33834354917846887 0.8149954791532545
Ni 2.989791921630421 8.508311431625042 8.455821840084807 0.4686396011932703 0.34875188899598647 0.1090361141947606
Ni 5.4973346248171175 8.887553184406123 5.498706334593752 -0.9484601587040246 1.0703448467266792 -0.5431404006153226
Ni 6.655755531338121 4.881265240613794 6.9024842119287255 1.140425919814481 0.45350505954467707 1.164849085853852
Ni 0.4563695042460559 6.267338277090183 0.5044190392414643 -1.2502734741669437 1.9258529412819991 2.5115965212798295
Ni 4.578113687622764 6.152746048509121 6.922101692529699 0.17944037494993612 -1.1366075745096555 -0.2592685001221728
Ni 6.530861633102117 6.10591775983571 12.366131638503235 -0.15571320653632537 0.193802300098563 1.2115758004864297
Ni 4.118157060771054 5.309679927312333 11.463519835905783 -0.2324650067760835 1.1288870659369463 -0.9779720521202125
Ni 2.8362084272586072 1.8542266907954736 8.008319525686902 0.9910641094174801 0.7548154672292484 0.09511950411366844
Ni 3.24198897955399 0.04334085964506207 1.7328220677651753 0.043277322631396435 1.9933698531870507 1.0563552173158064
Ni 0.815364229947251 3.1886990701292706 7.497169323799933 -1.939813774337466 -1.1312131429669614 0.7154673044489291
Ni 3.7084718433645225 6.200811276012068 4.547362834467288 0.162992513806558 -1.2000580296548171 0.11895620152194998
Ni 5.222226505886765 1.8194170167194963 11.849821370902006 -0.06599533305420248 0.6244772491226018 -0.3591268044724073
Ni 5.28069494279932 0.8973381969757075 3.420709101737073 -0.13590645622304337 1.6796726418023524 0.24674619928544606
Ni 4.001007876549831 8.039326997495076 10.90643489518644 -0.3940662966620697 -1.1026471584038107 -0.0426376321648685
Ni 0.843528588624847 8.887977805198352 10.956504148210971 0.9370454891091797 1.381077576166415 0.2618324041946071
Ni 2.086337339069261 5.839994373259005 2.8409807957277877 0.54653425678822 -1.2724626086694732 -1.485901452052041
P 1.1379652613997193 0.5325132431794747 8.326730657626488 -1.1441437349857004 -0.11746650435030093 1.512326221902473
P 3.2149609430399457 4.287248444946008 8.614649401240648 0.08731903423264316 0.34661221694516436 1.7428281914149146
P 2.905624695901235 3.9316746858882916 1.7940911557290822 1.3065541510365433 1.4154390843654203 1.1786890770607377
P 8.910288858563941 4.833901560506703 2.124716597065997 1.6510441794323825 -0.8182448393284876 0.45173768323160907
P 1.1753965073233703 0.6117022516641173 3.8850596306996734 -0.6945899467792876 0.2235085689137441 -0.3486511017520641
P 5.166167330425771 1.4665663692641167 7.500195208488903 -0.22960002652346265 -0.3982211993707077 -0.1757256451025103
P 3.389618551947813 3.8476736161212814 4.790684394744595 0.10344525037054443 0.2506475912223812 0.32465062507240866
P 8.616322037926556 2.1527443386191365 5.972541599730595 0.7583219377206102 0.43225926279202337 0.46519380873651495
