# total energy = -340886.03715937707 ev
CRYSTAL
PRIMVEC
9.15742725780127 0.00000000000000 0.00000000000000
0.00000000000000 9.15742725780127 0.00000000000000
0.00000000000000 0.00000000000000 13.40282043872746
PRIMCOORD
 96 1
Ni 6.576644627731729 2.4955455032901956 11.879080842209872 -1.133303706947403 -0.2379116317129516 0.6162592320881839
Ni 4.943637217452231 0.5878464042878541 6.035183340786767 -0.5627121520996631 -0.8711915667288479 0.18624762767975667
Ni 3.030201905885266 1.980760718296073 4.948093221657125 -0.5389651861917105 -0.4962779317358291 0.35321275298081745
Ni 3.396929403611133 4.747942992506498 4.904373831449548 1.0604813236690382 -0.3228063727748182 0.9296324844745603
Ni 3.9250016158582395 3.3067012707898735 2.5560788460678645 0.4503310326920696 -1.4600829483270403 2.5154094672680163
Ni 5.634381971203128 4.933756353216553 3.302870718880899 -0.3618897119295251 -0.18677187561434286 -1.3032412846132264
Ni 5.3908218728932695 3.058644875594271 0.7766093723846673 0.445423310977807 1.139422161140315 -0.7350146304532374
Ni 5.878573932008131 8.291785004952652 12.468965689851629 -1.8740575538772626 0.45154485049451265 0.9416598479527397
Ni 2.586368868896737 5.552890024184312 11.707551236861088 -0.8227676668995055 -0.15975626625744743 0.20122738891804054
Ni 0.7085422140308237 7.855662521890389 11.52776621065182 -0.1463945002385608 -0.264087518777371 -0.12951597931566727
Ni 0.6546937933032433 0.6593558396261199 5.026017434935236 -0.0211825476148861 0.5577023575898976 0.31259832189356485
Ni 9.13059620339927 2.6788222565922037 1.6172786128641115 0.4637110535434014 0.6448295875267087 -0.054972499581137584
Ni 1.9271531379108449 1.636001889060838 2.8777334858066985 -0.22184995026439858 -1.6415233844261408 -1.301858802443403
Ni 1.9765025145244415 6.867988182558518 0.6620298084461551 -0.8813841909911337 -0.48627274089400124 -0.5881817571256773
Ni 7.891880147517922 4.233982375984303 4.377991164569895 -0.1626032487879393 -0.21694402832234896 -0.9112156725302692
Ni 7.731432860888339 4.373587357701557 13.028225352819264 -0.010445877923672332 0.20918983829822682 -0.13510890002241246
Ni 8.134643549638248 0.25219188943919135 7.227631494396785 0.35289290774755355 0.5452129668736353 0.9275989989842993
Ni 6.78850171215473 1.1964453706988725 0.6653200721346437 0.7282811683841458 -1.1650933406541741 -2.286867192585107
Ni 2.0197622018732315 6.841166077510972 9.43856140481937 -0.37479562135791583 -0.32960951173958075 -0.3310308175671396
Ni 0.17565136345117435 5.446453244748456 1.6399560662406025 0.339247549049977 -1.7672688409557822 -0.46350279418733725
Ni 6.461343458508905 2.225529597031427 7.418662757276896 0.003298211135297546 0.7259918581293368 -1.123304429642846
Ni 3.8637201112566086 4.840204074225181 0.8518257343611189 0.4842562246846047 2.318632915032478 -1.2354726617086853
Ni 6.318505904896198 6.1548626760810246 5.203229224026596 -0.8222238785808937 -0.026832546811811856 -2.112275403976723
Ni 5.266225914792583 3.2393575492058346 9.982433842416095 0.43978796706890066 0.02375930720312682 -0.509356105076026
P 0.25752517519531654 6.057125452737749 12.632748111564284 0.8777267967442045 -1.397993120974831 -0.022773289140773683
P 4.15339701428461 6.652999257942188 12.878408923734815 -0.5365938577460565 0.28745241875555655 0.5239872247256395
P 2.360345244184028 8.913382023908733 1.4577846144337259 -0.5579916066955423 1.003972332838716 1.2357171736193235
P 6.9121910849362935 8.116978872056578 5.964228845552933 -0.9074567197084693 0.6854748718518969 -0.7337236795559557
P 4.74378552043699 1.3809309044263758 12.921980879360191 -0.31571629869725626 0.11296270294267644 -0.6179906129569938
P 4.076163271037426 6.443248381836338 8.47077058774415 0.521123015803967 -0.6108493739265222 0.008222902130424549
P 4.874168972696109 1.4846754001872655 4.000299478939137 1.0177652728577504 -0.4751318937858333 -1.393679838311458
P 0.22518205712859518 5.809417039785849 3.7722639674121754 1.8173428747940379 0.3679035222237728 0.8564344630243315
Ni 0.7444677177221951 8.404769345026608 3.0526934634841996 2.043585040588861 -1.091862666193797 -1.0108592897665365
Ni 1.8778220761521802 6.912383390913077 5.105321672532454 1.5512295838358898 -1.8885071536436895 -1.3442382958508783
Ni 6.360016523599007 5.9427217114065805 9.387590247801565 -0.7368866506649697 0.8212653713223662 0.7714944705468261
Ni 8.596187051345778 2.2957029637024213 10.783386404233296 1.160528346991311 1.133171809355229 -0.9235045171999513
Ni 2.5159116219743 5.544355301786118 7.178818743032689 -0.5403841780264242 -0.04267722715355231 -0.026569780068728437
Ni 0.4798208111866682 0.25613690919149 9.435746411616359 0.7206473059879718 0.09426306965064411 0.5051289543685558
Ni 1.4986679493551214 1.1998794059985753 11.836606862137655 -0.7928600807067958 0.5229176458105447 -2.4242420058235608
Ni 4.081483736395099 7.68452851740813 1.4666032170833627 1.6680468846379657 -0.8829088551657761 0.4880128635135595
Ni 5.953582420381108 8.439952181350497 8.011133662435016 0.89846042974713 -0.8185114627263129 0.3150025604596833
Ni 7.159899497888193 1.1334239548787257 5.188044377802682 0.7009266876305928 -0.295433122968188 -1.2639656269420554
Ni 0.8253946514663659 7.996210718636628 7.075308677414926 0.7361353743212419 -0.6543771220058279 0.5060314115781672
Ni 5.308011256319369 4.820524762601018 7.6605964964688145 -0.4688763997944248 -0.6121673214069974 -0.7514689193545186
Ni 8.250649840775944 7.453660613565973 9.24133880522958 0.4139864326247644 0.492390680866281 0.2734856721628193
Ni 4.488613804100404 0.6282599631802506 10.796964121936947 0.10087183321641338 0.2581485275851167 -0.394210792659734
Ni 8.913043199092494 7.600417546134075 4.982820018093213 -2.789627646721486 -0.1499073984878257 0.6572721841654359
Ni 7.278946054944559 6.251665841822781 7.157736513520753 1.940900065423109 0.009373985015732242 1.8078963846691574
Ni 2.4970198491122013 5.659345118475102 2.8875575739920887 -0.1872724693998452 0.8745288586321971 -0.7666008898999508
Ni 3.385729869820369 4.386819840389745 9.252677531917826 0.024933015796253833 1.0715334677181418 0.2572198451232602
Ni 1.510142205969862 3.692100763118659 3.784782170758026 -1.471183686225892 0.9362173367809294 0.6026354706571622
Ni 0.423205931621647 0.23392465313026534 0.5054744284895684 0.3359285119790731 -0.3763017735897971 0.2021504149529422
Ni 1.2644392696329891 3.6884286347048434 8.306089822397094 0.3245256694587701 0.13162916900392815 -0.3404333418279621
Ni 5.729646689130618 3.162023074256526 5.0191154818542065 -1.7661617239345326 -0.09163051712380348 -0.6675583965827923
Ni 4.23079559122618 7.060184270212288 6.132273134008206 -0.12438791406048254 0.5729364009308326 0.09312664205335573
Ni 8.392837217038574 7.326848558018547 0.6501681926496081 -0.0216178353800918 1.1845031126393537 -0.1599347008168407
P 0.3212746064990003 6.152509217222295 8.014390959384627 0.2466703517421881 -1.8869457226938409 0.521970708516243
P 8.806166863138277 2.069899117248893 8.532168391674597 0.026179486608845236 -2.1715146492540147 0.13812043315522662
P 1.916008548684876 3.416507983533172 10.564130118417866 -0.0623785622372216 -0.5979380651814927 0.5739291038614052
P 4.277956342675432 6.603924604152567 3.922469587163925 0.1311972236728321 0.22351062579627315 -0.1354002060105862
P 7.035422586344564 4.464896066963789 10.750831749592113 0.399305433573822 -0.8837321223980199 0.3226449074962895
P 6.420107562630073 8.177857449849709 10.244110995224439 -0.04960352195974038 0.07077372827945232 0.7447963924303496
P 2.530563505919699 8.733163851380326 5.7810116155294535 0.5766225915331682 1.997364833279057 1.4881799636735726
P 7.125302736922119 4.631762710246951 1.7343114516207312 0.30111500384431367 -0.9077865922440624 0.5535019463553048
Ni 2.5509204671763377 1.6958182052679287 0.34616266286575353 1.252052163333921 0.6985790133340227 1.3541699531422935
Ni 1.5911854390428493 1.0460071522894898 7.352452725213132 -0.12591694911049928 0.7094079856287266 -1.627263789183333
Ni 6.7518536874363 1.351984276206747 9.46369121727122 0.17999213368834807 -1.6296762552795672 1.416036351629787
Ni 2.738830878776078 1.9197722513733502 9.04327189082744 1.5719354489246735 -0.6507130428906793 1.9150548222252308
Ni 6.864087118458056 2.2593571340903664 2.6365094472433848 -0.6663198961900009 1.879756404034253 2.3650140734001783
Ni 4.288670532810505 7.080147462087894 10.685787458044754 0.3425976964691326 0.8146537795431197 -0.5609817996721177
Ni 7.377150307088594 6.60631469272116 11.78849099100371 0.8267976139945051 -0.7281024767144363 -1.1256809002948225
Ni 8.141191110276349 4.023700369085432 8.594169670075047 -2.4573562718790263 1.8523317321643968 0.13275325530604234
Ni 2.8898826448256743 8.59531709573652 12.588693559511457 1.5599363675812683 -0.33074979599161103 0.19206834812659182
Ni 0.4191556014534908 4.934772827665264 10.504072046125678 -1.0240657611544817 0.8740876573297205 0.26616162769758034
Ni 8.865406261415018 2.6768076225497115 6.455629223770199 -0.19038478977658177 0.08543210162257545 -0.8605849948575954
Ni 3.633978570992755 3.2569489673677787 11.867501275179274 0.06935319378284184 -1.0714231673925225 0.43892047686228275
Ni 0.8105623661998893 3.4900054963742795 12.681440900628578 1.6327898612078848 0.9262923643577339 0.19715347595898303
Ni 3.5742263567779253 8.520766478736837 8.19032986605823 -1.8272380224205627 0.3683727485507075 0.16042963817538822
Ni 5.848986283865892 8.577789779566837 3.6344694091049257 0.39209168943420214 -0.4582759985707591 0.25874990861454145
Ni 3.421233216105563 8.80480240644586 3.7416525188792513 -0.5646055124676341 -0.3558123953871936 -0.018769824408335415
Ni 3.9267781567866193 2.9581787388661644 6.996741612728711 -0.3869659381718626 -0.2284245181581227 0.4793297339172648
Ni 5.265557422587575 4.978673534936666 12.169372208620834 0.6676820666448502 -0.9294594492318057 -1.1248211233976888
Ni 8.018802092194939 0.21591840350411673 2.432236544247621 -0.4568670340383744 -0.1461921544197676 0.5487060676285581
Ni 4.715507384422371 0.9009287761758834 1.7967687699089803 -0.8080198191663697 -0.15360130239964515 0.33389374093723145
Ni 6.234248414782689 6.239752028689678 0.5983646254751572 -1.0187587471192712 0.13398558505124666 0.42718724758575466
Ni 7.86231997165808 0.09178489549045793 11.686816989592856 0.672138816864623 0.3718522224588757 -0.31507223735535417
Ni 0.3447478403222759 5.069341224276287 5.966212344342042 0.05945187550872987 0.3709574785587482 0.5050117120644012
Ni 7.6695927532112895 6.756340826894579 2.9665266497440554 -1.2508175195958717 0.07147152567742529 -0.5837144653829431
P 8.88277790131778 2.2910326756948254 3.870050640863768 -0.46753119862044 -1.2602827787738293 -0.6023305378222336
P 2.2387162925822857 3.728959408668803 1.43670238492179 -3.1690247714071553 -0.8143575884589395 -0.052529951577915984
P 4.7851038331630145 1.1323250635828208 8.298758385967915 -0.3565796125705214 2.02220888890593 0.45946307690032484
P 8.57478614335803 1.9017687489754413 13.013844528726855 -0.46013722014921404 0.10765903134157588 -1.0320876030176935
P 6.44086745069521 8.268140527235765 1.3283855856271891 -0.2583742704426776 0.25417694453187833 1.2428170178888982
P 1.840542188938606 3.3908946589111215 6.137084446398776 0.9627891737321871 0.4074208635921048 0.1879288720369215
P 6.937053500506142 4.076355577014209 6.387100531072076 1.713127064806056 1.8824288086600935 1.0462181288818047
P 2.4871847720138525 8.724949638943437 10.423816351814756 -0.4536606112859349 0.926022655636115 -0.2559651467805527
