# total energy = -340872.98083848134 ev
CRYSTAL
PRIMVEC
9.24723186887730 0.00000000000000 0.00000000000000
0.00000000000000 9.24723186887730 0.00000000000000
0.00000000000000 0.00000000000000 13.53425856462212
PRIMCOORD
 96 1
Ni 6.545717911164264 1.7985126487103469 4.977427124824028 1.5055354242328844 -0.16846562110598728 -0.06896212899201026
Ni 6.832104686612918 3.8048568369172546 13.021513802183955 1.193689664234628 0.05082402463040279 -0.7306105878482707
Ni 2.295967494860179 6.134345547825267 3.121244113663389 0.4248262035527458 0.7884745500445904 0.9674423562334822
Ni 1.166547565696579 5.587538224421011 7.226468616110046 -0.6272283295051778 -0.9983069070228228 0.26860057615637617
Ni 5.372290404849868 2.725334971696855 1.1250728053941972 0.24253653207947262 0.3416530731676761 0.31908110140443113
Ni 8.504901216103876 3.7536549132601933 10.591735161200038 1.2845496217409942 0.8206542201009286 1.528070115000291
Ni 6.494617707059349 0.8775096088297425 2.3981484838827836 -2.0446895865069497 -0.5650878514206913 0.10367870653758918
Ni 6.1234153195856695 6.8198613514274475 10.18500305888526 0.7393819062829975 -0.6479419079034454 -0.07333249014556402
Ni 3.234811219463841 6.61180787836257 6.59789726724512 0.6740846277370842 -0.07724390938482825 0.5416998115140542
Ni 7.259853897847284 4.899054059342594 9.107094835651164 -1.4354216981349341 -0.8767117252161288 -1.3578517728692552
Ni 1.845192675912956 2.428526565769331 10.67495747514919 -0.8825049348591381 0.0805349214312742 -0.48516716653464836
Ni 8.731661839531448 6.527796775522692 8.959070693923143 1.074031551549647 1.317830495281311 -1.244962089256359
Ni 7.881859711982842 2.0311545116983103 0.7032482957106843 0.48434209953019164 1.2734995345744196 -0.7787092431277105
Ni 6.256159335135085 5.2102604055146635 1.6791956140440902 -0.8647154720862011 0.9030585906407738 0.4973531670778789
Ni 7.13460938746057 3.382128872666052 2.9830322098245703 -0.20167990307442685 -0.8816520999405396 -1.2256191659533733
Ni 4.052127820950092 0.7773824300372684 0.8916560243635284 -0.28959517613017216 -0.23828701277449932 1.2312668511574536
Ni 4.5986669746259645 1.9979661960029527 12.318787975082016 0.4003978953070524 -2.7173937889567394 -1.9164272770927253
Ni 4.121158407928594 4.282661315039047 2.769988930365373 -0.3229452123455277 -1.054138412170146 1.0056702893664293
Ni 3.8047643645971227 8.110765693237475 13.050679571953573 -0.7225113557799041 0.4610761870237156 -1.4487271569945888
Ni 6.166424195679039 0.45413711250722066 13.422344321027913 0.8318827418268964 0.7590698716302281 -0.6423525867411259
Ni 5.304184541072686 7.134396701124266 5.564827022596604 0.676377794646635 0.5898277773695325 -0.6763130028469707
Ni 8.778563800302374 1.165326931070837 6.870436312754014 -0.07561871507657944 0.3171221779058474 -0.37955396197850766
Ni 2.68509101797543 2.7096979023625423 13.570124335830783 -1.0159264198767988 0.2530153201236094 0.5970849731525781
Ni 8.49269486984646 8.974817805318413 1.0173638210741043 0.9598504028188373 0.4994463021614818 -1.8000375507463708
P 2.5263067970768565 6.2886171195014 12.551495493417274 -0.7825831242608199 0.07129643355214173 -0.16934416705619867
P 9.018039367748088 8.231109170657195 12.689395765537247 0.1650949048615415 -0.24700459515315523 -1.7813304612551708
P 4.557387330919061 2.0385060611488 3.0231337561729927 -0.08584784900375537 -0.3010923781364943 0.721607355908396
P 7.788860299626139 2.1382467056431227 11.737964708717223 -0.7484267900940853 -0.2703810650955666 1.6250901785707819
P 0.48577374267076384 7.672289692867801 4.906994657472325 0.2611405203339051 -1.4207129311698499 -0.07487232382885815
P 6.513999905359006 -0.07391497492787132 6.589113321555787 -0.12214025567688644 0.10289066341865506 0.053622413311146366
P 2.9891677482653254 4.893246797638308 5.292368428006226 0.02170396733599488 -0.1857146379944221 -0.5664654484945083
P 4.482096367867626 7.354785981694746 8.859891356412021 -0.11787762374579053 2.816804464246594 -0.7251076557521705
Ni 8.673450514008383 8.08322743630218 6.880600870182919 -0.39299208976128447 -0.33558989769273173 0.38848031793386
Ni 5.668830641049009 5.944379660578198 12.987339731555991 -1.2782995270662243 -0.026556410332289747 -1.721415272956777
Ni 4.837430505206662 2.001443155239914 6.851772624381783 0.46368842783558206 0.30234219138319546 0.2371043053203078
Ni 4.7242998687572335 0.2999348950711853 5.127778794849768 -0.7235117720199604 -0.10604000768091415 -0.5983360719508598
Ni 1.6906066983483732 8.663084366921593 6.85790353920653 0.4694199310027206 -0.6036122327481346 0.9789377584675915
Ni 0.8844847959372956 4.984951597513164 4.68722494144673 0.3566539174518825 1.2467330651138528 -0.26558390081723937
Ni 0.519378183806715 3.273954752575696 2.8750827974721345 -0.049320443501682805 0.04686272598980962 -0.26224583758294195
Ni 2.156889125381724 6.989862464758026 8.999592064604965 0.41514291482671084 0.21584308194868634 -1.188009068910083
Ni 0.9477580562643819 3.1905262253526496 6.181623870939129 0.6079789943572627 -0.5424927397289948 0.6453052416115468
Ni 0.014268478996360084 2.878626336779591 8.490324804281478 -0.2702026305361733 1.4449460926856017 -0.010761095171245984
Ni 2.8975369262465747 2.449915413415851 4.635104767650758 0.5403414977139468 0.37954110646270117 -0.4299910355831369
Ni 5.444030430808237 7.742476183847952 0.9289972719560117 1.891561109978665 0.1224161350460924 1.1316216912592898
Ni 5.584810290977119 4.358285178442957 10.891167006849706 -0.2694554679575037 0.06448506705726313 0.37009590188940134
Ni 8.852597139800013 1.1243339515563429 10.086636553068097 1.3353960149689001 0.8563388179867316 0.8427207129826647
Ni 7.073180025196915 8.695921287800449 4.44650469657204 0.700859067617451 -0.49626430488907436 -0.1936986846411632
Ni 4.163529225013054 9.132187199718969 7.663016568604969 1.400631844149259 -1.0519190359213237 -1.5627897778696636
Ni 0.9093792692400182 8.113623087929552 2.5921082506363504 -0.3350162845774488 -0.405897742079359 1.8630606885461267
Ni 3.847690015602374 5.958953298230994 1.3342285485150474 -0.4392760604294886 1.2364427389314385 -1.887366098060711
Ni 0.6732937370503412 6.138247879734834 1.2013781897974793 -0.518915723740003 -1.686004240447335 -0.3765709680907837
Ni 8.391234240197683 5.94224354998315 3.0237292779146423 -0.5053405561587297 -0.1367423218607774 0.259270814115018
Ni 5.2724018046433345 3.7517777251615145 4.848364432339064 -1.0276447367549915 -0.18664254912533015 -0.05437703208898377
Ni 4.166442103097211 5.396934278165033 9.070362055925148 -0.6573791420569453 -2.9906989696776365 -0.36326370945891634
Ni 7.957742497883121 6.444571687403935 5.375374356726269 -0.7846263799430939 -0.722077353566279 -0.028509420293602514
Ni 0.8604022296053315 5.769292569640362 10.62280955965718 1.0635877305085037 -1.7193519626698455 0.8976595311123895
P 2.1233679093338917 4.19098425686023 9.227752718959334 -0.3663261504343239 0.147716561484094 -0.3337363894237607
P 4.584259787149406 3.865019328395102 12.996122752522124 0.004666809348050027 3.231020239273345 0.2958599260929614
P 2.015082822459377 4.572562038652714 1.7723383584969983 0.8336418906098483 -2.116309464836781 -0.7372957131779302
P 8.103007265578404 5.85660493430895 11.512375709585724 -0.7416110527238324 -0.8651201637237875 -0.23120105246199535
P 0.33018536515595054 8.711706312846973 8.968273539222675 0.9700247722486777 -1.2619102870749235 -0.9116681866866556
P 8.932077098953425 2.1347050157820693 4.803605979948798 -1.2674774967500557 -0.46284022090267385 -0.7918082424035138
P 2.7496089557314924 0.6806887484912933 11.762407917097702 1.2694662450453105 -0.1013505726250448 -0.29958596879429694
P 0.7547331846673495 1.5529061664398844 0.906229662016324 0.7770596233394295 0.6739586436821813 1.42339202066391
Ni 2.9824080216636797 0.18780573384878513 9.468242707756895 -0.8810167803493859 -0.568328469845176 2.547120425218052
Ni 7.060566800730917 2.8654582783928007 7.242831593157395 0.6699232972705429 0.5352522561164975 -0.18722490399136144
Ni 7.760249363777312 6.715626552174712 0.2884100698131402 0.5533415095180405 -0.13235833386046883 -0.2768543315247361
Ni 0.7232139943503739 1.306828075336749 12.27990336446653 -1.3441976724209301 -1.103043622511281 1.5451116438636099
Ni 7.971798290543178 4.023785054829649 4.953037550389225 -0.6702588262330907 0.3318047196186866 1.320475646213642
Ni 1.5759595158487798 7.949789878351773 0.2932315765848202 0.4784067078823632 0.7535677108650763 -1.1924519351727851
Ni 3.9324316497712943 6.901449679479868 10.99337758701475 -0.5372903695924488 0.0845008480575577 0.13698117734446086
Ni 5.613883588426604 5.090296064607483 6.703491409603796 -0.3316046877927386 -1.3585171743673958 0.8642639863710794
Ni 8.709459235467767 0.988751035778876 2.8352919581193556 1.3317715308424354 1.1900523245923569 2.0045703498885605
Ni 6.759134778796795 2.362038967594458 9.738346032353514 -0.12818466209875343 -0.9446947781243215 0.2938462380970423
Ni 3.2982564783063726 3.733301755599151 7.166362532747479 -0.17662116033358613 1.2951909035049243 -0.027005067833934134
Ni 0.6174931649131179 3.891540389808946 12.729443677939992 -0.4696649571339912 0.08771729811232636 0.5521510887543651
Ni 5.050699417126982 7.776811156312944 3.2028010011269648 -0.43904928913066316 -0.37222091865220414 0.573924990096347
Ni 2.879597296140976 4.28602730749185 11.54102825797861 0.6128738605557188 1.4279804113655408 0.23269126385427666
Ni 6.6880790480074035 6.85847779231455 7.630452441070502 -0.2795665882495766 1.6115818596717018 0.45544135733544144
Ni 7.402261270850489 9.327590459389794 8.780038733808478 -1.6380806772931786 -0.6030396480741163 -2.2318949501142855
Ni 5.437853279823422 0.09237984781181935 10.289974862529448 -0.25847300080407093 -0.04871057783182579 0.1670970228932348
Ni 2.1944791235153622 2.0145742246986513 8.385407559306168 -0.40211513510847524 0.16424284127389135 -0.9312257971036092
Ni 8.056706374888336 7.999133108374182 10.713665463633223 0.6713278909275534 0.4748025354708727 1.0469262106924226
Ni 1.5040715341782007 8.008805713059983 10.972480692111334 -0.3884535784609826 1.2867430298478872 1.9478122191619103
Ni 1.0013457657808478 0.44455698014155054 4.806948854321567 0.9486635329640822 1.2382180856643061 -0.5488173963954419
Ni 4.114056533742461 2.624567884449068 9.935986197448331 0.45101571746392005 -0.506754920007753 -0.7615270749214691
Ni 2.858920485359472 7.945573140553756 4.5805211312464715 -0.3353770103509772 0.27522090968637114 0.05458194901093826
Ni 2.172849847836499 0.8520233126781754 2.4899383582921613 -0.06440073487357295 1.2261981783852947 0.3895730367774065
P 7.35473974553468 7.8407650129162025 2.252208668250538 -1.8183301784079717 -0.5278418225850393 1.8316942584197036
P 5.5112300658481255 3.6258951557658894 8.574277649559672 -1.252255794704295 0.13794328414741405 -0.7424548887813665
P 6.077789476832565 5.583053316894612 3.967784742480941 0.49706751751666 0.20664418905823764 0.1955640199846761
P 3.1682958795929284 8.23369839562089 1.9520869790926865 0.724178973290314 -0.9314512828508539 0.4050086546061863
P 8.256048955396782 4.79453259589745 7.007619924392965 0.32223121699763857 0.638871570171061 0.8247325039353602
P 6.069272776148411 8.042844774100555 12.058225944476614 -0.8652314924906711 -0.18141138263337792 0.014471454143297658
P 2.71232411625429 1.2526023068113725 6.427717682336686 0.3354603140934029 0.08101366083990563 -0.5130325254863487
P 8.22614340706611 4.496031946511511 1.2425533397826334 0.6114713237812373 -0.7173434384257193 -0.3913671525633518
