# total energy = -340862.8127093788 ev
CRYSTAL
PRIMVEC
9.33842225116738 0.00000000000000 0.00000000000000
0.00000000000000 9.33842225116738 0.00000000000000
0.00000000000000 0.00000000000000 13.66772490677018
PRIMCOORD
 96 1
Ni 8.674450807633086 5.4903290765529 12.04990279676306 1.7467385822129142 -0.6990538960879122 -1.4348560554394514
Ni 5.656440926136307 4.2828337651894595 3.272258691252951 -0.7890116534949831 1.304569516506347 0.7102556783410027
Ni 7.02895549171542 7.545753100653768 11.800425920621521 1.6036803454364381 0.855040153779966 1.0834299620454113
Ni 4.188543718796179 0.22494951089919393 9.577042907076237 -0.37310357836747354 1.8070448353021396 -0.3675674790405928
Ni 0.3029365402583658 8.474085626350108 4.80405498460384 0.49246472863732604 -0.5579432699561101 0.7284380056769841
Ni 7.907719673720019 3.0214370823511243 0.6985503814398601 0.11337305100721766 0.01348312208809936 -0.7290149612263768
Ni 4.0479911300802 4.71064555140011 7.111057029784197 1.152192830542422 1.162002360433676 0.5248176910467348
Ni 6.347839010207383 3.982892990691514 7.8149312455757265 -0.3729076603065836 2.082954543525419 0.11148714683841446
Ni 3.5374876175337566 0.8528267150483397 1.8718764069012495 1.1489807513630277 -2.1045399830056786 -1.794281879209516
Ni 5.749983898773872 7.592678670934666 9.991666973814116 -1.0093572512997133 0.7387432442577342 -1.1624124513879013
Ni 8.98009735794031 3.8453753891081286 7.1376276417484235 0.5228464262529771 1.0656225015503453 -1.4045566331249617
Ni 5.554633450076137 2.232732641598066 6.5112632619546025 -0.24766922532034763 -1.7413626626129817 -1.2380730754460096
Ni 1.7204454904598523 3.9844805224224102 9.78211371917803 -0.19448081422282637 -1.958914756832975 -1.5510964006921353
Ni 6.465148266698655 5.415276179369301 10.70762323991996 0.4286538048289521 -1.1870644456086266 0.5225592340298614
Ni 7.828922069335894 3.8877905015888934 2.822152356487352 0.9621908780265559 0.6607393167784298 0.13292114834247432
Ni 8.096990809730615 5.792548426005778 8.052694939069836 -1.8079825166250605 -1.0494070681327474 -1.240641350393818
Ni 4.8968910387000575 9.12574872503905 11.712160090225895 0.7048723025419023 0.725120511267977 0.6280174010653765
Ni 0.22182674260030188 1.8909090446703039 12.374073974685452 -0.5404124601611984 -0.5343413142664539 3.0914522750383147
Ni 6.225374944801672 0.006481798673029172 8.138337606740706 -0.38048855797763503 -0.023157154842753668 -1.4557344415503575
Ni 6.842971480229973 0.43905151086539446 10.26025119510028 0.22983605379366867 0.8680177969865567 1.3703393638133046
Ni 5.509622256294261 4.724064863737155 1.0543844128138775 -1.2933175977416114 -0.1846903104949658 -0.4281832929504368
Ni 4.365376076774108 3.5485256322744574 5.077190752746703 -0.41729852771713294 0.4744765195900216 1.8799734051410655
Ni 9.285417063479409 3.8840177791225288 4.699469328014602 0.43537492560286956 -0.9115594290229334 0.6850580960294524
Ni 7.2891239271434465 4.881818825678492 5.363092143690359 -1.2719149636961191 -0.4054346864000114 0.3855821704504585
P 8.086447731353076 0.15349844306034058 12.132701914951236 0.5067762601639917 0.28934449357194686 0.512205144489047
P 5.841136235393145 7.2114749486587355 0.7951376796319659 2.441686683662569 -1.8243218772150323 0.5570783508526536
P 5.464545693558759 2.084158348430087 8.531817618507437 -0.6585585070770271 -0.5617675287982067 3.005102032476844
P 3.3404655913076082 7.815502756998849 11.190954746128824 0.47151975095454274 -2.4265284878648923 -1.0193287606901285
P 9.098872746677175 5.956325670102574 5.980175999753801 0.1917150785522311 0.08853002382160882 0.7351123323733663
P 4.166607765643975 7.696437877181645 6.151227874546878 -0.4450780118232464 0.2505552886188911 -0.5422536271349951
P 8.563454324377611 5.977402488435706 2.2473015136767187 0.010294697057788722 0.2310951230117504 0.247220053598071
P 5.941188088127383 1.6346814233036788 2.068938588341767 1.1592222265853778 -1.0419066459906443 -3.4759802931926456
Ni 1.874295992027574 9.083651118904466 8.79045175120966 1.16970795660805 1.0169021535265068 1.9799206696606806
Ni 8.00221516539612 0.1376390010686889 6.412568281929183 -0.27888704568404876 0.7730731278878556 -0.834731524129601
Ni 5.5540451294935105 9.227444140035864 5.363078136057439 -0.5729474566744261 0.03995725711922796 1.2893562991010183
Ni 0.5499863605360223 1.51862351535323 5.246027553854083 1.7538142581127731 0.2780149274917405 1.6845916763705249
Ni 0.8771056782669084 6.036355946183629 4.144341232354865 -2.0027420384305703 1.3875109904965848 -0.3518554676219746
Ni 6.91195440314838 5.5165607038004705 13.243601523542818 -0.4443761006602153 0.2744665480188499 0.8940365896478216
Ni 2.6542409929948643 5.195925986269198 11.471457595345239 0.5363179783768506 2.979570463864643 0.09876455706542345
Ni 3.8141196908533694 7.693916503256104 8.316988155471607 0.09958808140798334 -1.830017127827597 -0.6323566518706787
Ni 0.7637493757855669 9.21365129082096 0.45958576688343783 -0.4249377894299456 0.1445517906028672 -0.4213169048479067
Ni 8.107776687078761 1.56775295321349 3.981763041635994 -0.3745143426720711 -0.3812164372825951 -2.0665257085454347
Ni 8.148118669887415 7.554139003561678 0.4537464516403242 -0.07004096387848584 -1.3698958485179826 -0.44593290362437393
Ni 4.843055036178788 2.117207023698565 3.5906475183061035 -1.1467145810366701 -1.7106860594647313 0.9400567651316778
Ni 4.069665607417904 7.1207335026051055 1.8612847687295888 -1.0942766749519284 -0.21951898813837678 0.3691523070292094
Ni 0.6320421403372614 7.340970845790123 7.797012681544883 -0.7688848008381209 -1.8435773830105346 0.45640963478598173
Ni 4.8359951891872734 2.2312011403988485 11.350225267794261 -0.347633202010511 0.5515209113695341 -1.1128451819827352
Ni 1.7964882603697736 2.0997348362367614 0.5014555155225295 0.21747598956641898 0.10465289752540043 0.01244593907283663
Ni 7.065113861492065 7.07998062923081 6.236624007878362 -0.21040879830699244 1.0261573535761876 -0.13188113711373417
Ni 2.26437121515263 3.0372376922845135 11.868969937708446 0.3436459352279888 -1.3964448026511047 1.3424308103284945
Ni 2.8230516465207947 8.04364040515056 13.56844226631877 0.06252742911026006 -0.4284144351246364 -0.5299033330997583
Ni 5.396935518666479 8.636116585542919 3.0542037372768194 0.7997619500329517 0.901393544233525 -0.6768845590797246
Ni 3.1134859074772567 2.613945702295944 7.827245822596507 3.2612949789974865 -2.589707406650643 2.302225934429364
Ni 2.933852022915394 7.077739407963662 4.097187804578474 1.405881265473656 -0.2497986129585246 0.9350333437751573
Ni 9.159507120375459 8.327649831807866 2.463401935939459 -0.5769275243680967 -0.21722067902250328 1.3691435437329904
Ni 3.1919379902493623 0.6011963988059508 6.775829160277211 0.32829413536226687 -1.742603476998618 -0.7288864060683125
P 2.1909712186535533 5.728216037216702 8.602411419211606 0.8740652887322173 0.7461534206788764 -0.5151909665902482
P 0.061316078500373926 1.889470927690551 1.858646664529717 -0.2263923182194424 -0.4699974007727454 0.42841057846989444
P 0.8907033544631304 6.706219629246196 12.854549791463093 1.0370626876347817 1.0636435234471036 0.7684752241045282
P 7.359694381792749 8.86625265599117 4.275715086139683 1.06480000564905 -1.6169431239836154 -0.06275240063687258
P 2.676503790915195 2.084634607949356 5.2727214329880026 0.17467843478491854 1.0295599514998333 -0.31454053322160025
P 0.9216686277953556 9.180331801316036 6.931819094312863 -0.3743873301759036 2.0528759789724838 -1.9707773125985157
P 0.6056807090246349 3.9679141618894125 13.267943054188427 -0.021993730662271796 -0.6518476707157548 -0.1426517453666769
P 4.290687378046422 4.126209752303643 12.427351539574323 0.6762813782780869 0.1473992873539913 0.537198581209591
Ni 0.32525536871037525 5.845385217378778 9.751620969996296 -0.020441298573487376 -0.5902514951705125 1.0656497552438549
Ni 4.98384108544343 6.759896878594376 12.580483916494364 -2.0955624620974165 -0.8000298589823577 -0.8674223294944029
Ni 1.126699284682777 4.220667890291959 2.6154006284352005 -1.0757577902121342 -0.4798874061929478 -1.93418434396583
Ni 2.154924909940266 6.3405643795111 6.3237421462167696 0.9441767008373223 0.11647765807447037 -0.34713440799722156
Ni 7.472250381513281 0.3969174848852183 1.1595817360406078 1.5192802846228028 1.4433833761841723 0.1946494785902067
Ni 6.846398681084319 6.656548562913043 3.7716905707396857 0.6012339623239452 0.2822685605617719 -0.8171770601856055
Ni 1.9274409513248063 4.10164036416254 7.1695416987504075 -3.3914987284087976 1.6752254046642763 -1.6027730031308203
Ni 5.503272129370677 2.0585150417651423 13.577722790049151 -0.08814153013393852 1.439245956977031 1.0212146648589315
Ni 1.3904910278260245 6.561259305371493 1.6978866645638189 -0.7158635114460833 0.746846847201475 -0.557759178969762
Ni 2.0131489879493007 0.014960151958208807 11.574253076447343 -0.908259418115423 1.2178397791182702 0.36850361770161694
Ni 7.15889029467829 3.3317061515218405 12.072318744803312 0.07473451269941322 -0.15062833581425025 -0.8376229867447833
Ni 3.315550681554487 0.3074983593792054 4.145010797208426 -0.18211509356862185 -1.1534693832620004 1.2601416252102748
Ni 4.437571416842093 4.348819054663057 9.445982824268821 -0.7360173606861388 -0.7779777642783248 1.1019933268698956
Ni 2.0820291882262976 2.059439545537841 3.0140746704885455 -2.145361130787099 0.8528369754810602 1.5652608651179754
Ni 8.995524430995841 1.7346305533965058 10.38727894731122 -0.8902231294390024 0.2741405321379988 -2.822880238127029
Ni 3.0028629610996407 5.475565031455567 0.3135552598536712 0.19503411562313508 -1.0846136979408676 -0.8134507603739538
Ni 5.422364041626656 9.142632591918227 0.27847267628525746 -1.0900495242444581 -0.30152020970253235 0.9221683148870311
Ni 4.757150892693418 5.810123336108993 5.2041774159010785 0.689062074982523 1.3003588208591088 -0.6674961758862892
Ni 2.3149761236804287 4.348744347287486 4.6528211088655125 0.6783079217898124 -0.2659873069032452 0.31566976173003697
Ni 0.7926928807663861 1.9446890166598945 8.110673465566551 0.9519987679849025 -0.3171579162397893 -0.10051470698731077
Ni 3.565642959702296 3.2284418816380254 1.5436598245916555 0.9700795367460132 1.5336216409461394 0.41040745702425446
Ni 7.847823035355504 2.3702969352911833 8.143025494557822 -1.1533775948791427 -2.900878766289694 1.7699250476317065
Ni 9.308669734126063 7.908373363256269 10.915837364848924 0.5949527573009238 0.9222171658470956 0.9903161755078623
Ni 8.792553829989807 9.265656962640726 8.61240259685211 -1.4635225701362085 0.005350722788952075 1.1092577217417927
P 1.9689315600328723 1.7064845496499133 10.153232879593991 -0.14930524612745255 0.1529803809861946 -1.5460300419128212
P 3.0246961916104347 5.309826718750017 2.6066944176545275 0.8236390137608655 -1.1354076406642832 -0.15478041030941084
P 7.932980105085158 7.333808276157197 9.39476998447231 -0.3059193672114925 1.7259766670752146 0.515618283935654
P 5.722631660892727 5.938769436843253 8.736614814846197 -0.5847004834452963 -0.7744183290618405 -1.7814847274448482
P 3.4730525061032695 0.7947650765963027 13.185595915622459 -0.006218212995569936 1.1573329799824648 0.503895596182087
P 2.085680511207358 8.39885529914953 2.7481696424588167 -0.7881894147040038 1.6808715472064601 -1.1951878460467091
P 8.200796708087324 3.861484166965751 10.151934838943436 0.21675685201220735 0.06617428183422797 -0.31549081295001147
P 6.6592100131677805 2.8805669872889648 4.795075158060136 0.14129574555941474 0.9342193325142943 -0.2889732262754572
