# total energy = -340856.381425063 ev
CRYSTAL
PRIMVEC
9.43206678761706 0.00000000000000 0.00000000000000
0.00000000000000 9.43206678761706 0.00000000000000
0.00000000000000 0.00000000000000 13.80478315159468
PRIMCOORD
 96 1
Ni 9.169657204196938 0.9873676097197571 9.125624543861678 -0.6934841153096186 0.3073255035303998 -0.9813317126210646
Ni 8.792204757684976 0.8953634579816322 1.7423564481376035 0.3429553369188674 -1.2314758818444662 -1.1856148576462937
Ni 4.286742281109394 0.9219656589947348 8.10804602439686 2.1429376089472707 -0.9842262605600405 -0.0013500862699912233
Ni 0.7702452063581007 3.016290052539031 2.138885249616592 -0.8406887701543004 -0.3044726074626369 0.782413174341859
Ni 8.0058250579738 6.86876111713826 7.4907097110837215 0.4629286668514221 -0.09917876178470661 3.4948071960911617
Ni 5.571069079843659 4.852873790543673 4.67120746923717 0.07724673759830566 0.7202225597457274 -1.7996153756072877
Ni 4.063013658208106 0.22420588547796622 0.6057141206850194 -0.4755962350167616 0.5912002322370269 2.663385195950768
Ni 4.051299031326006 5.161783408108602 6.460362059676082 0.8948544575634267 0.11577883223523285 -1.7759332014989995
Ni 5.510005879815711 2.3048481230197075 3.42891467589749 0.005405744396603593 -0.43154475322350194 0.36692367480900684
Ni 3.0280518397547946 -0.02780761914155049 10.197013004036945 1.1578556852551543 0.7825265599912717 -0.8099440327722761
Ni 7.916173263678827 8.66647530813716 10.072563485944766 -0.9350161173839767 -0.44538371598912324 0.40595507767985567
Ni 4.861673908805348 4.964455139992334 0.9479274226766824 0.19174670312111491 -1.32443463086139 0.4247837803505846
Ni 4.602160024719932 2.8063228150008537 6.183962889725663 -0.8577488109603809 -1.266915967819631 -0.4308726668571418
Ni 3.2425559013914342 3.6505493799841036 3.765530989489928 0.0340131237206511 -0.35760085474618414 1.7548617255406809
Ni 0.07297967313812928 2.5714737854216305 7.1167518452962515 -1.3756021548741406 -0.7511912402130999 -0.6596723089664961
Ni 7.2462418598504215 4.653743997681448 8.783141484761456 0.010561577565930198 0.0633632947479941 0.09552702396473227
Ni 6.747908046091287 8.759956521525636 7.8639912976864546 0.8656230715021349 3.4409179022718743 -0.01658155850776499
Ni 4.126067024316669 7.148393599564671 1.2758502003615264 -0.21572866785800912 -0.3244853031391379 1.5750544541696292
Ni 0.8510874503246666 8.363630509481403 9.579359773281585 0.9210974504203556 0.16292463668310006 -0.4956084164726304
Ni 3.206157555869677 0.5720001413554088 12.523823694443903 -0.3847882137942535 0.9183833939233023 -2.2698979117206197
Ni 2.7186706188532286 5.186240757146672 8.17643511065615 2.145758623335834 -0.022747578109160824 1.6561190228521285
Ni 5.501592476290081 5.515410454053589 12.61010352488191 0.746320799494676 0.34177571478846946 -0.5793631303927829
Ni 5.080054549869155 5.650062638730603 10.21533196404533 -0.24966388715287324 -1.8972928702561194 -1.7410862690231435
Ni 2.527360009312469 1.7685313765277118 1.6195216998700754 1.5893127638608562 -0.2468097055335298 -3.4009737577787686
P 7.500643563766675 1.4693273556308035 6.515401941888484 0.04386970479975671 1.9537854060262094 1.0909794922578955
P 1.9142945358159287 1.1720380442806475 3.4054608987597863 -0.8846893441049667 -0.23771082855605516 3.2679487368685782
P 6.788239563440608 6.755793253879882 9.916334505409868 1.7656431324269013 -0.5105583529142432 -0.8072266338411129
P 6.683788856441922 6.41134360886588 6.103826164350709 -1.099868310107093 -2.3733274783618805 -3.224273921688447
P 8.619380998940443 4.061825217799777 2.9158460874884247 -1.7643583521772064 0.19812432451268458 0.5803365500496457
P 3.228021086556237 7.160900520052325 6.863393327960641 -1.2516186753409284 -0.7292952114709569 -0.3437629204218273
P 4.1674549331400605 3.1686179302732556 1.9758368848339019 0.9718991064532552 0.10177120510223117 -1.3652650346141906
P 1.4716287799135992 6.39254549986747 10.514054006332191 1.7334907160640727 -0.43144190909705055 0.07447226017696207
Ni 6.16233704712077 7.978141942113121 4.005637453065996 -0.2890225914561539 -0.4482633515297635 -0.17606734471264518
Ni 8.804815430906688 4.8396217367841325 6.716662438625642 -0.5418756749702862 -0.8666098608954366 -0.8165885346719872
Ni 2.3129502683431564 1.9369031997743766 6.457698444030748 -0.28871817284185763 2.054138133514359 -0.6195340461847136
Ni 7.285554713992603 2.7142281154220944 12.155263800447598 0.18891463298895853 0.6574151375012033 -0.33651832304427204
Ni 5.192597970124559 7.846819276992774 10.892925978887437 -0.1947325252223162 0.8771231017219345 1.7821691551063823
Ni 8.53967060298181 8.02285937049318 0.9092087887386642 2.7627861010486097 1.4168945858650244 -0.4879246746751275
Ni 3.328557485860825 6.466775865054365 11.554451524843596 0.8899896732719577 3.0417248259062 2.447309943386618
Ni 1.638661249684211 7.258777076538271 0.7997439950648367 -0.09836037964846932 1.5247508208190708 0.9171220107123754
Ni 8.936977549966251 6.66880130240355 12.099119423220788 0.28504303798311553 -1.0739341067398345 3.1220939111835713
Ni 6.341782116711705 4.064258691016831 6.645594645414246 1.1868122203885045 0.42552220117850587 1.4308654462228196
Ni 2.2764670342208047 4.942799114773896 1.9584290624719027 1.1355372242636121 1.0875594108327529 0.08940265623454925
Ni 9.39408380003645 5.321864444697162 1.1151617386753754 -1.332386281608299 -0.02618205771200652 -0.11590378784887137
Ni 0.3450004777111963 8.24648424066041 7.300756375945808 0.7047851421447346 0.9786641930912306 -0.6867732789483463
Ni 7.312256894913074 2.907632643777529 1.0142405110480903 0.34788619856158154 1.2687077696127311 0.747000856280836
Ni 7.8044692973626395 4.714599692241276 11.022897972051652 -0.5914259750945879 -0.31576566387795296 1.4002418077996919
Ni 1.4043875761756868 8.256953834733782 11.83130626361721 0.3888968366459883 -1.7645324158612254 0.17211093116805842
Ni 2.7109740523992882 9.2500089806934 6.957058466650407 -0.17607557224276127 -2.683590210143733 -1.0501683717788044
Ni 3.151187470951098 8.971215952206204 2.79690395316151 -0.44368833056457135 -1.5366750830604825 -0.0802713833572424
Ni 1.1576069821795105 8.68265130258386 4.755388664827136 0.3773721238358404 1.5984872312712728 -1.1464896095100578
Ni 5.746977124409808 0.6992245734803676 12.151660750955678 -0.08604273862338084 -1.3345264678797533 -1.7301804207439169
Ni 3.5418259467554716 6.455957284511879 3.9578451709310545 0.045460446325644284 -0.035675341914422426 -0.4547690138587652
Ni 0.6947999909760255 5.7896194981086575 8.047318605944598 -0.32383327137743584 3.0501747564457666 1.124142352163109
Ni 3.3978737442799463 2.7419395274829705 8.97785801359942 -1.3268283279045472 0.21047924653361172 0.6426045548509319
Ni 3.3816505894995834 4.040065439847278 12.834293375846434 -0.15097697740292063 -0.3209369236662473 0.24944791448732528
P 8.341436856459197 2.5808398276872704 10.160251523945975 -0.41401137232542884 1.8800232845423945 1.0089330192781012
P 4.02736987802497 7.874625009720979 13.166753920836411 0.2229858636410547 -0.04927184965193449 -1.8815469202757724
P 7.272604486368512 1.1638698744900693 13.605856241927102 -0.3481263395968456 -2.3055925369087515 0.8324262730351922
P 1.7039500156084402 1.0009780820151433 8.33549371121088 0.33116091538710063 0.39995258023951763 1.2019449622648848
P 1.6395478639570913 4.234233965608067 6.474291335827036 -0.22586884161580453 -0.5099520867888121 -0.626195003144657
P 5.665814190174328 0.04515790589647964 9.73288269387085 0.06425495332432804 2.1316476378557487 -0.9997102151282525
P 2.884967387418684 2.5532038721602563 11.138817128990711 0.24047733555759873 -0.3352615678190355 0.6795402515350167
P 1.3382876525124396 0.00476413690672178 13.505233067608572 -1.045183259859387 1.1276925314082127 2.0417526153658128
Ni 5.114462729310298 2.364166390702094 13.5223645304153 -0.505537245550568 1.4009110659525743 1.3009044089499338
Ni 6.534347191127924 2.0727438248597205 8.622136105633084 0.41376248953941647 -0.36168222390440935 -0.09277182981709829
Ni 0.5646214355503634 3.441827175254651 12.004832711333332 0.6703554997119552 1.1122741399706135 -1.297180166020811
Ni 5.282117715485272 7.222407027216713 7.486927452323881 -1.038009110708451 -2.0918099370335197 0.9568933770730423
Ni 0.9642873424246707 4.7964323032147815 4.112472586534728 -0.23155586469825282 0.12545646453431297 0.3262714485052832
Ni 7.933424513733062 1.789244195072873 3.5086929827365996 -1.339176822167571 1.1673104029101509 0.7859669531313883
Ni 8.753674765081612 7.092857590642127 5.262728215902718 -2.309203137078146 -0.48293544899065216 -0.9651633303913184
Ni 7.909165238096379 3.9381142305327748 4.948862990476393 -0.22104570919554836 -1.0531089424643671 -1.8061171812815475
Ni 5.9950404794816405 8.691149594710085 0.6274814442909044 2.291128538964622 0.2616388001265623 -1.0826144081226516
Ni 9.271155674308268 1.9089371219117157 13.42425405867438 1.140522079072713 -1.1772562012689531 0.9084666490302226
Ni 3.816534890347378 0.769006775996088 4.811050120237228 0.1360121285629722 0.22335635960659597 0.29325642703184335
Ni 1.3420133188718832 6.657511118524425 5.6503946474795965 3.3790813285810515 -1.8861034292982033 1.3640743567401992
Ni 7.561584146927097 8.257227364669033 12.512392972770462 -1.4688653225053607 1.5026352198669541 0.38363353136451994
Ni 3.407786846416087 7.47300760823966 9.02675479074877 -0.5420438251170342 -0.4825742089964914 0.26203372157213584
Ni 8.250181610819654 9.262506469114319 5.544456503557152 -0.3560283680527417 0.300591784350992 -0.9068329700815414
Ni 7.809232491062689 6.318343430880774 3.2731695603859836 0.1441992923594549 -2.5897624282582945 -0.3581112187236994
Ni 1.4588483294906969 5.698298228001986 12.982404176544437 0.35048866918143506 -0.6439361291781619 -0.8387393597374136
Ni 0.3612340077649655 1.7732757060942947 4.784917636147417 0.8496022705938465 0.09236096753192481 0.14517065513378868
Ni 8.987835253789344 6.3988932807786245 10.020063659303498 -1.9655091222210408 -0.049265164783715155 -3.7168224682888313
Ni 6.973221256203681 6.635987142240246 0.8779424307262073 -1.6694807888710153 -2.5071644536504047 -0.6158483698030104
Ni 2.845428163674915 4.679644452929632 10.570018231084406 -1.142514941133026 -2.5962421224453673 -1.5897411096475265
Ni 1.174971417034539 3.659953150516675 8.81886826713184 -1.2286430403813615 -1.5029008148235148 1.315943305560927
Ni 1.2741778949298064 1.0628241435819117 11.168994083295534 -1.8265510236558673 1.224259566601685 0.19648653179894549
Ni 5.267960183319386 3.2340104489315453 10.836906104941498 -0.7477174227318865 -0.3108065201004647 0.07112442675065171
P 8.056946859665409 8.3330328850003 2.941426795674368 0.9124336040977705 2.561470266181821 0.4762611222942701
P 7.596124375302499 5.017284145762576 13.406943386599728 0.06837283214744354 -0.8774763712962954 -1.1981777819129689
P 5.3823145603874805 8.640056089218673 5.883833583082271 -0.35108902176959533 1.8498251636924594 0.5451229782629903
P 5.295784780181055 0.0653208349511206 2.5515928751622994 -0.34615687457530064 1.0483614004770527 0.9599553038278176
P 5.724972112722257 6.172608567792756 2.599730370939661 -1.5198117316462405 -0.7181821322769308 1.2484821865944755
P 1.5309753437961837 3.752868439901185 0.28466731964836406 -0.2709091696848947 -0.12347800065170349 -1.5543323911309295
P 5.0674061483805115 3.902687387884493 8.542454949081323 1.288052235577614 0.7314297413154565 -0.48913155049903506
P 1.414894898515992 6.887351720668549 3.2051945418562617 1.0659624013882674 0.0006096085595408856 -0.054123778427597115
