# total energy = -340888.77081268723 ev
CRYSTAL
PRIMVEC
9.09030859453615 0.00000000000000 0.00000000000000

0.00000000000000 9.09030859453615 0.00000000000000

0.00000000000000 0.00000000000000 13.30458549058120

PRIMCOORD
 96 1
Ni 6.77884321829352 2.092889053397073 11.347401499927399 -1.918652309768502 0.755484468271815 -0.20557872390820078
Ni 4.866605870595284 0.4455687554064806 5.975049939061462 -1.144471036418132 -1.028811246259267 -0.4218342108039574
Ni 2.9383604891962634 1.9519983581509477 4.6540908146818065 1.090632907551754 -0.3027638523016463 -0.48093564495180396
Ni 3.6429139588230917 4.8170364170062046 4.851357786705623 0.8859371004691386 -2.32276493492298 -0.38069707444401535
Ni 4.157143634245898 2.8962905403222026 2.750164736269557 -0.9904722414697522 -0.466637483161577 -1.1124325199253484
Ni 5.069083407592006 4.834435267945046 1.7456019890540506 -0.2842871336536975 1.0686337775728434 1.558350254041071
Ni 5.631137197324759 3.333234410790976 0.16240018379966986 0.3818815816704197 -2.243026284140756 -0.7510192334116098
Ni 5.579658778899131 8.243146512249705 12.533611341649372 -0.21717954137192275 0.35774329386131937 -0.21929915881808681
Ni 1.9504802765904532 7.006619084528902 0.24220218621445067 -0.19236762453456546 -1.3169637764056417 0.3865684456231278
Ni 0.7556273693132827 0.09914799748690187 0.14184154154090234 -0.6615893234835509 1.481790772317777 -0.20003131172741034
Ni 8.215293806253568 0.14719755145373656 6.827620905990869 -0.8633193630696229 -0.12495741341070737 -0.3648482803372168
Ni 8.855278812861284 2.561367204903901 1.2486457183093966 0.7025256566865966 0.64884282245116 -0.759617516603582
Ni 7.122956855853498 0.904854786709884 4.766247953014359 -0.5134421022199415 -0.5571387717769437 0.026928191849411684
Ni 0.9494645678474306 7.677211160682633 2.4050966162913054 -0.02160909362934343 0.0016401067065842721 0.357544547586952
Ni 8.16763331750104 3.7869408105864064 3.5257816945141407 -0.8005088555013052 1.261073907216557 0.08355493920452062
Ni 7.884642915945641 4.250310208578277 12.741642148258705 0.794174171532529 -1.1498621255267165 -0.7592079398699892
Ni 8.235956078032034 7.778240852079848 8.867227114676336 0.23165022418427203 -0.5654825157559487 1.4013352979741864
Ni 6.982338869869737 1.054184924595309 0.2523442436817777 0.07012786716533728 -0.49599228217461033 -0.5267308489090476
Ni 2.101370311456602 6.5910828911557235 8.935333525859189 -0.10453436966966513 2.178780329677493 1.0133620015837321
Ni 0.48437619247179037 5.1613682219760735 1.2815217289182836 0.18163404016714524 -0.799928557517803 0.1731000345542051
Ni 6.170910640322353 2.2283346537046587 6.648833622615729 1.195985145137024 -0.06766963543283186 1.128312938601031
Ni 3.505859373867557 4.177215035955908 -0.050170322997154126 0.5873219802285433 1.511458731695855 2.2006861286116486
Ni 6.492998459792043 5.685379069609012 4.599581687320437 0.3072378289125999 0.09895687558188763 0.006534201574091973
Ni 5.195675047181498 3.2307229990682482 9.331171020180921 0.8971921045576676 -0.8769672928703608 -0.340449025557246
P 0.3741007480495518 5.816052257825223 12.434718781838217 0.3704939086587684 -0.05120326234669246 -0.5555657708628691
P 3.9019604871429086 6.514451588431364 12.673016680446487 1.0851289470143892 -1.1119229272787818 0.18224262028542162
P 2.473763899523753 8.880049904192704 1.3417804765611665 1.1514176429392944 -0.8942152813175309 1.376098892004901
P 6.568193493734616 7.991735843276087 5.859459391115743 0.983769632638596 -0.7602268680528069 -0.6154603903359723
P 4.746513801758806 1.3566194965572806 12.816599925143022 1.93139701102868 -0.36595539735846655 -0.8176272603491467
P 4.19493204770084 6.247660117060402 8.050738310250345 0.028138924328061213 0.6068798477558128 -0.30183182740568015
P 5.2195552882558625 1.1276891611112243 3.731377207410562 -0.7606804106504577 0.9257259503313023 -0.1709091975504734
P 0.602416578624414 5.83271479375568 3.5085519233179663 -0.6336404036791088 0.168071213881046 -0.7686631717456182
Ni 1.0523850434637048 0.10538485831717265 4.669577064660599 -0.42490333664758434 -0.10398338226220157 0.24515982863493266
Ni 2.3560989431223174 6.767143990938093 4.564723080374162 -0.6351714956116544 0.4535703655649737 -0.6156547657349655
Ni 6.082043782026584 5.734112214793506 9.11816508759519 -0.21054095300948256 0.4159193879814192 0.8772863667726762
Ni 8.761775897105322 2.8027967148749866 10.047942773792542 1.4235234040354516 -0.774777255063156 1.3152506503692767
Ni 2.3186650517084497 5.621374205732119 6.675017347926197 1.1776670635541264 -0.8110928016647386 0.33064849452705636
Ni 1.1052179178924086 0.17152776281100185 8.581351449125123 0.1745336816769381 -1.4314526861848573 1.7672770684858983
Ni 1.3390479297522764 1.0911461199544126 11.15055995435287 0.14220231653408413 1.2425758484123697 0.0009644207957983389
Ni 4.348821884452995 7.2723469897766435 1.3794198089526823 -0.626918768684559 -0.5721213612287049 0.3198848282526491
Ni 5.979341473820201 8.159506581482583 8.066064570795218 -0.7178023803400089 -0.14210384328300688 0.23423521130262884
Ni 5.693996682299723 3.3482697814559925 4.448521663680748 0.10558466531105042 -0.5786239382339131 0.45142220887371926
Ni 0.811814567669067 7.705936536318337 6.717818157623395 1.0451925158307676 -0.9511191935934266 -0.45128311219269374
Ni 5.44257692301736 4.579197578989583 7.030236615680522 -0.026476963244606015 0.7067479222980603 -0.3737262995531371
Ni 0.9461647857728229 7.83752784571784 11.363486801252517 0.8463719365820068 -1.665581710926925 -1.4812140738787005
Ni 4.753776958446441 0.5353001020639444 10.594454862663158 0.29534133458533 0.09277671491310474 -0.7631463556924469
Ni 8.364738482029185 7.379458097724582 4.408461582070312 -0.14376194771172016 0.6935118832237603 0.7542189712958302
Ni 7.4289730094611865 6.220071030017884 7.190583298734588 0.9557086127363217 -0.26606906798377405 -1.3998083198066988
Ni 2.775398524316123 5.449031042226648 2.479974398458662 -0.538214424068615 -0.10390959160147267 -0.9136430510248394
Ni 2.458046755702826 5.347528654774667 11.530938469622047 -0.7243880039773267 0.6307085747442943 -1.080997184234203
Ni 1.4528767758631214 3.8000944873411098 3.634373613756717 0.525669754634385 -0.703168432476918 -0.2911895172004856
Ni 1.585186219653518 1.3950533219331511 2.6621414586253684 0.22796351936130418 0.20928548333582667 -0.8699101289132631
Ni 1.163386803554707 3.766251267881704 8.16235003005817 0.3606000465838241 -1.12019339481769 -0.31534451718013434
Ni 3.8345740284126983 2.885682150016233 6.92230919800724 0.20644827099734767 0.7782335890428725 -0.3459974661793009
Ni 4.687654052631852 6.710438644983817 5.760406841870669 -0.46998351681567446 1.740917347545447 1.0938233894645935
Ni 8.223293277949587 7.599979897581074 12.881845616163673 -0.2853081187190441 -0.8199060290809944 2.446253477097645
P 0.5249207875383604 5.773691419071307 7.762520981166298 -2.709315382823979 0.9101723188674196 0.6500563831432868
P 9.115761609962885 1.7329946398549505 7.840139491420415 -0.8262857073550931 2.4390199354636835 0.6718575381787784
P 1.9149917112481165 3.1931254820969612 10.426790481068982 -0.7991405143988689 1.332316861822944 -0.2726986574851497
P 4.5704981535201625 6.2282977594325395 3.425971013519694 0.36990126938009193 0.3104108273239428 0.46854781281041247
P 6.902044172720951 4.08023053195043 10.46097004195197 0.8508718813348894 0.5293083798282368 -0.7212309464055837
P 6.435202276788308 7.981981941992192 10.503145438407477 0.4072092618019309 -0.5426403210504525 -1.5939836869739643
P 2.8710103917010352 8.414735180129302 5.781827245398508 -0.28500575698727687 0.4986703432274057 0.29007597242133265
P 7.08658653056285 4.19951356330856 1.4318663452597038 1.5498789833452662 -0.09927003594693225 1.3698122876652408
Ni 2.8208773389697375 1.6602267183474186 0.34692799714757633 -0.0903868745246895 0.11710140770139833 0.15397976878498643
Ni 2.2603052695624966 1.1794948306516895 6.79660749964393 -1.3445146894407167 0.2026237550449349 -0.5908927282989371
Ni 7.150836832775871 1.2066839441094068 9.022585036290886 -0.26670284491303103 -0.2576908712224078 -0.33628898064228535
Ni 3.0437444384825616 2.0836987512553975 8.962328106709753 -0.2555529989437986 -1.3573879458589588 0.9449408326968565
Ni 6.8122501029331435 2.108897087097856 2.4402606576114283 -1.5680553971439768 0.41259752269703787 0.40564345997670787
Ni 4.2414107963164565 6.989629297483607 10.573433523689246 0.23367393948252013 0.6045033771038364 -0.7915591025071852
Ni 7.402038424648342 6.102487886395157 11.295779454623593 -0.31674294018955773 0.4928475658980416 -1.3341310322135476
Ni 7.637604685478597 3.7491160358964826 8.327300045460944 -0.4313421502943926 0.4838281360082506 -1.5012918184651822
Ni 3.1261389969515516 8.673981695241519 12.393128801265917 0.7967738139389052 0.447196600828146 -0.6381390628804107
Ni 0.27367283509128704 5.2435991548876455 10.187480831097341 0.42460971666656544 -0.08668911395812812 -0.45052720786327566
Ni 0.2470391394979182 2.459637559733284 5.628943705824476 -1.4866820389718074 -0.672766423146293 0.8759537640041817
Ni 3.7609516178830917 2.7619085061378374 11.44275520254394 0.03261212960806641 -0.6790442857352047 -0.8075081696372738
Ni 1.454458489584834 3.485851604318765 12.690485526762668 -2.9442329649056127 -0.5420528239780987 -1.0700959639406666
Ni 3.487624214524133 8.725569197372092 8.140436931796325 0.6840918754614411 -1.2476509489424317 -0.5319023658076582
Ni 6.035801381438349 8.027306221397133 3.364862322009109 -0.19181458024457287 -0.2835772520708664 0.20703165430464346
Ni 3.4073295173753473 8.961535431787146 3.568103444940452 0.37726927970938895 -0.9578230879761633 -0.6233714176529328
Ni 3.3161900818932093 4.6822089576933115 9.287279373434266 0.6028465582267036 -1.1093065727018574 0.21886772770762306
Ni 5.186948350785842 4.688790341225036 11.591407203396953 -0.39343894749071595 1.2056820607098138 -0.688030548394215
Ni 8.36748375527032 9.4094694855292 2.120059077206425 -0.21217643173037654 -1.8908442864172987 0.22137686728272196
Ni 5.018714006833326 0.39325584663801794 1.5628767839303719 -0.5357865313534128 1.3327130688200983 0.07851274879492286
Ni 6.320591664125352 6.102097003119102 0.11358613486734069 -0.5820851573096363 -0.9928196586560063 0.11715900041221113
Ni 8.086184151141579 0.06856728983624755 11.333564231955037 -0.19166777025406345 0.7632592271212275 -1.6505808666427186
Ni 0.12525900032740586 5.010178206921324 5.4901501448059316 -0.25813387229709733 0.14719745575583035 0.997321917401734
Ni 7.570500026319496 6.128722517434601 2.362309442057227 -0.0005265619274313513 0.439758656492862 0.2107425274973274
P 8.737022986391391 1.7209681613846861 3.663404423766268 0.9058070999201884 -0.0695920492665253 -0.8287164282837728
P 2.10697903195256 3.318726278033197 1.4763697697849285 -0.21355608568672255 1.1711824842710477 1.4852900437202872
P 5.041557952710706 1.1874852120389625 8.270250176805215 0.36155186897413216 0.8847911597901537 -0.208342402696267
P 8.661855223375055 1.9501257545493795 12.30760626755761 0.8115579142266153 0.13892621688597365 1.2027422613551995
P 6.651678889253063 7.937066726480797 1.144409875017652 0.6864205235946179 0.8677619722220088 1.481460642671868
P 2.0506645692743395 3.456953512816898 5.776412148478828 0.9608567325961647 1.9544194400657824 1.119703599665465
P 7.269219923568199 3.903269491602257 5.910588741685546 0.25434972266431677 1.4353000849554054 -0.348227126840768
P 2.7038668847979763 8.792955656102302 10.122754196706058 -0.8603664510888861 -0.8151697999475896 0.7400511644358804
