# total energy = -381168.56176715705 ev
CRYSTAL
PRIMVEC
9.26902457770279 0.00000000000000 0.00000000000000
0.00000000000000 9.26902457770279 0.00000000000000
0.00000000000000 0.00000000000000 13.56615439682868
PRIMCOORD
 96 1
Ni 2.728439347039551 8.565904190742566 11.882689312153476 -0.195233890338767 -0.3886114441950856 -1.4679273840721234
Ni 3.203106096241706 7.729847441840297 7.826897836896854 1.2775546784803997 0.2722335449232731 0.029791629440135792
Ni 3.9366474331897496 6.323986675354486 12.83986347845761 -2.959032234701975 -0.06873638613444936 -0.2820209633273401
Ni 2.8055390935707663 4.905742492017785 3.4464272607272703 -1.5889443247778439 -0.3949931793517133 -2.0484991900610265
Ni 0.9567765251492678 6.765868884585385 8.55451812093745 1.0159441604886117 -1.2070707135272245 0.10507198734069001
Ni 9.004264170629648 6.076429566631753 6.522457810561307 -0.29524671798899477 -0.12407398236448956 -0.13099487785403893
Ni 2.2887260895624766 9.351426217585663 9.376519320952974 -0.03852309577586269 0.4252666335242741 0.2742613739865793
Ni 3.6656118851831065 3.503830330006883 4.969811843781798 0.1744102687251964 -0.8233230251823435 0.4745608517737117
Ni 1.1851930980957373 8.090736914212604 6.843826015891081 -0.9882788333628594 2.055339867131944 -1.2245321035367813
Ni 0.6693496340594555 2.584185517361107 10.61793090698585 0.37149355356787633 0.5171324065873352 1.0938007637567744
Ni 1.4203945970413467 3.5124412538500542 6.289784901523574 0.17556443693429766 -0.5255532836611788 -0.010551550263601182
Ni 9.264288117424572 1.1858604678661444 5.925438082979572 0.9439720410256839 -0.13981273325598503 -0.4946954177400577
Ni 5.442604396212059 7.791857216340637 13.106207973119766 2.2864972108401975 2.5757437453816996 -0.3765426859560096
Ni 3.0492495570890683 4.583680963648754 1.0549290072294548 -1.052610919782026 1.0190850201104387 -0.030994905719617584
Ni 5.27114597936493 2.4480050080996727 11.70850024066243 0.5474871076197926 1.1264905406803116 -0.5501854803875621
Ni 5.070573556283786 8.09306343938444 3.948293962585815 -0.2907940815342798 0.00299122141784001 -0.0727547632652231
Ni 3.875128916992626 0.9919153973661271 7.1073221392970405 -0.33383897643989596 0.24077146975924985 -0.07248608298486871
Ni 3.099469132312214 7.939104940961324 5.416137623400658 0.9991101196504084 1.259545643497489 -0.002940570685562678
Ni 7.808189237666437 6.088868597630177 1.0172077847621028 -1.2755972976437129 0.5495496465757761 0.4320718293715656
Ni 4.731206759007112 0.07035931185010184 10.891206778235654 0.21016300084477357 0.08831945047269951 1.0541242711027587
Ni 4.518871943722539 6.010434111558148 4.15753755816996 0.43624601535391316 0.790689298307722 3.1828912449766023
Ni 6.650868096509791 1.8128172910653972 1.3311913582018293 0.6957608271589372 0.14586202477385848 -1.1907460082252719
Ni 6.347845144646545 4.832878689723738 5.679809858273808 -1.3038200399348319 -0.017742154474769446 0.05461691601393175
Ni 0.20642673901155056 7.680786494690776 2.2148918203939627 0.9207909749235303 -0.8951233949540971 1.2642391923184162
P 7.775849610875452 4.687512577094615 7.705154760335229 0.15739085134906441 0.602309454776311 -0.3284957098501117
Ni 4.843019002624093 3.3297487792010703 0.6259233269575806 1.4205938890934824 1.584067456301517 -1.7363551820960612
P 8.021979289811481 3.8973374999078447 0.13607020786882543 -0.4854016511429576 -0.2507581486583165 0.1980477056384783
Ni 7.90649651245726 7.737503656150802 8.522990460700461 0.050369453591487444 0.21366047247507072 -0.1661210321332107
P 5.650675460185696 3.0995154774351588 4.324727589193858 1.1651095386040904 -0.38466351529093107 -0.4366944157452415
P 8.182092420561686 8.570696276455074 6.593436293253953 0.3065400315146269 0.28567347247826286 -0.440038649627126
P 1.7746474478079381 6.487353233735426 1.2197767557397161 0.7924571888414222 0.3963820892794399 0.49666873941634465
Ni 1.672929171968367 6.185006920667177 11.828438638136578 0.051989505693413686 1.0347607789744824 -0.4382283358912646
Ni 8.327171193428551 3.6798212998780278 5.831439050817711 1.2669105685029924 0.4808718815934041 1.1369808986886742
Ni 6.2387209181603716 1.8709989584104847 6.0883411901310645 -0.946111198855874 1.3013152712351073 -0.9322696649870913
Ni 3.726351803314755 3.641855375161526 7.299717428885779 -1.0728498725367202 -0.6466928659876927 0.22980700032794615
Ni 7.905069082670556 2.269687513056692 4.242448311722316 -1.7797841998139734 -0.7537829121996761 -0.28637821185477136
Ni 5.29124122467386 6.837991164912312 6.488420098465619 -1.2974323912409333 -0.5658638103547674 -0.4236704926817478
Ni 2.967774830951851 4.789536730745622 10.485090954186287 -0.15569392326261575 -1.5184562460596107 1.2226837374741328
Ni 6.142267448287345 5.6036815055195195 12.432485213259225 1.523927553586827 0.06354455752086476 0.6546925963637176
Ni 2.5254291704915026 5.732113110224558 5.950617388275563 0.16465216089716805 -0.2612629048443823 0.8735983763981277
Ni 0.24333043351015354 7.702133058319218 10.434353240488619 -0.08169577450859479 0.3076368641232315 0.464850052243851
Ni 0.92731029598087 7.318525206679298 4.621066647425984 -1.066899568490556 0.042969304472674386 -0.20888361991171767
Ni 0.5423361901165317 0.3071764017815724 11.501060397263302 0.6493449588985591 1.231237540581415 1.5069065935487984
Ni 8.939186348990352 1.8345902298249337 13.172627022617089 0.43218341524876536 1.6012416540879586 0.7117317486658968
Ni 0.6391585671681986 7.893575492180209 13.370801549037061 0.36830050055187535 -1.098564760804321 -0.3260541902881546
Ni 1.0808053431745368 2.9981401555053804 3.9483477229284314 0.4697914554095264 0.3239332872904099 0.9408378662720763
Ni 8.424477413563762 6.410772552581195 12.169993852118711 -1.3964658856970273 0.982033880894412 -0.02003095050894615
Ni 7.888922441836536 9.016925658218208 12.86200347059087 -1.1209960932246437 -0.30733167417798685 -1.2723600216533377
Ni 0.9509741157565603 0.5552877981747267 3.6858294816166106 0.751543481346196 -0.79958274414261 0.4385240127548125
Ni 0.3602786436518935 4.9815445751065415 2.27319954647346 1.7729437798533725 0.13708093614711875 0.9794296105023456
Ni 4.019975964244765 0.8342604119369217 4.490179678107322 -0.07642758413111998 1.1725078879506905 0.7715034694078906
Ni 7.969257077949308 5.682514559648875 4.097304655683329 0.481933490088699 -0.213321086857781 -0.5030751571633206
Ni 3.176290808105759 0.506338079320273 2.346768721538729 -0.9749584621048691 -1.8080766190007636 0.9481400563604445
Ni 7.602611541307238 3.876769534344877 11.439496462845693 0.6020281760904663 1.2092826335768785 0.8964881365121077
Ni 5.1803373454666 4.604341619457611 2.756601424448278 1.232237185490523 -1.8791395963858604 -1.624796815700079
Ni 7.601934902512241 1.7239366142815764 10.97489680124964 1.114686606066848 -0.7613535254580823 2.0164462753905403
P 2.0889229955222177 1.2997397039664698 12.818482619438187 -2.3030098637832404 0.033118894041155866 1.0695460049744676
Ni 7.708612106506922 8.851816523214536 1.5178352180330994 -0.193344386625538 0.16413254094827218 0.5415329469188868
P 2.752455389749623 6.9821615733694555 9.928145854415051 -0.4339317653984398 0.833435688136313 0.5684616529889306
Ni 1.7719965067754875 3.788287425618383 12.556982117026237 1.349457892378605 -1.8404815176940301 -0.9683831228801968
P 6.381222902191497 1.585105163987691 9.417109306530618 -0.7943510634300256 -0.3569531938598562 -2.089476146694021
P 6.5458593169411285 7.266516709710477 2.639526228669669 0.6727450829900543 -0.41466366119744713 -0.6591799427111099
P 4.369538688569329 4.461394722246215 12.333438270306202 -0.8953519660251354 -3.399175271117449 -0.8986769166333104
Ni 8.742859139170966 3.0380525753855694 8.737729660963417 -0.991359529170712 0.987336781164564 -0.4588606674296355
Ni 3.2232662247227584 8.197200930641738 0.4400905067778469 -2.0020434697016487 0.5776281499795471 0.8902035890549765
Ni 1.4515941338078857 4.347432064924589 8.574419643632469 0.23676132015859222 0.5298827642744681 -0.4747385150021566
Ni 5.345659668035817 8.859287357033262 8.509288988553017 0.5656424383725807 -0.21095181529465606 0.1868217550156718
Ni 4.379057976822221 6.63244127562688 1.558602241980393 1.6769742690345828 -0.966978015002554 1.3401415000736856
Ni 5.424789330952021 4.663839488294335 10.27079944781098 0.17596295792429698 -1.2426797209800857 0.207268710016114
Ni 3.0600479707352415 2.034662125578273 11.142235136666962 -1.6865058626741016 0.6575971716050222 1.1217815652404166
Ni 5.12914452266161 8.925672111139605 1.5722898105909542 1.450390917850257 0.2792917373216351 0.16798868146956875
Ni 9.02379400543865 2.0785324189579604 2.4099185860635144 -0.04994573579050753 -1.2353194239602725 -3.2567199580322947
Ni 9.138090347645479 5.418532739354453 10.246869607029586 0.16103616141113555 -1.927277589543668 -1.0235443414333727
Ni 6.08352037044233 5.997216482494248 8.46320432519902 0.6609565749955585 0.34470394417885797 -0.3586547499319952
Ni 7.658151536644462 7.959756327745594 4.630942793125552 -0.11386258904912648 0.4396964357963589 -0.4113145422195561
Ni 7.756162202648439 1.227793535106733 7.674970181761185 -1.4433661497929917 -0.8174192581033987 0.015979406147391836
Ni 4.269794714967212 1.729720485625106 9.405252370276383 0.955409336328348 0.9897245646704503 -2.778067195577396
Ni 4.611432423268188 2.1708704419134746 2.467276237122641 0.36223423975313745 0.6069502959824321 2.08687213341227
Ni 5.621274114189422 8.98177751697676 6.082141139583488 0.9124932536911124 -0.19809887059138787 -0.1279262662310442
Ni 6.458711947755449 0.4988060699392601 3.306560460386795 0.4696634144720943 1.4105498745939191 1.2944871925696804
Ni 1.2201187827470499 0.37234042534954565 1.1527051669113288 -0.9414055658500884 0.687568521156132 -0.35247844591795424
Ni 0.4907234804976612 5.204714880135643 13.524560763431515 -0.2287991278887221 0.15454901102489513 0.8326545869959144
Ni 7.675512419699641 3.919750001364022 2.39013941449307 -1.959023257386381 -0.259974525050262 -0.3950489722903132
Ni 9.044074631239358 0.6747432794677884 9.44281694622818 0.6132924361503761 -0.7896523724027755 -0.8070538557086746
Ni 5.922035424052954 3.620110243475757 7.933446201449747 0.4186591555100854 -1.286060659068882 0.8283796137696443
Ni 2.1132727231174933 2.4352879063635795 1.8309289651122829 0.15853756335899793 1.1792117823334272 -0.17457353377593807
Ni 4.949001029774599 6.978055395476533 10.778825416508909 -0.17632342658750924 0.34473171209299985 -1.130712292071143
Ni 3.7341099768957395 5.59514473387306 8.523872871841332 0.7131018895405461 0.22619408616570721 -1.0813795072742862
P 5.881233177812222 0.8077686127591308 12.873860406845106 2.039367660073404 -1.6670418404122194 0.09994366497518917
Ni 2.7694825879195974 7.368142295304158 3.129440523320712 -0.5490207706554996 0.5849555368788958 -0.9169170937904207
P 0.9922954273742757 5.12134927298227 4.506038979179083 -1.6352532351467126 -0.04841412963732953 1.1144472363625322
Ni 6.993562473613912 8.736611816597986 10.517961696086221 0.3831398795575531 -0.8020106368578123 0.2307338830175897
P 2.2191342529483427 1.0063565376757728 5.7417936795052995 -1.033979677834084 -0.12327899726701996 -0.6796677782518166
P 7.162453370649891 6.483497319506407 10.292736448305742 -0.12571691728455123 -0.3617909815681317 0.9572721005686997
P 2.179110604773086 2.4374753961665805 9.066301752203755 0.43709730761061494 -0.6275108937426032 -0.1424583984089482
Ni 4.032739411103805 1.2966160426799807 0.15112588450872114 -0.909621331459956 -0.6611643201309904 0.27787454525913435
