# total energy = -340897.24314725917 ev
CRYSTAL
PRIMVEC
9.04345993151649 0.00000000000000 0.00000000000000
0.00000000000000 9.04345993151649 0.00000000000000
0.00000000000000 0.00000000000000 13.23601773671981
PRIMCOORD
 96 1
Ni 6.232137420959407 2.0137252424787606 11.399228410119239 0.3719080153974756 -0.15034345758397977 0.43476840236712216
Ni 4.729367647511553 0.2195770084807825 5.984824121796894 -0.8701595259199078 0.9577215294012925 0.33856260716781045
Ni 2.716917532840463 1.4949019635707412 4.71591369262169 0.18278358039055617 0.24523387640597766 0.7179425054622991
Ni 3.3627019414781265 4.3285976905987456 4.7247681439443125 0.3009334839611269 -0.03754581946425792 0.45577122987103447
Ni 5.1845882748497605 4.568014240813333 2.3862027359426627 -0.8758532338705755 0.8097049201782766 0.9422982528676869
Ni 7.39961188520744 6.224911696715943 2.465115964664143 0.5407510744475397 -0.36097028543904924 0.22904363979936038
Ni 4.970891323819667 4.630242286519557 11.547061844672305 0.015935697393649972 0.21769221934228314 -0.02229223573929709
Ni 5.557640028000096 7.943838242212944 12.321844874493996 -0.0876144539858749 0.3820934405709097 0.33913802005530624
Ni 1.9177741358164966 6.527677681630736 0.49369150459940186 -0.5808924225531157 0.04035346411638211 -0.9077793931552107
Ni 2.7315769808988537 1.513621925002493 0.29697093598461427 -0.9709984490158567 0.026246335291038668 0.6936823473633538
Ni 0.3612301427234817 9.253810499833012 5.027356877050378 0.5325582542241022 -0.5104236271085919 -0.764754066499199
Ni 8.574447725593371 2.3021754308010576 1.4192452846616144 0.3438379966341369 0.5206018531931743 0.21173934419295792
Ni 6.861471776532165 0.6271006210444272 4.882515018942541 -0.08222696442171645 0.16435262737887824 -0.7734814190698678
Ni 0.8953983639297602 7.433642423790862 2.74251594966593 -0.02937331095579457 -0.1999400375651847 -0.39246449939258865
Ni 7.46363957937981 4.0439095814820565 3.5736315938617875 1.1956347037761408 -0.86684074595932 0.3047448872874171
Ni 7.708708291862438 3.713054610960009 12.586975597817299 -0.2753893169434354 -0.09865837050486234 -0.02542743893416911
Ni 7.8612262385032565 8.797025353979011 6.98704202217089 0.2369083872594178 0.4833853920438772 0.7052489691550307
Ni 6.711956258488129 0.7855565032775587 0.41843545095183393 0.05667765519770239 -0.6329994276610003 -0.3204630693536223
Ni 1.9620870879979377 6.4127805270459985 9.066592798596236 -0.10838305399179399 0.8990669529828775 0.6953962447306669
Ni 0.33971303922852175 4.722982965013574 1.400370680070209 -0.9088500005115703 0.29625099088379303 -0.17369498782572668
Ni 6.440055601286656 2.105480183873231 7.091500311306026 -0.4507184979384754 -0.6918262679912214 0.4151768533884398
Ni 3.365243153633837 4.394868162759073 0.34309077139990307 -0.028889172230524438 0.28062151187665213 -0.12361298356767099
Ni 6.160458959941018 5.671108315963472 4.747745766169334 -0.8154886167395892 0.34993793888428765 0.17916963778705272
Ni 5.1363866350279075 2.9484753166375666 9.389154012292652 -0.1140579928893842 -0.9464503273628475 -0.6895577836720189
P 0.3292814085466253 5.512486034073169 12.320376216650269 0.03706939404847164 -0.48240143086405307 1.1278797077183542
P 3.9834178800245743 6.326967138627691 12.634903220812399 -0.4959434312145459 -0.7884943475389323 0.05917831013236905
P 2.3918865503194042 8.555474547292011 1.4522557209988995 0.9150952100903336 -0.6518476707157548 -0.01837747406592319
P 6.352777172408475 7.738813968966932 5.7921866752045394 0.10295339833579044 -0.6594244546217483 -0.011767682058889412
P 4.550270973021499 1.0864631528926552 12.460784066502072 0.8225195554444414 -1.2137044167936581 -0.15766621649763815
P 3.968514258556204 6.244282787240974 8.071164727711594 0.6957461718709179 0.3305142829420372 0.7830338386449933
P 4.870635530374063 0.9723799096745157 3.8098422376379424 -0.693718857028244 0.3350016292894295 0.0861412118744581
P 0.35060226896763885 5.50100084034451 3.6401163960153187 -0.7741650754004539 -0.13065420668516853 -0.4772114020226813
Ni 1.28995003800176 0.9418763203463522 2.557238070519546 0.016583101169661763 1.2030168551728249 0.7625832841001253
Ni 1.876282743039261 6.52595942430125 4.872747178197403 0.6473909204959819 -0.46319606158019583 -0.42908137928467394
Ni 5.75769944190986 5.609205834803887 9.369630991645856 0.8682088299514402 0.3701936038095302 -0.9236307583651706
Ni 8.53746901917094 2.3020940396643974 10.24929644885928 -0.07342916362442838 0.4066312778112739 0.25322897879631223
Ni 2.4906411294666166 5.214277952811327 6.958677211044952 -0.6007174276988428 -0.4583539029965461 -0.5415725419075705
Ni 0.5451307029683894 9.038865551374135 9.058121789961879 -0.17517954279105313 -0.11890683634125326 0.23647669903863788
Ni 1.3991136391817967 0.9539674258701454 11.342975378189808 -0.7034713084293175 0.6323221990883174 0.3131529088454542
Ni 4.0203061518507175 6.9419947410675835 1.641491018078875 0.9565521916835398 0.5109198500187201 -0.46812615189196155
Ni 5.611728960040341 7.924150630600903 8.027128505394796 -0.3483608242051549 -0.047823033020549896 0.3995003231934474
Ni 5.341447082112435 2.7864074766286664 4.974558446699171 -0.2124620812915954 0.5100927261317345 -0.1650985044059673
Ni 0.8342700029144061 7.450155781073171 6.978531222314164 -0.5010177604136596 -0.36144054020724853 0.4929293269785704
Ni 5.180500631097514 4.613358147392465 7.128018705633349 -0.11883073168767923 -0.3010255294543009 -0.5030291344167337
Ni 8.282859456779857 7.0239013549262195 9.162540287874648 -0.7928207428284282 1.0659279486059061 1.2274621326993829
Ni 4.719094277373162 0.2679830304902485 10.251719191693853 -0.8593395524862685 -0.01610179065786904 0.40407225883484604
Ni 8.33018388101771 7.093002429950381 4.893739761033888 -0.1505280627909601 -0.14482407042764736 -0.5242155386863616
Ni 7.346798080974866 6.236984715320479 7.111553278687073 -0.4000780500737884 -0.882214657312229 -0.6947161879445067
Ni 2.4752039438801434 5.180970890998214 2.469165625885949 -0.25003798266284033 -0.11545641589880762 1.3639116059100898
Ni 2.3203437411954484 5.169169176182545 11.148352892208916 -0.37682602152438327 0.19768518009273697 2.22349078521099
Ni 1.0109412215319986 3.3292049670128083 3.829960317928317 0.03362745824645822 -0.0546822220342284 -0.3161243327689523
Ni 3.687108925284793 2.7903685119461095 2.863956047292151 0.1265101026098079 -0.579447462576473 -0.43758735987315606
Ni 1.2631813975003179 3.3542101328866214 8.10647853321635 -1.3961663521787375 0.48431098918194015 0.9745409149514763
Ni 3.5424859188999744 2.8003615348360054 7.307287205856352 1.0649123628571981 -0.2246452536213486 -0.2098004752990322
Ni 4.211891844088235 6.910876196484657 5.914236302009747 -0.2772394827782967 -0.33253568424744023 -0.1828907953923818
Ni 0.695150846059715 7.336895492681258 11.218517478085433 -0.1310748391623549 -0.009573759731364156 0.16886748453009626
P 0.231339836420048 5.571024348250817 8.0593051347543 0.6630695075735032 -1.331908827751248 -1.403825668496208
P 8.537839801015723 1.6386567978311886 8.040125765573402 -0.33345691051012893 0.40121910565676705 -0.06562046621328699
P 1.6148634555476433 3.0217002092524914 10.5453729866866 0.8194517151523952 0.6914843112707704 -1.5658365351157872
P 4.082262893768076 6.169149724644358 3.732556831649657 -0.12940465054878358 -0.1469899677307146 0.24712826521521308
P 6.726597619627263 3.939032580166102 10.421444128970514 1.627164030380675 -0.08224419081289706 0.47331772339522993
P 6.436555782410286 7.647963373535348 10.24905860587104 -0.46431706255851646 -0.017545465082931075 -0.374014263107201
P 2.3249197317676544 8.439347482197748 5.788507795827518 0.8255071773178558 1.2032035172623343 -0.22651136029580993
P 6.826066632085156 3.814703097188458 1.377075632412214 1.430858247133968 0.5076460643634547 -0.13079998823441344
Ni 5.155034248782628 2.81762549926751 0.396392018106474 0.035917796942531686 0.3922068748558277 0.3101354621753691
Ni 1.4982028263352771 1.1626723871851057 6.990417041304382 -0.304112910130373 -0.1897078183142152 0.16815220363062655
Ni 6.89609918345109 0.6929559984077893 9.384508387081304 0.3379010623244116 -0.22829442033816166 -1.2980684821630355
Ni 2.6627833835020733 1.49196283919136 9.305211715671557 0.4658039315166881 0.2785006088789075 -0.17575726967139407
Ni 6.442388813870904 1.9657496891476285 2.5884352932012438 -0.044754935618187434 -0.1539185765297478 0.57232756370224
Ni 4.168691237441144 6.8924365823014 10.495566132780622 -0.9429186600605051 0.420785714934785 -0.4120311086706065
Ni 8.262674454888229 7.1587031641540895 0.22076441473005254 -0.1629251509037323 -0.3554673533429491 0.23807052588831903
Ni 7.483770320513663 3.9157637585410305 8.324819300765867 0.8862841993959122 0.02429203977814526 -0.08664026299806368
Ni 2.944649933214556 8.361374773277667 12.33157382836273 1.04961609881976 -0.3027882777816785 0.2673350791803912
Ni 0.16594748418968375 4.7742774680285 10.08636134107197 -0.39271286795796884 -0.4522094806617051 0.372930543124719
Ni 8.443199995999645 2.3900688149340024 5.738170995187288 0.7657161733021522 0.38227676022630935 0.2968426017212049
Ni 3.526207691568016 2.8446564000981893 11.663604908909496 -0.6395122890788535 -0.4024807459780101 -1.2668424342692184
Ni 1.0228514578632146 3.193625420256855 12.642725813391367 0.7308908380928508 0.6262759928942375 0.3813095112170336
Ni 3.040338779547583 8.420925954933749 7.97888255262076 0.7377009190361489 -0.17489389322983429 -0.025995138512181038
Ni 5.7146164002379445 7.8075171317674235 3.4456395097344528 -0.4247863514537458 0.36150661755849356 0.165793730700779
Ni 3.1686202543830415 8.463592997462737 3.6572971606182376 0.5368933912643463 -0.9361309477147105 -0.29240590610609
Ni 3.393413530377754 4.432299042162947 9.289526739291254 0.14485312389336988 -0.25466853945631623 -0.6655619349780537
Ni 7.323556389728681 5.8575301927529075 11.455654172127582 0.17804400882304175 0.8742110702814622 -1.1082951007182076
Ni 0.6786709495780333 8.960666755963333 0.20656618311273356 -0.21669874508076228 -0.1244421643371857 0.378417020160587
Ni 4.52403589663816 0.6770765876454642 1.6234637856546945 -0.05979871732518733 -1.462980067369177 0.37581146421693984
Ni 6.144849948621596 5.71839656636281 0.22985580469495112 -0.771188252160317 -0.4126024077930443 0.9228067198019785
Ni 7.803212444984084 8.8752512797687 11.515692796257659 0.5286141819746896 -0.2039733270942939 -0.1704551407321903
Ni 0.19073470268644144 4.79883046092087 5.9050508600647085 -0.12288356160081419 -0.1638936854645887 -0.03473380393675953
Ni 7.9548893498794175 8.735556958881611 2.5425460660064907 -0.3092962541035254 0.43883280224448296 -0.32346971739043
P 8.44339895211148 1.6302735107552302 3.6345040249696448 -0.15739573644507088 0.043305861876486704 -0.3848964572373436
P 1.920505260624414 3.089625634524901 1.6634494424037238 -0.4616724258468178 0.21817661517786943 -0.3791762669241147
P 4.689187556380503 1.1158363097672106 8.164438970323713 0.27663861596950423 -0.573000935620181 -0.1175320674809137
P 8.55946271298834 1.545029860293543 12.591555205773359 -0.732542514763661 0.24178602706669325 -0.7130039305101011
P 6.280194365427199 7.699384484985078 1.203748685165376 0.507298708326365 0.738814720925618 0.8778126715897915
P 1.8878764582834668 3.0888117231583028 5.991998298320473 -0.7702811669650154 0.8583674183809862 -1.0690441256373846
P 7.020329188372817 4.080408984544158 6.002136920910395 -0.35798163512437053 0.03014747011765776 -0.16890785084972845
P 2.3328146720236544 8.390404278686328 10.218629172911832 0.7156225990798708 0.04997350370464942 -0.8734736778948053
