# total energy = -340889.10406451894 ev
CRYSTAL
PRIMVEC
9.09594174084751 0.00000000000000 0.00000000000000
0.00000000000000 9.09594174084751 0.00000000000000
0.00000000000000 0.00000000000000 13.31283016961675
PRIMCOORD
 96 1
Ni 6.50713673472835 2.1924130528216725 11.73167836049006 1.389745022033426 0.6289314282392137 -0.7612712501569212
Ni 4.923878906721089 0.688510040587533 6.017745047297302 -0.9642086797875329 -1.4608108276320002 -0.4368587092372476
Ni 3.0651686720682436 2.0552553458636833 4.533138166075874 0.48132542419105495 -1.3010579038086625 0.8733080988512186
Ni 3.651738673301736 4.619810667056747 4.3551324035169205 -0.12004094994569649 -0.32044455741086103 0.638203854680075
Ni 3.972106840737729 2.860482692913417 2.5574213740104152 0.09027837397128323 0.14649837280627673 -1.4343899144363104
Ni 5.617035154398889 4.530252023731038 2.6940378724291114 -0.30765409051441206 0.9360453299794395 -0.26715304507657217
Ni 5.4736649191663265 3.2704004077332813 0.3192593721260794 -0.5414079913052483 -0.46550748332219183 0.11627402670409652
Ni 5.886293224653574 8.418448801023748 12.581037398143865 -1.2436749950138193 -0.25183415533131465 -0.5357613345424321
Ni 1.9302134334323902 6.726439892415008 0.14720508431098284 -0.4980044275086326 0.9809715010681687 -0.5578540526764134
Ni 0.7865997677620311 -0.07757292076728016 -0.13660558328849168 -0.4922017047839265 0.1700460782192297 0.46262964755376457
Ni 8.492780837714555 0.0996733306482952 6.694703241752024 -0.10693989378736422 0.049090072658431586 -0.15894662587195849
Ni 9.074184343984712 2.5609533282256676 1.138763709482946 0.13107046828698074 -0.033425883758613405 0.23481782327897624
Ni 6.931735299672903 1.290086526663475 4.786668443300446 0.7461505924653988 -1.1913795280442128 -1.5845076291627291
Ni 0.6346575169424123 7.5180960942441475 2.3872035568521803 0.17552792726940739 0.48328820434438063 -0.26340463377773343
Ni 7.987228390421961 4.100878089322134 3.2035597887393106 0.9470830758508398 -1.3660289093634086 2.099403947330694
Ni 7.847014447006787 4.221908691403373 12.464123619337988 0.18002093004375447 -0.5495972119842599 -0.812383238341388
Ni 8.288949877092394 7.599331950789131 9.235443568027824 -0.3611674890515199 -1.4457207660680973 -0.49757942415607215
Ni 7.276826237021477 0.9134690549083495 0.49095982780372216 0.31092273396335485 -0.591350384661646 -0.185762460513222
Ni 2.0283313580265823 6.610321098925672 9.167880731252009 -0.20364551144122994 0.5111821025411712 -0.5325849936969796
Ni 0.10048105028340823 5.192864098720668 1.1229349514984448 1.074871530952439 -0.3414586977686829 0.25446079432088436
Ni 6.792485526092436 2.030341561172528 6.97713496456903 0.15893402746646823 1.4372368969668021 -0.11792904580901625
Ni 3.563126007927061 4.885548607820567 13.797151177819087 0.9780733535847671 -0.8945628944649368 0.10409805346319491
Ni 6.161445465218542 5.769474043642801 4.867157523020624 1.4241808351137923 -0.8234698351728528 -2.436871264551797
Ni 5.282331782628008 3.1532355809327073 8.888271479186978 1.203766845964972 -0.059509982440174934 0.7873406935504633
P 0.31451310967560664 5.834728330380423 11.984955770531569 0.3445828452199614 0.47843113336239546 2.14440802284521
P 4.061792827249153 6.6162880367706505 12.632384899407114 0.8535291164520784 0.22967998783177862 -0.8975083502465058
P 2.36015131623518 8.715322150695135 1.2975151823616369 0.5483479129581912 -0.25325417560729285 0.7026035611123835
P 6.766361981136979 8.360798721661737 5.737856549817881 -0.4031618312054347 -0.8865204837764346 0.6146654052385028
P 4.649763603525521 1.3417150925294834 12.578987172853836 0.23412465386669354 -0.3754782492472373 1.0706289536260012
P 4.426676534034731 6.271924774769026 8.077546544891046 0.4112438368826208 -0.34161296395836005 0.77658474058554
P 4.929099977335445 1.0267317226609112 3.581537103799046 0.23986567011552884 1.737874189843749 0.6921548549752338
P 0.516891448386422 5.55845728896952 3.5376846586093675 -1.0150627863249229 2.988480621870079 -0.7462755480790374
Ni 1.2794533706561872 9.378370830892933 4.78439172905868 -1.1011134953681037 -0.33480416856664275 -1.3164513555455972
Ni 1.9735737881686943 6.920756497875815 4.635620323563391 0.039898121746518384 -1.6428014798076158 -1.1171103850169923
Ni 6.504253321166066 5.611595781180448 9.010562778806806 -1.0624297056446608 1.0353318209866038 -0.0215674417581306
Ni 8.79588490754419 2.624697688618372 10.186605296313932 0.4763066308202249 -0.23147153251456262 0.2878195722869882
Ni 2.8942741168373463 5.599416315060894 6.6563356494899715 -1.3364036302978082 -0.9343291186192813 0.6919717924301502
Ni 0.5035167755095052 0.3680036148356203 9.029679719765332 0.9511996691223747 -0.6958485017767371 0.8086142582172591
Ni 1.6540879270908773 1.4065600618844474 11.10646788873941 -0.39442265156022394 0.18253906847991788 1.1215771625390942
Ni 4.3564922468215315 7.317821646880198 1.4427382609463684 0.17617764503826433 -0.32461257274562155 -0.6689707035492866
Ni 6.060125769097776 8.00787617839163 7.909192486215185 0.13100310538415502 -0.054106809146732625 0.33404517891343116
Ni 5.565570315485944 3.1958955481475737 4.831505978991056 -0.4556249341011572 -0.29728997367126864 -0.34534492019696655
Ni 1.004191978789176 7.493227789262177 6.633291080846291 -0.3661261186083759 -0.13729485193013774 1.4083258703594068
Ni 5.55370920733068 4.578496899233736 6.886886848852089 -0.8523052713473064 0.4189352919896076 0.8391525360154323
Ni 0.975003101434697 7.781951175047738 11.157443365981532 -0.22903926892398618 -0.5532353229574796 -0.10180565788459241
Ni 4.980200978574916 1.0589950283562481 10.432505897525749 -0.15769681262525745 -1.5105315918958953 -0.33529447793949996
Ni 8.405141438116424 7.285949466683846 4.75153536795558 0.5872625877455177 -0.006778456374414133 -0.8082995551903177
Ni 7.554625396660971 6.2869967503927 6.772529939296553 0.2128325772571367 0.6167713958379121 0.6498679212815647
Ni 2.568375616764544 6.13412125594062 2.320320186931576 -1.1061626277562369 -1.7668294394255186 1.5142928587105402
Ni 2.552048401167383 5.457501430522228 11.444707762696462 -0.21076772430830798 0.1933698405468347 -0.9795779631547517
Ni 1.3865398939015219 3.7481283689469254 3.877561802097054 1.0549341685985638 -1.8721405393602082 -2.274780950844534
Ni 1.873909553462236 1.5025131523214676 2.4972871929327605 -0.6705383051467226 -0.3754916189836759 0.3626170770138529
Ni 1.4060961688507678 3.597617819372428 7.938614219680687 0.1782790076519833 0.01925910533992812 0.1696401010300627
Ni 3.958844957539589 2.7154479003247087 6.8008592501474485 0.4017862910141467 0.2693328263367103 1.0167468588955653
Ni 4.644751739573413 6.916208526957385 5.920614941986591 -0.6509945786868402 2.4341492376349434 0.4083433754063741
Ni 8.239522529150905 7.18164630164059 13.436106868082849 0.7674272424559879 0.32147994065391083 -0.5661242631050056
P 0.3215260808318245 5.9294716605531415 7.967555687417203 0.04342978904886069 -0.2908953829988345 0.029709868359606897
P 8.97533874404357 1.887544370275687 7.851134908658884 -0.6787375531280633 1.9315170815463125 -1.1586606976549527
P 1.8665964162254018 3.537593699190999 10.46634734912978 -0.019455794731766493 -0.29217759214536776 -1.6823548166202058
P 4.329113461892587 6.431112852855886 3.5900308942863046 0.490237124858388 -0.150205903564851 -0.359392142318652
P 7.074086789419739 3.897238143478546 10.07469701430088 -1.1361355199692433 -0.4317995495467854 1.2230328932834356
P 6.365922237711122 8.049635647364648 10.362427123237856 -0.38517670748192373 -0.29707605788824964 -1.1403914670321198
P 2.858081364268487 8.379218003881377 5.903893872107895 0.5574123371533045 1.3806520585932223 0.5550047561530764
P 7.329500836198725 4.002751068786105 1.2219824813483644 -1.4396449921876626 0.4176379133344227 -0.31092273396335485
Ni 2.629991526767423 1.6085081625463793 0.14949999043642226 0.35348657546749446 -0.23873952693088563 0.20932816364830403
Ni 1.8999057552319776 1.2777342376490208 6.820336390402714 0.14375603417444918 -0.08304714633016665 0.7610385653208248
Ni 7.251248448576231 0.9703914589234098 9.03608326281848 -1.0708837499492847 -0.35986856773443826 0.7147337687170142
Ni 3.105090760790215 1.8808224692582485 9.114017292476683 -0.36175498612387375 -0.1965739493064292 -0.44606968631255434
Ni 6.582778587043665 2.2142796969974805 2.3699103522319453 0.2773045316882773 -0.5899092813397453 0.7477251360413704
Ni 4.328249347418085 6.9418863707628375 10.328825804498315 0.5939117176309191 0.38702250244141084 -0.7139909770137187
Ni 7.163236115362788 6.263183574663805 11.356377071518729 0.10639276303464257 0.9279304141817889 -0.040865113645478006
Ni 8.143578534655722 4.10670858803956 7.751461578010589 -0.49611672356761655 -0.9577197296290795 1.2343822568579839
Ni 3.2473785789441925 8.5853593337301 11.878745186485123 0.17662038900263777 0.38531528994231706 0.7281086473620235
Ni -0.1288285530179777 5.10411499421844 10.071835430999002 0.6360312725087885 -0.030979736210966 -1.2464551288621177
Ni 9.13623685919576 2.404794198770481 5.446438946060241 -0.38560351060669723 -0.6279546661482411 0.5226235116088934
Ni 3.6335467896280194 3.0260197384024043 11.619650921638945 0.6504819007164798 0.3347033813227204 -0.06526591108734567
Ni 1.3907695068556614 3.7375225007651482 12.676476567867102 -0.9164499243460151 -0.273453019152671 -0.3743719035569359
Ni 3.589786213450893 8.393598687925449 8.121332589705316 -0.10936932916446326 0.3306230406057596 -0.5816799514514176
Ni 5.850336966572472 8.033217472349117 3.779232851652247 -0.4102943284851579 0.023786818006952582 -0.20105358234433762
Ni 3.3935230764369977 8.440624707222009 3.448768188777341 -0.35352514201491375 1.208069587105384 -0.15115438352104937
Ni 3.37307539918774 4.532435049771885 9.07740703617751 0.35913091823746535 0.06698957864667172 0.24374366501369635
Ni 5.181748857796027 4.916929607157729 11.566599750469651 0.25621222979435226 -0.5632862794355783 -0.130831098582665
Ni 7.829040865937155 -0.21950963556635458 2.858930015641865 0.6010647837359326 0.9152913852615397 -0.13761418294276945
Ni 4.844016537393472 0.4279495099172524 1.4876685752437147 0.18715034199968414 1.7246453498583008 -0.8519512304419973
Ni 6.010116280878728 5.836884068595759 0.5785528380984856 0.3491660937152696 -0.33951057290337655 -1.1180380390375841
Ni 7.999917229284378 0.05310665641449822 11.147978128906097 0.5584240662472705 0.21612744595832456 0.9151425183885014
Ni 0.3338929233532173 4.735083537955255 5.707144102205728 0.04682338811144194 2.1476380997467337 0.7893695510550341
Ni 7.460919003857655 6.289625477583552 2.5696026593183365 0.24566556462675757 0.8286215545771213 0.23629209383165756
P 8.771162137631608 1.7329224549909297 3.369504332422589 0.18834976162442402 -0.03419052983877983 -0.2590805524810828
P 2.121373747075808 3.6183019911094445 1.4095626322847945 -0.3307035161347079 -1.0615642723205716 1.104075406209905
P 5.175099724313283 1.0483800642326344 8.206307787939432 -0.47548104959513593 0.5356469204517549 -0.3362172468640855
P 8.82953079639873 1.640853331718248 12.356423120018663 -0.2085951421370214 1.4937978240809822 0.3707875286397872
P 6.654490992485457 7.912641667359722 1.3023833304327237 -1.1105252756003066 0.5409284805656683 0.5375418234816226
P 2.3081680086375336 3.594106785823401 5.858576980282483 -0.8852886682518624 0.09742758342155479 0.5159692395171694
P 7.3074886569535265 4.1295575939337485 5.735779946296526 0.4376194986626722 -0.6366866467046003 -0.5779356539176369
P 2.357295190498406 8.90573659710793 9.851720915300497 1.4651143401033606 -1.0170674754597775 0.023459516574520885
