# total energy = -381162.68858138536 ev
CRYSTAL
PRIMVEC
9.29849498064609 0.00000000000000 0.00000000000000

0.00000000000000 9.29849498064609 0.00000000000000

0.00000000000000 0.00000000000000 13.60928731046031

PRIMCOORD
 96 1
Ni 5.463702675228448 1.7172832500074724 10.867287790753439 0.6735608940231304 -0.3769928861195508 0.5015774895718716
Ni 6.365740376382717 3.45935628767668 1.482037835532401 -0.27483498710186216 -0.410784380747699 0.21988125657380198
Ni 0.548703259917567 2.8442329481467574 3.5802227748938846 -1.1090309504429674 -1.373577154024312 0.9579048490566924
Ni 3.220924278966171 5.063337376146928 9.040526850200965 0.6676995501463469 0.27603389250596977 1.1379211511147564
Ni 7.999737006702957 4.525949454791087 9.781171503543542 -1.2854381949935347 -0.014408719226162282 0.3105915758761812
Ni 5.27617062813097 3.703553363285267 4.4333206371804685 -1.159866030816964 0.5802810142213619 0.15487399846448166
Ni 5.22223935714895 4.221591116552558 10.883170550057645 -0.1846561148229207 -0.7960724169965064 -0.6990837208845831
Ni 1.6265950283027073 5.616737305887428 1.9193990566580887 0.17797998835432574 -2.2254566506881095 2.776372838594109
Ni 0.835582287260924 5.2319748814107045 9.761302479434166 0.7969064828620276 -0.43897395580803755 -1.531139497954234
Ni 1.5188998592486118 0.1702247583597485 8.672967571318006 -2.3256566546484785 1.384646524464596 -2.3477491156721437
Ni 7.268624240581703 7.345773853570982 -0.1905382505299762 0.11943982602658783 -0.9043580261784877 0.6491019896498176
Ni 6.030074005489625 8.830390161766024 11.999879815656842 -0.4886039601303392 -0.040637828126020334 -0.6941418034982755
Ni 2.3682987802254294 8.333441395151702 11.986175693730413 0.7573469754018506 -0.787365890361444 -0.3794961121573787
Ni 7.363812933864968 3.555502725944626 3.6373676057468325 1.1799016093116002 2.0150594223453426 1.7807617332358945
Ni 5.579757191284757 1.30306319338057 3.971380704229476 -2.2385325100354607 0.06998902759462786 1.4997833522404558
Ni 1.1391121295952298 1.2564312409711165 13.398003383089721 -0.22661548997384195 1.8898107029464615 0.30507681670553916
Ni 2.665413590861374 3.65771178295055 3.9195834378492442 0.9580408604139242 1.9185790333284056 -1.3047847178409464
Ni 9.513848141028165 7.433960780121581 1.8888060782687883 -1.0410836358687168 0.49083953432907723 -0.13821067887618776
Ni 0.8258913957751548 0.600450314424815 2.1745051265970385 0.29919747510662664 0.11239526047498062 0.3179814405823491
Ni 3.96725868139735 6.616874129258991 1.6231387777123594 1.8484725063193068 -1.024370951099726 -0.4585310520043587
Ni 7.376068350270883 1.6380693711288816 2.829098717689803 1.4992845582271663 -1.6524199767339862 -3.1585860925723344
Ni 0.3532024026077454 8.402901152778545 13.4061683915465 -0.5406073497808238 -1.1165393430048707 -1.413184741113605
Ni 0.8908646295659933 1.7196822617166727 6.262585662435607 -0.2009286267306991 0.46463510801956753 -0.7105181879737699
Ni 0.6853734692315023 3.579762499391538 11.814222345150739 0.47653674455316 -0.038722356270862346 0.1766712968452312
P 5.86769438735876 5.340609198459487 0.6198376764933514 -0.47394378701500306 2.300308405691677 0.416762709818321
Ni 4.446205561697673 7.405432997471093 9.811779359524836 0.49069503833141304 -0.06921255443991951 -0.024770007855828308
P 6.972178921585535 7.364194172159841 9.455065845206263 1.1466644445250254 -0.6854838707129615 1.6737562763179177
Ni 5.58469469212811 5.318794929196759 8.747654942832106 0.9652600038701827 2.078187718264395 3.178000235432888
P 3.834708635216541 0.6467661180043738 11.844720478891073 0.9111007442189599 0.11700704821537915 0.7075135968194912
P 4.0406331054178874 8.338332403520072 5.255430335040384 -0.6841517821650992 0.6272134171068424 0.5380298188616347
P 0.8160266224329438 8.586444145522353 10.472795421111961 -0.9560554545527793 -0.9010811551994288 0.16326376519007366
Ni 3.527318987609022 2.1617327138692968 13.75722005226146 -0.3139990588958334 -2.0678809370217484 -0.11909041310696909
Ni 5.432245866653936 2.14591597387957 6.519637907377409 -1.0816260760674532 -0.26200929609210355 -0.6385213859204939
Ni 8.366971768110522 1.2000451673099153 12.289445178204804 -0.06430534694628925 -1.539857337443206 -1.3311948324033591
Ni 3.5639271624118174 3.956165576866048 6.221716917225233 -0.12967333082913796 0.7320822872977908 0.261532099345369
Ni 4.32371648710351 6.622973941976957 7.0550136344159196 -1.205098934512834 -0.9690883764773375 0.47677894247095315
Ni 7.175369634257793 4.716875452562434 12.634209196602864 0.2363435158948833 -1.173365093744663 -0.45163149667104796
Ni 4.881979529727389 8.426733195455599 3.153448820171667 -0.32762127766495835 0.12046415352604413 0.5328583019630242
Ni 2.916993671497499 1.9868280229776085 7.394619777639198 -0.22140566363812839 -0.027442412481668864 0.06252434378646651
Ni 2.3151206873381587 7.517275295293805 8.688141785303447 0.6390322641186413 -2.8078876213729385 0.8555137509822751
Ni 6.586291379214187 0.13346315838950454 5.748481172552006 -0.839557998983967 -0.04599420734192724 0.9487170119098371
Ni 0.22649367098398895 6.348649742578414 6.130235533897232 -1.0388202937558366 0.9499020333568737 -0.49303371376691857
Ni 6.217912902922001 1.8244391063517476 13.273545817104713 -0.39005897527488953 -0.7136053115395259 0.508872223461072
Ni 3.4205071755796324 0.7494019759306557 9.277002455564126 2.077979973128963 0.3383569189149076 4.097645012567117
Ni 8.868932423528173 8.854389577353022 5.93020630952392 2.3740381312756598 -1.1330910767159648 3.2577797667553763
Ni 4.163512716801921 8.925253407724398 7.671433184148411 0.19046860773963972 0.15380364821843837 -2.2128567025359116
Ni 2.6600669562381567 8.18986333390457 2.632322106866406 -1.59151542793913 -0.684029654764938 1.3596561730678456
Ni 5.534975639379686 8.682395315395363 0.7277485706313748 -1.4516559006056096 1.4113466594636015 -0.19953148927285638
Ni 5.82357302859847 7.050314175044486 5.221162591428309 -2.0209120244713774 1.3239294090901974 -0.7274185632735343
Ni 3.73116989342606 3.909700997366539 1.8182556071788092 1.5645167878630992 0.49115089492190894 0.5962071985333152
Ni 2.7556368878162942 4.7273362594339465 -0.15707203718663354 -1.1018529446372896 -0.8347644342500655 -0.8750245673216931
Ni 8.203625106499981 9.185806536032532 4.038365202488143 -0.6604667798433335 -0.7897130504373818 -4.8979417520576165
Ni 2.5439659477068637 9.088944113649823 0.62944023227665 1.6750467129945668 -0.05310973534078595 -0.28315404849051884
Ni 1.5697161344066701 0.347063536210792 4.345295504442816 -0.22649104858083574 0.7377834514476261 1.0313926338331978
Ni 8.255027186842845 1.2632098438238566 7.553290226115798 -0.6523073839609927 -0.6875757202449835 -0.043581484135376554
Ni 3.00682643166255 1.2964984559127586 2.7965047031771695 1.5523451854975716 0.8491569555263118 -1.482204205706112
P 5.439786946096422 4.256441875800939 7.169263312593329 0.050372024694648736 -1.0452004862505677 -3.71941131206193
Ni 3.1848740138631904 1.8762875144544617 5.0192680889586185 1.1330100869663844 -1.3239394363925263 1.5171246717323807
P 6.113788355946715 0.761249188406206 8.184176374364466 -0.13512072709695438 0.9740683461904321 -0.07775247359013061
Ni 4.185884895764462 6.711384032407483 12.401980213904785 0.3276896690090486 -0.39591466272471815 0.34566965052623694
P 8.144551767784677 1.7788299883919534 4.984537280295698 0.2086265095955891 1.238237883158648 1.3638128755486965
P 7.991721704015629 2.9195042651466623 11.212297289419416 -0.602027404759518 0.3240852394872418 -0.4824924479159626
P 7.8277799387252855 7.025357014472807 4.744442700679744 2.2526689494368433 0.7451545471007167 -1.1455879236313948
Ni 8.47895354335819 2.613555884263663 0.5097955673020386 0.485344572652777 2.9711346743924634 0.18320087043363287
Ni 4.844367117464929 3.8727952707238433 13.09550939309807 0.6003075938549339 0.17174223497473 -0.07369604413256985
Ni 0.21128133316906061 1.706450503336084 9.576025317373436 -1.6883596280533892 2.273474830438601 0.50438950509937
Ni 8.323361826575063 0.5208598464988499 0.9692342050988656 -2.3541287939462423 -2.5421957342229247 -0.0328386437965757
Ni 8.317289909342087 3.6494082269183186 6.631615033377576 1.397817257518599 -0.4865558193520588 -0.7663707761670157
Ni 6.83901517473493 3.0287987753402246 8.200439442114044 -0.3858022568810646 0.020330226916919825 2.3382488894911924
Ni 9.1265100334373 5.472034126745671 13.560170995534657 0.9622695537832912 0.015195476793515765 1.106469103253062
Ni 4.420523118516235 2.768245647032091 9.147101550607935 2.6162447908195396 1.4443213146174094 -1.9452637417084433
Ni 7.496521054460724 0.44565547866292227 9.989149081440203 -0.3705844114900456 -0.7934738030313948 -0.592440018181399
Ni 0.7360093535866208 7.652159263718835 4.101594038617564 -0.00940226715050639 -1.8332585175830298 0.34039786060433636
Ni 1.2348587325783087 4.247877961908793 5.595948660622859 -0.23020963508300352 -0.9511243357997491 0.8185806254013516
Ni 7.566836273627281 5.67288161867871 2.114624678516002 -0.3640119004788505 -0.16054199538353642 -0.5344536714746022
Ni 9.175745564445885 5.148502291823533 3.9727410740475224 -0.20806292378263522 1.2815524867858832 -0.23555804387911042
Ni 7.67860418349002 5.923503954330155 7.502160591676344 0.22808461832020072 0.40961221481646876 2.3471503057458807
Ni 1.5685259270470668 3.0566942603309246 1.5190551441150602 0.4972498087307952 -0.5182292391959398 -0.9205940284213758
Ni 6.9909153890042885 5.224405906483228 5.541878842065385 -0.25286619614025485 -2.390683967362457 -1.0645390386781797
Ni 6.9150954607995665 7.8814229563624005 2.279079720730174 1.59123517769455 0.38872380140323376 0.6926140539998394
Ni 6.312274030150542 6.142241750637229 11.075946018483874 -0.8695494031397346 1.8761306343562076 -0.3085930573889137
Ni 6.150080381919617 7.899899065921241 7.709607225508683 1.1506581390654504 -0.1783229735160413 -1.3456765709593017
Ni 1.3046067435500555 6.187181376957247 11.749795862865719 2.171078847268177 -0.3819062642607681 0.13415810607336895
Ni 8.488623978154965 6.562617410952079 11.493016063827326 -0.14469191572515727 1.0081447190488506 -1.187019194192988
Ni 1.775993947417899 1.1519440526909517 11.21507382002549 0.1864407175271692 0.6728438133514476 -0.21560216958247386
Ni 2.371488164009366 2.837482240779008 9.65069967099454 -2.63432890201476 1.378102295588175 0.7946613955815927
Ni 8.787124264545447 8.13916793918147 8.111733659542617 0.05677510000751512 -0.6289987911420393 1.354256599318829
Ni 1.98622362080281 5.690669639607779 7.1962103510943445 0.5240170495223104 -0.3530870260362306 1.4126270688379219
P 4.415046304963061 5.505787663584417 3.5125157835739573 -1.0690299845699975 -0.15937214344515133 0.2428224387510076
Ni 2.0978892472205817 8.47859090205331 6.513268438304532 -0.39047935064175976 -0.2798262696688665 -0.962323546949678
P 3.1410502069428006 4.193667736076867 11.365864723841717 -0.8407641034769262 0.4071005041382086 -0.5485196626493649
Ni 2.0192983675067833 6.77638981093081 0.2384059729245175 0.3980283666336113 2.5711612682173395 -1.0466086794520042
P 5.276430985990883 1.5262456702961629 1.884764022493636 -0.8401084721707982 -0.5057575890914903 -1.5238907868116205
P 9.146008977445799 4.218029792968745 1.9059394851500762 -0.4370762245646924 0.197429355328189 0.18262957131119514
P 0.7566120289512521 3.4669810535741385 8.07666252596281 0.27451488475828206 0.019054188417973638 -0.1960000790808302
Ni 2.8908556020612135 6.38807536136527 5.110886160163075 -0.05631332987974818 -0.2463001128869629 -1.5935049475653331
