# total energy = -340865.93154853524 ev
CRYSTAL
PRIMVEC
9.30470854782637 0.00000000000000 0.00000000000000
0.00000000000000 9.30470854782637 0.00000000000000
0.00000000000000 0.00000000000000 13.61838149409925
PRIMCOORD
 96 1
Ni 1.854121367735456 8.227883974610947 12.25746947378798 -3.3084343556874503 -0.09068743648424382 0.8763605125242971
Ni 6.255341580578265 3.4649804339454424 6.333759803680941 -0.2730025618788137 -1.0228902527891417 0.1424278022813289
Ni 6.5681565788564455 0.05604784269694075 7.279977952076315 -1.2521866320292563 0.31470688359613547 -0.39222538679858904
Ni 5.324600884460946 1.0369725541542034 5.582119860496717 -0.12155070172200358 1.5054161250462008 -1.805404471485239
Ni 0.6393404846720971 7.541577973302152 9.503192917560066 0.19736739174200205 1.7309476379272448 0.23030605145155175
Ni 7.318413842343352 7.727318566289125 5.497441429450867 -0.3093607887928737 0.34565808056201114 -0.8849024885570373
Ni 3.8766300469269406 9.173549423315738 12.74330552840284 0.875956335107343 -0.5782845526166235 0.6446997468170639
Ni 9.034592905147845 0.08654960794444083 11.062388519763395 -1.6467563506903058 -0.4486415608047886 1.6804542571633834
Ni 4.5784656068819265 3.7473876445329397 1.6574793781577837 1.1015693519585996 0.9553162623939094 -1.0877666417475524
Ni 1.575491868837805 1.260955499469423 11.626924730151378 0.26533450381059465 1.3406544351543621 1.421854758083777
Ni 1.6417413940390497 3.836619799965515 7.318450130706875 0.7676169898692909 0.25684317851013183 0.06080556132314689
Ni 1.8171258463590305 8.799109340008364 6.249284215282477 0.4528126614633427 0.3924542149799435 1.441013333290099
Ni 6.660719819966276 8.24666087655703 9.369636852261106 0.284072189429414 0.6608480744421522 0.5991194870841037
Ni 8.632033992464327 8.577964330814828 7.664724861095123 1.5163209448841626 -0.15403221928947666 0.4189491759466785
Ni 6.0977384263846295 4.992357654634984 12.795504013153748 -1.1434317965203404 -2.284529031370233 -0.21703967335994878
Ni 2.1838988497835623 2.443695618483556 1.125831590772092 -0.09192490843577071 -0.507034913142017 0.4087838053779024
Ni 2.8297572828269337 1.006006483947779 4.7053957891899 1.6316246372551901 0.019545012011463112 -0.17922208829154296
Ni 2.0750337592141013 6.768356689001106 7.546544826750527 0.9586838933145617 -0.5838772162130526 1.380737419218177
Ni 8.218495523637904 1.6797511286524043 7.557602542445633 0.9244563395902595 1.8369704192169782 -0.01629976560128806
Ni 2.921064388276346 1.6206290102354508 7.166427940728929 0.033414056684071484 -1.6022883501849179 0.19148882147403792
Ni 4.004113859396359 6.055476439943049 0.39694166010430665 -1.240561389085502 -0.4339417927007688 2.3435440764518605
Ni 8.436625807246442 2.0650032833479575 2.084892097971225 0.36635931766510454 -1.1545209644549663 -0.45369480695797987
Ni 4.281459308507806 1.9590877854033273 13.579814649159124 -0.06004631455961917 1.487481137834335 -0.292813940177786
Ni 4.466204297675041 0.8151278308742709 9.299434686848418 0.7282986518856425 0.3391508755711127 -0.6115155467556114
P 9.141848281130253 9.235974713284158 5.6151580893074 -1.3711945127247482 -0.3129711318519513 -0.49869939669312824
P 6.1969173153059876 0.24879860313989952 3.564652472422371 -0.614698058248651 0.37681650844268655 0.6471777760439112
P 2.8396109692297595 4.994711745909691 8.837948124157593 0.5138087415307409 -0.1376838598384403 0.28327900410415724
P 8.7003770770996 5.857546678695734 4.333763866936705 -0.19443042060086516 -0.3234427208072365 1.4918635831727467
P 2.311978163603104 4.641998157173232 1.577975295561992 -0.4416792705543426 -1.01169849783838 -2.028569026796003
P 2.8756108867864474 8.196285184220015 3.5356720270302646 1.1457925834430331 1.9203736633349828 0.8903650543335052
P 5.182769211336988 6.5686869472464 5.099185014021991 1.5644409403198412 0.814082737530998 0.06386517408507711
P 6.056053331875981 1.9740683662423728 8.084402576652975 -1.6244517736558344 0.9531819896597262 -2.669948450990582
Ni 5.956576692279561 0.496468545127143 0.667029436511123 0.3155818300019211 0.02535082005996279 0.3554645251294717
Ni 0.0424397063757581 0.8872625842622837 0.21283590441759456 0.5104719638480241 -0.8402619670295272 -0.011242405683038702
Ni 0.882893093105752 1.784382576810831 5.579178642109622 0.31197405804600464 -0.5005284794820669 2.265535520986866
Ni 2.0531025610540823 2.2328416169968417 9.405508364839173 0.16432177414094282 -0.11762154187092645 -0.17105909286477639
Ni 4.296532936432808 3.4272405358813622 7.976953662731776 -0.22252229374107482 -0.38133367958674974 0.41299192992197903
Ni 1.5206126975404817 3.7720358176028967 11.39460848781787 0.5924996677747408 -0.5451736289952676 0.566758811365211
Ni 9.559657611202093 3.9712217145106283 1.0539145675652182 0.4858587932850343 0.624233508542912 -1.464567466460955
Ni 4.5206461476683675 3.063826532259871 10.269539883150621 0.2757114761695445 0.559944616656855 0.5010491278722274
Ni 6.1206373142386 5.126485029041717 9.067676727030646 -0.7304318961785614 -0.40825775767110334 -0.4991341702377017
Ni 6.989027158056264 6.436271639221271 11.110855816367435 1.0431544023548163 -0.03561234988697092 -0.8805539817803544
Ni 5.788896538676804 3.384708712890507 3.8106001128485545 0.7093318809751525 -0.4837299198674895 -0.014588182226820037
Ni 3.1492530618768133 7.004100785981266 5.414750484161055 -0.0011739657034431396 -0.14807291638224823 -0.8983344456922272
Ni 1.1914121074253072 6.337511462186719 13.607950227010743 0.02297692051114753 -2.156880444280608 -0.4521927684911567
Ni 7.104079879841852 2.132043708779835 12.523014691458386 -0.1330661585607708 -0.11589324632591008 0.1560633907868925
Ni 6.892118618032252 7.706141049525356 1.3453761900871721 1.7724113043886702 0.4712960649795109 0.13298028371518386
Ni 2.556682694960904 8.989920999179983 10.319791822863314 0.703122409730331 -0.04056789412003336 -2.4340317382204724
Ni 7.957526361654854 1.9859876979534392 4.551345172738096 -1.036085925543809 -0.6083134948785459 0.43052942458511023
Ni 8.118879313412549 6.4387653011249135 9.01903171049243 -0.9360828680855943 -0.9231458483089521 -1.6264109542647345
Ni 4.275755522138653 5.34701592746794 11.138910443254272 0.3556064500239747 0.3881057082032606 -0.6770246842020147
Ni 4.804737510511683 8.060120078630828 10.69590396230533 -0.2701437522737799 0.050300033806132724 0.9931461887574895
Ni 0.4188607621431511 4.88140830934009 9.670453428805159 -0.46789372416618125 -0.6645638327308425 -0.7452445357113617
Ni 3.0082867266522544 3.4770300315768483 3.3621606125505945 -1.924058568385738 -0.5267804712000606 1.8363114454767409
Ni 8.350920136371629 4.307670672621837 11.895696820762767 0.20728953595172042 0.4262757915150788 -0.2813306221285348
Ni 4.24267728308101 6.7891247985866645 8.837880199784847 0.1932636539862736 -0.1965747206373776 -0.815506357351402
P 3.137203464245407 8.757526597294268 8.197285440394051 -1.6063468365250078 -0.4804134538997469 0.6946454826075714
P 3.4913220639798137 0.20066627604530413 1.3553145493382186 0.3336571994463931 2.5658077172149105 -0.9968691461350316
P 3.461351597593127 7.020179322434602 12.323478007036597 0.6758910848182037 -0.43340211814721485 -2.053757610246489
P 8.869899563004301 4.122488362150605 7.926769647391833 -1.3375685971401867 -0.6055158775287507 -1.6325134676180466
P 0.059434756625768435 2.4797420595832227 12.532192856017163 -0.32874896351149835 1.6273285809829974 -0.20089160284517657
P 0.25422510919290037 0.647685877811563 9.223511986591102 1.0786549092542712 0.36060210346635313 -2.608409611045837
P 8.99171680793895 8.38424029785276 1.4669310422394226 1.950386921867622 -1.2051611552093375 -1.9462394753581511
P 0.6695156546478889 2.337547502824034 3.596900731473281 0.11031960889287452 1.5049353287550407 -0.5913591264123945
Ni 3.123627894404309 4.229985660556501 13.059210620405645 -0.38957663632183226 -1.3203337213191388 0.1848720874884687
Ni 2.4062162522601556 7.715389929869463 1.288823101713486 -0.8087394709412136 2.144104632672178 -1.4791739035202203
Ni 8.273467742021184 9.21599750392923 3.1003065727800956 -1.0242539659058878 0.04872317623731608 2.873710947625651
Ni 1.6486175736912576 5.455769361534252 4.687133437629159 -0.9461045139876546 -2.0638605030084456 1.1586614689859014
Ni 2.0028106110944295 6.103739963428843 10.567578073708003 2.7061195015945008 1.0722091536289275 1.788784346430055
Ni 1.452846504838141 0.460396050843409 2.8233900707349098 -0.23190373495597483 0.014089645323846703 -1.763317312507202
Ni 4.543405464893402 5.292369373885508 6.674736432994808 -0.11144343808467258 0.3427535053207065 -0.07765400033905336
Ni 9.435253657277846 6.7665422708249485 6.4502100926976 0.298096528732964 -0.4610314498287092 -0.9391869609322149
Ni 6.61525701376778 6.335399293335499 3.3778623083058053 0.2469943107405101 -0.4373526181545307 -0.165149926469193
Ni 4.349700041348527 5.297542791864706 3.676486695504714 1.6817806892842908 -0.37910041938085676 0.5636966275001195
Ni 7.591088327739768 5.410660134262394 6.526255615108378 -0.568708478892414 -0.3680428760151146 0.367773938624444
Ni 8.057086743628636 5.864646171354238 0.05132942496807119 0.23942472592336828 -0.19732599698110534 1.2146176726365467
Ni 2.6244674970804356 6.240677359831473 2.831602406541457 -0.6341885628730948 -0.8319511331709866 0.37943954788783035
Ni 4.4474460051461495 8.518991087735404 6.659429256884054 0.9954293283647114 -0.8537535737580587 -0.46710105306155686
Ni 6.916124766209108 1.855833434117061 9.846702288553677 -0.6485872547969281 -0.690435815401598 2.545862898661867
Ni 5.6816225532772044 7.328621107672814 12.777051845537652 0.35929958260484574 1.4179464241683064 1.3499304611396494
Ni 0.9844288647143958 7.701042069214924 4.326872799750744 -1.9764797622999315 0.5186812391316938 -0.37945677427901103
Ni 8.8182026020467 7.943764697641844 12.926023021567076 -1.3739445646660595 1.0276887026190495 0.32977380523158684
Ni 0.15391104582286944 6.3749908284101195 2.382113335113905 -0.40409822697677494 0.02451521153254488 -1.2279614409333046
Ni 9.299786404833334 3.8349449524182924 5.491026763345006 -1.3611201592078817 1.514891668636804 0.14072701754013828
Ni 4.751551796178774 7.913617441791839 2.150628003257988 -0.36009893857768954 0.03579746931458351 0.9935588508148759
Ni 4.332421197486347 1.6157812570571013 2.9177928527341046 1.3703735594853497 -1.5662558820413928 -0.9487743475103338
Ni 8.989064965989181 2.5323881008175824 10.187121565822665 1.1755675007126207 0.306044322825131 0.061663795558384124
Ni 8.2359511569634 4.175311192848284 2.963659483285652 -0.4705352755540864 0.6753444682861143 1.3462722955617716
P 6.507675972984523 7.174004764938392 7.488107534886214 -0.20923226150038804 -1.1049904618250066 0.6879917247364796
P 6.347327929755162 4.0365965971038795 10.962048403209296 0.414397294909938 -0.9075541645182822 -1.2451664919576813
P 3.462626342670735 3.1739384537811537 5.856734377635331 0.4455773200571681 0.5415779412242092 -1.323604935871243
P 0.05549979536065517 6.433340656013632 11.57427589750444 -0.2766746114137622 -1.1196326372182137 -0.9239331200969378
P 5.9411122665935405 5.821183877503815 1.012328102967684 1.6272990132966427 0.5301869257784482 3.4923908733401854
P 3.6725312638806904 1.5020591086006947 11.386996305715742 0.15873656674368145 0.16037795900184634 -0.19501508945974155
P 6.491634655365569 2.549834429434483 1.4638400180439375 -1.5633541350135656 0.27059883753332753 -0.360285857777515
P 6.923531314251269 8.88226552072796 11.542708743122736 -0.8126341780099295 -0.1342079854746979 0.5928441955983532
