# total energy = -340887.4291590793 ev
CRYSTAL
PRIMVEC
9.09248783995900 0.00000000000000 0.00000000000000

0.00000000000000 9.09248783995900 0.00000000000000

0.00000000000000 0.00000000000000 13.30777503653293

PRIMCOORD
 96 1
Ni 6.644999282509684 2.0011656612990514 11.494138552693167 -0.36695375671599384 0.47940969522558086 -0.20219309526541954
Ni 4.783430587896646 0.16665621066813718 5.897526765201429 -0.8253223150005592 0.49849653665370275 -0.40015672583052375
Ni 2.89392067797545 1.5958134583531063 4.737008890937391 0.08547529615568505 -0.5071611543072363 0.5280680796632325
Ni 3.126906587853804 4.174042956537094 4.667861429727826 1.194705507093652 -0.516780422564555 0.5331629776876367
Ni 5.0202080652281404 4.533023471207219 2.5478396758851107 0.44038651988484806 0.7913930092429661 -0.0342154695394443
Ni 7.193985516768008 6.2025315439672895 2.8081803356022492 -0.04136287921750296 -0.6469944563885115 -0.3372454310182837
Ni 4.830265993055223 4.836858046780708 11.414398343083342 -0.2915237606114528 -0.22433003637377494 -0.339041603686758
Ni 5.568312328160431 7.867957089661509 12.42886267500555 -0.03794434045425723 0.7751775758253682 0.06849033156191431
Ni 1.8588773181954625 6.352393929489263 0.7954790349079955 -0.23982838911969018 0.7049741182270891 -2.958925533920781
Ni 2.747722565076057 1.8659512737794994 0.37948862112230386 0.0423704945464109 -0.38668208838285667 1.3745973677587102
Ni 0.9017874941534969 9.319072695618264 4.876687690014478 0.5787712624450548 0.02670579142596046 -1.6890294004269042
Ni 8.711567209253436 2.4903324176815658 1.3177424472363894 0.30636931026471753 0.2744912306091982 0.540100071127102
Ni 7.313260773003733 0.4159294941167804 4.550461044496506 -1.3879581053363321 1.0907293239203022 0.6107804683617997
Ni 0.5052468212287474 7.358204940679689 2.5041239033240683 0.6999622668347946 -0.16500645891279322 0.7856980157407178
Ni 7.567714046807422 3.411901528504254 3.7860483129869413 0.07212535721134031 1.4171401262169272 0.657646536785719
Ni 7.802682119047369 4.086291355841028 12.712012749861657 -0.365586444054822 -1.179091454705479 0.43019595250509135
Ni 8.479908802608076 8.983205285182871 6.633526381280974 -0.9991026634512407 0.7687901842417856 1.8529287423184475
Ni 6.828267468566041 0.9603394792164319 0.3925790759479308 -0.009825984951486302 -1.0906542477079926 -1.4711587465252276
Ni 1.8935742520112522 6.345556378590554 9.156734507452516 0.02771906318182323 1.0813903059075634 -0.5878457139424973
Ni -0.07330636517375319 4.946558913260661 1.4426423164853355 0.1566812268765495 0.3598289727457545 0.4957351718584817
Ni 6.641280454959722 1.307854366648163 6.98350806067922 -0.9040710910656882 1.7388676641052696 -1.012513794650824
Ni 3.412747129878695 4.316158542370635 0.24057086328221436 -0.2788147976852166 0.9225467812723726 0.6193270723802301
Ni 5.864154606872264 5.178890164010415 4.791876599904372 0.32166788829500087 -0.17902617023065298 0.5534564378293502
Ni 5.0338740745376604 2.8200078438589524 9.671399327645204 0.8186855264103321 0.2505403762205556 -0.24645489329727233
P 0.3700824423926302 5.900024471626795 12.391401624869006 -0.978896877927327 -0.16853555511197427 1.0836086537151208
P 3.805842659139188 6.3679420837935075 12.693754124915248 -0.07885059175031582 -0.35789473183751913 -0.40512384002781193
P 2.2697486612950195 8.463687804199436 1.4889667238240898 0.48923927972149295 -0.06255468280376968 0.4044815784581227
P 6.526706014966859 8.024829783352237 6.075544948745931 1.4478812640545258 -1.1212737723660624 -0.8430585559380578
P 4.76804609837455 1.1591558195770344 12.645726694593344 0.33410277162424395 -0.12856544247693988 0.12359215763206455
P 4.013142290707897 6.248439515360351 8.570660015061435 1.144730717837422 -0.7223054104166851 -0.7732741881550683
P 4.902878601402419 1.1002274055151546 3.739284738482751 -0.46082961823054824 -0.4968566870574345 -0.4327323457736999
P -0.03549070800921708 5.589970634331608 3.7791152909653114 0.30205294227755075 -0.08672330963017322 -0.5636030393450487
Ni 1.623418251609065 1.2300590401995526 2.542556940416826 -0.3407089640868519 -0.28472576385301285 0.14754789711671365
Ni 1.7731078798609903 6.1909840843378205 4.9287740069337 0.42640768910725274 1.826590618644551 0.3420621356806367
Ni 6.251012689435265 5.882421415057778 9.428425319811755 -1.0119895467162376 0.2118748413295577 -1.058508001992751
Ni 8.724814964119686 2.6094985640625254 10.152129164507889 0.5629165548009853 -0.7575254099612437 1.2535567729039057
Ni 2.642777069766349 5.161550789590417 6.954123867541775 -0.3327958798873623 -0.028413518145686552 0.3169882234311444
Ni 0.438870750330255 0.28436574048796204 9.169003910621024 1.1248895147417788 0.07577709503131466 0.1121944573180842
Ni 1.518318184005104 0.9977641594013875 11.546890439726466 -1.0626225383817571 1.251634101959896 -0.3934392046010321
Ni 4.046429888899617 6.675086324961584 1.6266760900226387 0.6521536319919479 0.6829832157782946 0.49133678568046996
Ni 5.877265974420055 8.120464571055193 8.134310611625079 -1.0023983034833768 -0.25758854131658865 0.1610040226216195
Ni 5.130245353760291 2.6646263181833674 5.243822347830829 1.5255869435671212 0.6859631243422251 -1.3513288841490727
Ni 1.0593021174897694 7.54476460735484 7.008353283858373 0.6782256464886514 -0.7448655551053881 0.23998779751568994
Ni 5.112624112215479 4.52481295463603 7.55548919682961 0.7192481116476 0.1725649879863415 -0.49525154735384386
Ni 8.215317404798988 7.444083488868928 8.78303871036953 -0.24374006546927054 -0.0674804022401612 -0.1218530634537708
Ni 4.332024933751283 9.694410596015487 10.48459689371851 1.27057670450067 0.6711247737778119 0.18785816669998615
Ni 8.5697607680084 7.54476460735484 4.866560476994555 -0.8066123972958817 -2.5498229117508795 -0.6209018730665177
Ni 7.151760002973319 6.050905215793256 6.958755580876619 -0.16608812201274623 -0.2344031043390608 -0.2685784646691891
Ni 2.3030726294383292 5.407802639310815 2.8062636391535154 -0.5811652165985282 -1.1143847585557132 -0.3401178674700723
Ni 2.1782145856337105 5.266978186758678 11.22980629078915 1.4196796048093292 1.9068337198670195 2.0592235184570664
Ni 0.8700137951966631 3.2011922139740876 4.024111468107102 1.4706895201982928 0.8016486255327032 -1.8757015172385891
Ni 3.671992144804219 2.74908643826064 2.7708647652720604 -0.6795209682613071 -0.8377656829702346 -0.8945322983373175
Ni 1.2833682967409508 3.2973452734871844 8.146847333937766 -2.325387460147492 1.3155393852542892 -0.32604210610329654
Ni 3.830956110711308 2.5236382008490814 7.043073858142694 -1.2345956584203703 0.8563452457446349 0.02491553229475709
Ni 4.53835166911499 6.759182745522968 6.20295343540572 0.33002500201044455 -0.1630426503182031 0.21568804442806078
Ni 0.47928867753097537 7.42180689352074 10.810265260479593 0.5240134499778847 1.0321181991453128 0.7873023841133603
P 0.152120959515642 5.7558267060647905 7.916302757059815 0.0178910213478079 -1.0619957034310354 0.07940183626809551
P 8.504040265487296 1.954648493216876 7.982762478846962 0.9147851350490825 -0.945589779134765 0.4281490972783916
P 1.653277981863534 3.4462256703162573 10.504333047948215 -0.43256368140631957 -1.8707626851760748 -1.4839445854359863
P 4.055567839236323 6.0887663353972785 3.9832961991852733 0.1866050110191754 0.29498806501096936 -0.1342745770465752
P 6.782214017366624 4.0996482205620435 10.619192082812262 0.32727957805482344 -1.1974105647296411 -0.12836258243751444
P 6.656474002235976 7.900244514184536 10.312567931951907 -0.5868069882653377 -0.26332004448372714 0.27944008997404135
P 2.8402659068939577 8.149596902277885 5.9520089526815685 -1.5740247273535344 0.8213633303528113 -1.3776513240936854
P 6.906299199699981 4.106503956436547 1.5864727455362926 0.7311116958544054 -0.49955146028077835 0.06814117575261168
Ni 5.3236698487978416 2.8630334965885957 0.5483215733930353 -0.5341150571882608 0.7849863343856739 -0.4538087068280249
Ni 1.591076272158655 0.9949818581048384 6.962468043685054 0.7215379361230412 0.15786393433074103 0.233555668737101
Ni 7.145240689151013 0.7392219937903188 9.16024693552721 -0.5844860534416451 0.16968483822506905 2.282711775655837
Ni 2.57410150867865 1.722408167346094 9.021393734351193 1.0856197706078787 -1.3856693093021555 1.9735247934366658
Ni 6.494145815806915 1.9006754850589809 2.394641256553648 -0.9687942422756864 -0.31537871285217944 1.5267177147374544
Ni 4.186063225537218 7.310978558541531 10.558296054369423 -0.42849902441864274 -1.1443213982141454 -0.6481601945618385
Ni 7.917565703628739 7.122363989601609 0.39092788014579577 1.111345457508757 -0.9948608574557513 -0.7382884161085027
Ni 7.7558194364251 4.023807779011335 8.569328874833282 -0.9275072106014414 0.45897199619651924 -1.898051345688699
Ni 3.090973075683992 8.781424793767775 12.686155532779544 0.6061920776601689 -1.725182196198377 -0.07270694074642316
Ni 9.070202209383467 5.1147972168229145 10.31710508341262 -0.20829920816315742 -0.5044802650409633 -0.6495845857131909
Ni 8.903227761638927 2.324021721553523 5.826583537632163 -1.2757906446014415 -0.6724272946393194 0.9673950479353146
Ni 3.317912481110695 2.7769003587382346 11.660046451607363 1.1177307922098105 0.12865903063201067 -1.1699660953654432
Ni 1.0237323048358467 3.478176672787087 12.675163624160593 0.5125280750461044 0.14860616317789893 0.16415593798703987
Ni 3.370885315599896 8.318962674339394 8.052002683433079 -0.28940645715813385 0.4760016979852963 1.1068375423360743
Ni 5.7449248130760235 8.128002243521989 3.4534605629360753 -0.7386074900108183 -0.8174585959817664 0.36692984545659385
Ni 3.1668680721620843 8.206497691538685 3.6474215147595626 -0.355085287413182 -0.01479721291383258 0.4912815069625023
Ni 3.214367228937159 4.283725638041253 9.189444732662764 0.8205709163585029 -0.3540807574080676 0.2476604835695993
Ni 7.198968200135684 5.996659432998445 11.602889254187861 0.12802936746781177 2.1909843279428527 -0.21931921342274488
Ni 0.4257812047534178 8.773841658861492 0.41039035048979416 0.9491196466648945 1.3991331481165452 -0.6289039174353879
Ni 4.409956647518352 0.0687392085029798 1.6599855101853127 0.2566202638660484 1.1948137505367424 -0.8207197832315413
Ni 5.938876672411615 5.622103486560382 0.3054293979506609 -0.822270415548113 -0.9890270243827936 0.018195697072420275
Ni 7.855600398609187 8.925931703918286 11.76375355006547 0.7548522340044548 -0.10433562339529773 -0.2533022552364089
Ni 0.000627381664908149 4.791922971592649 5.794058799175019 -0.4373387341974597 -0.20847327184717646 1.1390917743840898
Ni 7.804273304429383 8.756338619659346 2.158041991984939 -0.5547052226347866 0.3042931444619792 0.7642745557596192
P 8.578862348393518 1.4196010429049915 3.2511563442180993 1.4634441514897891 0.49436528809414854 0.3941719690019986
P 1.759796477579461 3.570001708061107 1.6430580254670593 0.5226463944270289 -0.9028521310569225 -0.002981708336143252
P 4.733358257046658 1.1226040182302122 8.242689430364777 0.9682005745557455 -0.9696514480696592 0.9159565296493644
P 8.854191974409222 1.6747544382767665 12.642812552222287 -1.7375294049098202 -0.6403620386736584 -0.6140555395686458
P 6.071208741267748 7.543337086754977 1.2187125245526123 -0.47557129531609715 1.4983489337867744 2.079387137889135
P 1.9031850117186133 3.1659315459086703 6.094535518968065 -0.221141097122832 -0.3167768787512867 -0.6346071384677522
P 6.972474326615945 3.5918873264297146 6.084448312894889 -0.48276164241694924 0.9951377652662216 0.09208971614840915
P 2.4639732952675266 8.732634503711294 10.224989088525888 -1.6736500897573563 -1.2104625128175928 -0.6490891341340111
