# total energy = -340890.56819302816 ev
CRYSTAL
PRIMVEC
9.05432673832141 0.00000000000000 0.00000000000000
0.00000000000000 9.05432673832141 0.00000000000000
0.00000000000000 0.00000000000000 13.25192240690262
PRIMCOORD
 96 1
Ni 6.156869797556619 2.257868422785704 11.444400176882343 1.0096521568323127 -0.2618784269411942 -1.2093445971630656
Ni 4.501077890462754 0.5366128274082795 6.104643535072227 -0.2277298060839433 -0.970285482109232 0.48188001114294426
Ni 2.6441531675667576 1.5265413918523318 4.604486451550112 -0.5340685202210415 -0.04237332275988831 1.224694854366891
Ni 3.6468293187294476 4.137800190111034 4.8058764102337035 -0.342728565620042 0.29018241609220996 -0.7340206419710842
Ni 5.050467278435469 4.68364028197344 2.4822436955142813 0.5462408939175173 -1.642379561778849 -1.0932528616731043
Ni 7.510817611718295 6.377713882828509 2.635409404164393 -0.6072853107243477 -1.7994407977026365 -1.1064063683359266
Ni 4.877276115175221 4.6784793156905895 11.224232449823312 0.9590911560553096 -1.1688373810776387 0.03580775372722865
Ni 5.720324484642062 7.919493706705465 12.47350500257663 -1.2147032903718178 0.15763562037001883 -0.4245570090517591
Ni 1.7079901011651393 6.454892964574136 0.8144167772218838 0.7602371524654521 0.6273615126489325 -2.792634294758294
Ni 2.573773885256954 1.56214300487718 0.4889789194829427 0.7300994525398071 -1.5962349449019864 0.10727233742611848
Ni 0.5672291280904316 -0.12671530373416875 4.644268447264067 0.3212140885870339 -0.3979386351332824 1.205648379258401
Ni 8.64180262813407 2.1439649914905385 1.3772192449339207 -0.5063517710320635 1.0116892418669996 0.8000779386114737
Ni 6.721769247358319 0.7065435275835211 5.0173637541780565 1.052608862899497 -2.2072105599937277 -1.0439038789263313
Ni 0.681482056400541 7.445834708188454 2.648635059338705 1.001846544744965 -0.21023627728487015 0.25415251905184616
Ni 7.81076029601996 3.9728575185765322 3.8134126342822867 -0.8972350419804612 -0.8504720747933096 -0.7460294935065023
Ni 7.773103350808785 4.030705612578505 12.674430474294764 -0.019752242926262757 -1.020265670682101 -0.8052422564212326
Ni 8.118661733589388 8.836534034880104 6.8792185580231955 -1.6687035443853584 0.7221866254506336 0.27375923753918013
Ni 6.873936263761065 0.6715865826276884 0.45660155223585347 -0.43450332163119365 0.17755884165650712 -0.5663350935642312
Ni 1.735515254673669 6.732109288577641 9.364179457013762 0.6016818484946412 -0.46572808397343013 -1.2702504315095027
Ni 9.134276517766448 4.912497446473965 1.3190814124739636 -0.7687143366985277 -1.293320683065405 1.8487532707845193
Ni 6.523180697390364 2.1004136795247397 6.973731243017747 -0.4102968995883192 -0.43976277025792004 2.0502028030156945
Ni 3.5239258865831373 4.179431984792685 0.591753677693459 0.11929944379398164 0.418506431982305 -0.8929315295091008
Ni 5.9310458325381195 5.396034715542885 4.562027091397842 0.20518637356578856 0.9242182554375244 1.3521470091749939
Ni 5.223205725355117 3.1989208256658106 9.074863836091362 0.8168865255283803 -0.97883491434114 1.3686074687238623
P 0.3329131099549418 5.5321574648347385 12.524192934935659 0.9476893419762711 0.2810907382035869 -1.8292247138332884
P 3.9906402164353323 6.104418082334608 12.584874127797109 -0.395066712902126 -0.3691096267167321 0.27915315486124187
P 2.299907662173896 8.484809655540518 1.2632977049851308 0.3886484680806081 0.004488117678340658 0.5704344604445853
P 6.169210845001397 7.534395078736785 5.820124896494832 0.3016863029667514 1.1779120896853972 0.8691395692958257
P 4.68005476855588 1.0478753506082756 12.646654515933541 0.3947880053194427 -0.07316459710913206 1.0111685934768393
P 4.182456129947898 6.131155509410492 8.188800170805992 -1.5739473371483796 0.18912880588229364 -0.5641925932999315
P 4.684382736772025 1.0628512071553509 3.9496159670827673 0.3479566467882007 -0.25404041895401414 -1.823751863644175
P 0.19160675856320872 5.631601136211114 3.7858358711109283 1.2061332893146195 0.3540393626471709 -0.4155437498095553
Ni 1.3329689389382342 0.89077372609298 2.615452762438028 0.6043838208068366 0.7676596701817682 -0.6090058929598802
Ni 2.042456933601023 6.596955352254674 4.702391792801125 -0.9778717790969224 -1.9440288408600774 -0.3584914848812536
Ni 6.050816467607471 5.858457294486184 9.017058297425406 0.38052609608378984 -1.5214613514345217 1.4425300270449415
Ni 8.781836846608714 2.4361119004070577 10.271141414013947 -0.5221380873320427 0.07231587595559158 0.7143540167800924
Ni 2.7451541831547996 5.03646023485728 6.851985859270695 -1.0448647001777036 0.4955713925871078 0.7359505120039455
Ni 0.36721633251494695 9.205805699581378 9.511037016173944 0.5032654187972558 -1.3235599415659207 0.20181205777691696
Ni 1.4879790139599542 0.9763823861005946 11.60428419602697 0.1169682245576437 1.1646799072658394 -0.8528596011888796
Ni 4.071477246213014 6.9846344633647774 1.370089868002139 0.25068641488011667 -0.42188023355054444 0.22964836326289478
Ni 5.611572965302934 8.073281447607563 8.140603083752946 1.0007623105418506 0.19104016397239357 -0.6425150804609192
Ni 5.723430118738585 2.700534460625183 4.912527325752444 -1.963558169142257 1.748645312317324 -1.1713197811798601
Ni 0.7380942347926733 7.409879976417937 6.918974296189397 0.8815299725403786 -1.3563548766087543 0.2667205855248439
Ni 5.1361121557503315 4.292285114177656 7.148100374196239 0.647959134294626 1.4271687140975227 -1.654870752267324
Ni 7.972189888751401 7.222274324872958 9.030403469713635 1.0219502574733754 1.1869361475608784 0.3470109950454798
Ni 4.683368652169079 0.3747812225663866 10.492607531537823 -0.9071607857346053 0.015330973930115533 -0.44509549532474313
Ni 7.938145619938218 7.263996662822729 4.740132943251653 0.6207306375959761 0.04706018671259637 0.7132085903217394
Ni 7.403261263518353 5.956533762513945 7.004741406916222 -1.1925270113850948 0.20086229226913796 -1.0775012552658025
Ni 2.4595082808893083 5.131992437050864 2.4971661315331652 -0.5260929582147327 -0.31873066004354783 1.5769318736980003
Ni 2.3243271815859043 5.2230880191065605 11.408646451167053 -0.8473186167659923 0.5546864535817091 0.8590932408034171
Ni 1.0406681064659107 3.4651180339390915 3.762936573170658 0.759475334598763 -0.5951700155180524 0.4281526968228174
Ni 3.4675174305442757 2.7311743025570463 2.66404733443812 0.7116607862186454 -0.3848422069606405 -0.034888327236752815
Ni 1.2427063549492434 3.4054681289015276 8.256954805018083 -0.7172526784841259 0.48548392644411875 -0.6503312340712284
Ni 3.4539178316726273 2.6792386839633204 6.927548743680377 0.9510862834729621 -0.8778360686285592 0.7753580672672904
Ni 4.133997372849987 6.805557987676718 5.876948946134365 0.44399480606139663 0.4624638113998616 0.2347178073660022
Ni 0.5750439175618829 7.479697890465395 11.19831172302587 -0.17184045111549115 -1.0388876566586625 1.4483949704661507
P 0.1490088672107154 5.619803348375057 8.128172398472731 1.4958205109379659 -0.18384750287869628 0.31440760718816174
P 8.719217122376808 1.47022347908159 8.150674211465953 -1.7439432788559643 2.098150791649883 -1.3010828435093271
P 1.800235582725962 3.170725651973192 10.584111463732741 -0.561202400323356 0.6192550814917142 -0.42021595847424403
P 4.09382332478507 6.168803400294856 3.556060597871665 -2.161711032900032 -0.44749639145675196 1.3104820253360399
P 6.871708899365309 4.050145252243904 10.28138457393638 0.3716349642417471 0.3848116108330212 0.658658522990001
P 6.390652515842881 8.051161727205807 10.303382966358857 -0.44550790027181336 -1.5241036741533753 -0.19123402515075455
P 2.359023361929551 8.360801595523142 5.798485055414113 1.0229025940843157 1.1574317103438583 0.7503990833291077
P 7.034125413719258 4.055731771886918 1.6368909998737808 -0.16291383804982268 -0.16666610600340329 0.26874121549929847
Ni 5.730238972501221 2.997914770439048 0.263563304603665 -1.2956038226726267 -0.0865836987285154 1.5273280946279437
Ni 1.5043582911628917 0.8817918338954599 7.142760132242512 0.17452005483018332 0.33444524256532726 -0.7469664034984749
Ni 6.8556284149471685 0.9066278523408207 9.30410852577944 -0.011495916454741491 0.5206687018753678 -0.5188478466165451
Ni 2.598609903702315 1.7133502626378532 9.198013545926957 1.5224800225070232 -0.9030169387695608 0.41104971859394374
Ni 6.464961375989098 1.7778261238662214 2.636814635685618 -0.2517652497665922 0.7716415376476518 0.26515632636151754
Ni 4.170957134896637 6.823612315339878 10.478533485941224 0.27629794480063385 0.8069960058875457 -1.413265216642553
Ni 8.04138305424883 6.960568062698438 -0.03042253808837492 -0.1022345178918949 1.4662952477853393 1.7787806982501237
Ni 7.917800547591617 3.8030707821976018 8.300884587844623 -1.1541044457428382 -0.42847485604892654 -0.6905985662317075
Ni 2.914135084447461 7.969908198394772 12.151045112926159 -0.2932813667325078 0.8695110937026316 0.9752189148551077
Ni -0.02196036424986444 4.929582961168239 10.270041313306287 0.6454530800433206 -0.10406899999747239 0.2802494732492141
Ni 8.638316712311441 2.1979831052510277 5.938040300000401 0.8366976467170364 0.8745890224461712 -0.5170753280971546
Ni 3.4439852351598454 2.7238946238001853 11.859768324816274 1.2932011267684052 0.04212058331913391 -0.8914595729492648
Ni 1.252964907227258 3.4241472051147177 12.854072845408574 -1.1036804847643313 0.2810038349167354 -1.7681327316179742
Ni 3.30691178155273 8.28050782535418 7.9838989441847 -1.1595600695407708 0.06263258722955665 0.13032407703925944
Ni 5.549369740104383 7.67653895535863 3.5616398740532293 1.8801832071590265 1.204004673007391 -0.24843001474577212
Ni 3.3417709397789928 8.297792535238319 3.7178532691082657 -1.1127348816571159 1.0029230656385952 -0.45592652450197607
Ni 3.215707547575289 4.347815300515753 9.382228352080837 0.160621185360904 0.7061102887140613 -0.9944412534198294
Ni 7.176423213896907 6.08143820088571 11.346521093179085 -0.8847358810721859 -0.037254256365768096 -1.4214834907872873
Ni 0.4506075878862987 -0.18137899099635502 0.1393741580500488 -0.07918560649223137 0.13654717513083578 1.1997358704287078
Ni 4.430816314401507 0.2612444915071076 1.6112744984572245 0.6193661531482818 0.9424905713841509 -0.06729245459907121
Ni 5.857895926223839 5.562498513981805 0.25672276069718664 0.6919756490848921 -0.03950500007315778 0.35738796740442963
Ni 7.865566136213095 9.029391195976052 11.49219977898834 0.18961654415198956 0.6424883409880419 0.15663674679185927
Ni 9.390242336742151 5.032186592602008 5.915830036330525 0.10896540885782524 -1.1950173819071161 0.020160534108274956
Ni 7.883213019169715 8.793580308483898 2.525127703594034 -0.3571398559493656 0.6948321446970809 0.2159898919391958
P 8.587802623027203 1.4993965200699069 3.765029933529596 -1.5487212155917391 0.8477310217130626 -0.5002577423191836
P 1.588744617050884 3.086620010216372 1.5971352617075796 1.2490565710407069 0.6755144182050754 2.3538218042287844
P 4.761697633419832 1.2512989110938468 8.277044545348584 0.08421956937171302 -0.5702251726472566 -0.448544373105292
P 8.682873054553376 1.7866993641419975 12.537047362710679 -1.2239065541376406 -0.6393240843274473 -0.7369406438313567
P 6.344747078905957 7.622475569964081 1.3042531414539245 -0.5297894332297135 0.8553327453197206 0.49170599609443055
P 1.6465746023992325 3.0730023026910995 6.01038256036305 0.14206090586021342 0.5668156327450754 -0.8994346207349412
P 7.034261228621439 4.060032577122625 5.876538785129781 0.7515308829407057 0.05136575606648573 1.77480217321835
P 2.4261340322602156 8.772384129416968 10.084778921540257 0.5323985887177863 -1.6217608570872328 0.09831024313682424
