# total energy = -381176.2974943297 ev
CRYSTAL
PRIMVEC
9.09941661980896 0.00000000000000 0.00000000000000

0.00000000000000 9.09941661980896 0.00000000000000

0.00000000000000 0.00000000000000 13.31791600621892

PRIMCOORD
 96 1
Ni 3.6846175892700304 8.394457326535054 0.4088549783322039 0.3723908685711651 0.9978127409952235 0.04116413294313556
Ni 4.922019929216202 8.35176286471865 8.231897162233288 -0.6305525087824043 0.3313581189995713 0.022156995713013453
Ni 2.2345982853847883 0.29150435454378437 1.926037074772195 -0.2625227453934124 0.15963850973266056 -1.3379858871832633
Ni 7.16355196990877 1.8763815593987678 2.4526139330825263 0.3566197217798374 0.5792559153909572 0.8162697178799877
Ni 0.7869666683666873 5.308235559509358 11.624968539644028 -1.080477821395623 -0.19101213894793553 -0.7068451099975568
Ni 8.4781628581312 7.767634927412109 5.079639110404945 -0.6192627948011981 0.46429597951259394 -0.5818041357341076
Ni 6.076253603134681 2.362617974919102 0.42869989559038746 -1.8864423006948607 0.3982641367935012 -0.07646100847221671
Ni 7.125143333223551 1.9731720517988316 9.111771602016011 -2.0874020377738116 1.2388760309632794 -0.6172406221648467
Ni 3.7610162894854042 5.073343224187816 2.9473346444676554 1.557450367934621 0.17081046718908002 0.14325055529294037
Ni 6.182853266429477 2.0084504892374935 6.673727654496235 1.3942107711142633 0.3092983109860544 0.17584700117172297
Ni 0.25140231646384453 1.4402556300725817 11.32346483640245 -0.18931495375117074 -1.333438634132213 -0.3665251538190075
Ni 8.530020432276913 3.5152501515486443 5.263213466974148 0.713371855372481 1.8255405801134819 0.30475311481753325
Ni 5.736690680798198 1.1862727191136109 4.359193725735792 -0.6916424341151894 -0.1408098070619317 -0.013444298430363943
Ni 0.37995614174168385 0.05720985088066929 6.769030392312543 -1.615670427918779 0.5087737502099948 -0.1375419349439373
Ni 0.460759869443273 2.052455267017573 3.5625689367868514 0.6532265533411524 0.31852034380495464 -0.06014298803848352
Ni 7.13370588406951 8.510893458973827 9.505568866065651 -0.008166852081508516 -0.6979431795222367 0.9947472146960225
Ni 3.307446778892797 5.159241715139832 8.176480806327898 0.7980287693919289 -1.3911948671060752 -0.6963616939677297
Ni 1.3216265382779377 1.907501563536045 5.749117753795356 1.3047602923609143 0.9961492372498715 0.9968274942638187
Ni 7.395132117655467 4.274496357750477 9.911272716493546 1.681801515219897 0.5264400571415062 0.6220928080508253
Ni 7.330116787374519 6.183035254757765 0.5499259608297036 0.7990453835819012 -1.0515840211794085 1.1584439536584565
Ni 6.26756883324762 3.569591866375492 4.5503852037854955 0.2741137926651214 -1.7796790416946768 0.34415192833012986
Ni 3.35647443453363 2.3605342085602024 0.8372545931809159 1.3636951190239095 -0.9056101534180339 -0.827039297691666
Ni 0.8234553281884655 3.2290553064826675 9.723956679894737 -1.4998656275416167 0.8503579178129483 -0.1512824244584814
Ni 5.633021029588841 7.104715143373205 12.924558111249551 -2.6069163143297622 0.13835697464606492 -0.5566075818638221
P 8.343136617957791 6.318862243575641 9.479905781952095 -1.5093064612395426 0.7190491082629166 0.11509826122844048
Ni 5.564684412316633 5.580835876452209 4.3204520504098065 -1.7023353735071907 2.074672248911969 0.24386116442816713
P 0.27062756346420686 5.65919095119668 4.304643634273054 0.08756226059170082 0.25401007993671093 0.47360311584613274
Ni 2.694619282215211 7.428672566558976 3.254378982363966 0.9351840104204088 0.41353109025490065 -1.0298417444063104
P 7.455315657820365 0.4012296673769296 7.701071786399069 -0.38663632274658577 0.00561400375266775 -1.9430186544280084
P 1.9245538698966467 2.5697752890095265 7.948091823917735 0.08719022196426275 0.011371732172051384 -0.18776586409649598
P 8.367331966203704 8.019570469677838 0.5291874808796252 -1.0575566938230754 2.393301607490962 0.7437355552660031
Ni 7.024576583011509 8.58130474318852 3.1361029479262013 -0.010097236335001964 0.778596114588614 0.36487604825135866
Ni 2.96539971587518 1.0132109183279752 12.138001826563155 1.3385615571810754 0.6503854843479315 -0.4548749433090101
Ni 5.55650403696008 6.86886736932815 2.114498727897576 -1.517979563533508 0.004178813968037965 -0.09722960847813576
Ni 6.116118146446205 9.092346167854531 1.002382612794829 0.5613391830115365 0.08651247917094777 -0.7889733440578799
Ni 0.1766487907361956 7.8393474281740625 10.779428017876151 0.676441558005035 0.23023226079082285 0.7354573744176107
Ni 2.893086653629876 7.144570587268314 9.540901900002801 1.0269019450516959 -0.9525559260399531 -0.4620179821116946
Ni 4.813682277386254 2.890702606529301 2.543934766275889 1.9127004630604416 0.28648928351133884 0.20986886664312246
Ni 6.538176377995716 4.299974723710822 12.331990465218647 1.0912612851643722 0.40122990429004446 0.4957639682138882
Ni 7.266702954382506 8.817589289221466 12.14775003136791 0.17454370897926713 0.4565944971032781 -0.7157845785790319
Ni 6.3085799030273595 4.187296650251201 7.8126351813479245 -0.8506433102638511 -0.47191287262790343 -1.5656174771264455
Ni 0.9967409746178956 7.88931232370558 8.533587403511362 -0.4876770774406956 -0.6891746893009872 0.4417887995490133
Ni 9.146460397271017 0.475598287790249 1.9503024885244984 -1.9878486662585055 -0.8806442275013157 -0.8501727983853358
Ni 5.247351364280551 6.2765863549143 6.883937822793694 -0.0256341556283365 -0.13482813555720005 -1.5678869898869126
Ni 2.883159190321756 2.549565485153125 10.127209147540592 1.2496052444553254 -0.9324110756609619 -0.49277017569288684
Ni 1.4874361041812898 4.459551189370304 6.497438290708408 1.0377843962921545 -2.0999122544256803 0.6071487851464834
Ni 8.727814446876911 4.0402864786600166 2.840351895741813 -0.37434130742931654 0.6751992009575017 0.4315522094226697
Ni 2.5518130410074837 0.3681696676601005 7.844332088485876 1.0077598249056063 1.2635344529419077 -1.1058175857119923
Ni 7.505025769692279 6.366543185587141 3.355848394684319 -0.43205845963512685 -1.901191176869261 -1.2214673485685286
Ni 4.336517980031086 0.8074758430231225 6.237699088925683 -1.6563573641151796 -0.6845783281795566 -0.6016203991290865
Ni 2.7011253649515137 0.9060543707486174 4.058368838958729 0.7963832633687059 -0.8039042543360994 0.06365820028059359
Ni 0.9569674254705159 6.596876713285065 6.410045675581146 0.38185304242532947 0.02438331394037091 0.005916108374118843
Ni 4.385481939757018 2.4598998358055435 8.0514257066614 -1.8690860688046005 0.3222566709189353 -1.383197193612579
Ni 6.203554438772257 8.423548160811919 6.184493891208995 0.8754806810225052 -0.13241361257843648 -0.9839539807352602
Ni 7.883124720543782 1.4043129352356678 5.1877274382251395 0.6189401213544566 -1.810307308103495 -0.44884647772674313
Ni 1.9100403007156652 4.220846198571125 4.166084090705931 -0.9420496271919905 0.04858048001186472 0.9497727068678611
P 5.175001904369588 0.7450110791631325 12.23795254628394 0.2199866718034147 -0.15736873986187738 -0.044750564742813255
Ni 1.0258500077275885 5.539861204338127 8.954433592794473 1.9186206851996181 -0.6775157649058203 0.30729387896151594
P 3.4026812710859966 6.447555289924621 1.086594071943614 0.05129710761207939 -0.8378338172040086 0.5579201300276585
Ni 7.455524944397896 5.690429247747345 5.605364263338889 0.2638738601046681 -0.39804610724542416 0.9744303575155411
P 4.589636446430688 4.269091304400319 6.187197327825715 0.5004750005363122 -0.1340038398836918 -0.2399170921787546
P 8.57932107041018 3.3323609810354475 11.967825450722525 -0.14247999567550299 0.987960530791492 -0.6074406053552893
P 3.1597723499033608 7.164261724389094 7.390950025871405 -0.14911292761098835 0.4477041365921837 -0.8509451577749861
Ni 8.234680673714456 1.7499997648190477 0.14196272530611176 0.5051523514073235 -0.454042934326018 -0.057189304726798285
Ni 8.750562987912932 2.4917841909216305 7.426269410683932 0.05664114553281213 -0.05004395193126865 -0.9415354065597332
Ni 2.935071360965957 4.7887680752436035 10.62584533780884 0.639415358489673 1.0107135082172916 0.301891476999022
Ni 6.702994107509896 2.193159543033572 11.285681329624902 -0.2300448273703651 -0.8854221085059332 1.0080367327160769
Ni 1.7123918767782973 3.085575708460274 12.192551918025892 -1.1256904133765193 -2.2249095199353874 -1.637473125616167
Ni 2.4912837230188387 4.6064794662137585 -0.03695454994219591 0.20541288775429783 3.3035996533029683 1.7468848779827915
Ni 2.2594396921961235 8.423393470732874 5.639138567244249 1.673579898641053 -0.7542171715236172 0.5870085627531826
Ni 8.882267941095082 4.436702554753724 0.5871789716302921 0.33348519264490306 -0.6050949879412482 -1.3534063355033918
Ni 4.713224720171185 4.6513122908875495 0.5404598379337945 2.0637108648044586 2.512416446077963 3.5823301188044954
Ni 5.180425156552576 3.6062625145255587 9.7712217785761 -0.5981789775477053 0.7025058591922547 1.8467807204391808
Ni 0.7646576291434818 6.724213946588297 0.22585843470531694 1.9216592149156262 -1.4401329875676747 -0.21198874119960268
Ni 4.223721614158078 3.3879857135767266 12.29938816614746 0.034537114544921164 -2.380034972289043 -4.283387161365365
Ni 3.35771195516599 6.362129968626154 5.130674097306797 0.33568991360570577 -1.4126615216202831 1.3957660314165252
Ni 1.1905585442447972 8.9545901027568 12.854346104254333 -0.6853848832412518 -0.2921475102383807 0.7754043471241936
Ni 8.035221465910622 7.221806433793814 7.478888605983532 -1.3314735399860422 0.022271924024322935 0.32007483277626814
Ni 1.1780195484257423 2.4959972207215024 1.2316778970798679 -1.188281091624547 0.49453292402026444 0.13552336185201178
Ni 2.3500880785164613 0.1901286662125004 10.035689037127755 -0.8981534400296726 0.2204805807206977 1.7914762914399212
Ni 4.840152479735769 1.130839074317034 9.862076721649045 0.2954853163623621 -0.7233683044635606 1.3511890161370987
Ni 5.574602776208339 6.123015504088326 9.065652119861223 0.4786033972742016 -0.4051089276294765 1.7058791249943912
Ni 5.11822154594368 7.8475096046977875 10.6091852162957 -0.7803740324246431 0.9814710664124066 0.8501095492475683
Ni 0.3677647436296594 7.378771366942361 2.749990141038529 0.6317336735746991 0.025115564120705133 -0.06694098479692341
Ni 1.763612491775003 5.2990087512651485 2.0802184964395747 -2.4133865511662953 0.6337206220977408 -0.722391285262272
Ni 3.084001509420581 7.205236396503175 11.72348155157134 -0.7252482950950929 -0.5151112623922482 1.6298022393344704
Ni 8.509219166353576 4.7074556901644495 7.534610702280446 -0.4835165183051028 1.0298021494176266 0.43114597512318653
Ni 3.6953367018062035 2.740180060202155 4.714688816272263 1.9010729061238418 1.7703071135614739 2.1780354810916682
P 6.79864717285816 4.318346445451512 1.941365951663908 -0.9998511115814911 0.010812003013839444 -0.38362453250345546
Ni -0.01607229921276978 0.9620085021640983 9.058885793815469 2.6658938213052346 -1.447028172025611 0.8924769584701855
P 4.670320971777248 8.132230344304629 4.484341639449718 -0.1566406034466012 0.2610824134024601 -0.3644001370562047
Ni 7.0516382474279595 6.519595369677494 11.192602489180276 1.287120210681648 -0.35674647716568886 -0.12960673925726066
P 5.13252582854713 5.465537171065239 11.235459830550498 -1.7175542473394743 0.574064858108321 -0.43479205651620606
P 0.7817208548037806 0.07696377397470876 4.334049308357857 -1.7489700426465942 -0.42229058161508565 -0.8421671544720399
P 2.676365852887908 2.708532289912842 2.835824026134003 -0.8220184474383069 0.3177137887432593 -0.5985556441608336
Ni 4.435273946376662 0.3744355258030623 2.582810203023167 1.0725493105771657 -0.6615119332783963 -0.07061431988345258
