# total energy = -381168.6486159622 ev
CRYSTAL
PRIMVEC
9.30470711044985 0.00000000000000 0.00000000000000

0.00000000000000 9.30470711044985 0.00000000000000

0.00000000000000 0.00000000000000 13.61837939034930

PRIMCOORD
 96 1
Ni 9.024691155445595 7.675694733404177 5.531866976959168 -0.3250149503903628 0.910471081054761 0.6877294722140285
Ni 1.1283539047571836 7.723921029827412 13.033238024565676 -0.578853537746216 -0.5386268290156853 1.238775500829673
Ni 4.543711745047267 0.8383727108482254 3.9709018855065144 0.7750266520698007 -0.12386983677348344 -1.0480469545604274
Ni 0.8798661212803642 1.6271606380500256 7.325748424710503 1.258774312549103 0.9725328833825122 -0.47315342990322384
Ni 8.261249250133991 9.163368508695044 13.426251169646566 -0.9413726557296239 -1.664373806661753 0.4256335299453896
Ni 6.576166810958238 4.24919915882534 13.576707351497634 0.1437920296187072 -1.7037901036758463 0.9254747535524448
Ni 0.1906776388351906 8.377604611270892 3.3656465126283472 -0.9231944421587005 0.5635397902072811 -1.6842018971312738
Ni 0.5940934463511918 3.1144808344745827 11.477474264330578 0.8460433495979945 0.43300771092227364 -0.7235634511935023
Ni 8.087334971444681 7.105306889097646 12.32569507707623 0.33298408463876844 0.48996047415823357 -1.6255367791898971
Ni 0.9068953646683358 4.349541119201216 7.071125117432511 0.9245843805276915 -0.831606091126742 -0.2909928278086472
Ni 7.003159815562188 7.399214669364043 9.275055698325957 0.20251679715342544 -0.7146877459704272 -1.1307606288105752
Ni 2.384377694373177 7.744261119347226 1.9411907776922452 -0.4760155819423672 0.9130735516746146 0.9458170646542228
Ni 4.063384159872608 7.6918570094773315 0.19490104534618935 0.3595065564093292 -1.5976948172769645 -0.3620676322682861
Ni 5.586136680584196 9.222779062942074 5.740310092885016 -0.07983943802614636 -0.400699228597555 0.9900600936329981
Ni 6.514625478806342 2.0355907521727183 2.2194554845365424 -0.26226666351854827 0.9068031452848706 -0.8433637458833023
Ni 6.070241976804162 6.316816712520107 2.698209643756123 -0.2535534520152666 0.37424951904645865 0.6127363065365898
Ni 4.06980440770823 0.2844988605397568 12.560463070069533 0.3495659002568496 -0.3071362703377291 -0.32614006513374155
Ni 6.076234208117411 1.287827278169846 13.262122651317728 2.1550858142740306 -0.0563827496651029 0.7915444472191658
Ni 3.173807646358539 4.284901319615607 10.84944934293277 -0.06943392642210623 -0.30255919249000796 -0.7172156545986035
Ni 2.2995745947009087 5.530782978592718 1.1108582641697613 1.2597374477933208 0.2607929071864992 0.31213346644200435
Ni 4.927009845540949 7.908563635697117 7.923363702664279 0.5288540658996377 -0.5764523845038911 1.0846952019110803
Ni 3.0507435914687635 5.793185020929523 7.732134294703505 0.6552875496352393 0.052943899186883005 0.44129489063173033
Ni 2.6858408967301908 3.780818817449144 13.106668911332585 -0.5277137816476073 0.23812477616502217 -0.36501154538795844
Ni 1.1543233420169268 3.0957225451461543 1.2881734132705491 -0.988526430597291 -0.5998861900467991 -0.4415977665841298
P 7.466608662224065 8.751049027042946 6.576533416414359 0.4790592538646975 0.09477497629005613 0.9748571606403146
Ni 6.909796385442423 9.193366884089315 2.435469840554922 0.01845717826392305 -2.2924732259179743 -0.42881989809317117
P 2.1867643269341124 6.08020731800989 3.629706653754004 -1.3431121526662353 0.9451254379038367 -0.30085223710123027
Ni 3.7740636001612287 7.553616977457264 6.050823053278156 -0.11746676146061705 -0.7226489097990328 -1.1576579674220513
P 1.821117255634888 2.4091468244288694 9.550460138235948 0.4407559874091248 1.0096722114369707 0.04629039842610737
P 4.987025205743509 7.7709004955115555 3.835997590948869 -0.850561292073006 1.4531749083532974 0.7297050453148659
P 5.851609276233689 0.9601806302919016 11.134945668063802 -0.6869699683401846 0.5047240056206533 -0.5443074243402303
Ni 5.184573440233517 2.62125692538663 7.0450458846300705 1.8761823135297495 -0.5300946231749581 0.5633639267510492
Ni 0.17988417870573795 7.69176396240725 10.353005074749298 -0.8090914549639937 -0.27932027656672537 -0.11406981996392611
Ni 5.954630992227913 5.097834961503553 8.547221976263838 -0.247917850996044 -0.5910955883383626 0.06051296978339256
Ni 6.457717890744504 2.1903187250112253 4.846645091111568 -1.9870642226839974 3.0097958384080874 0.7110617191820657
Ni 3.150378394112021 3.1692948634595877 7.77358862536621 -1.6426981214605323 0.19961787833907554 0.8795677066076852
Ni 7.12037120974384 2.87337726647943 11.574778237868294 0.67975056777361 -0.3301381305495411 -0.7757483607271737
Ni 4.453176945857979 2.761869657693775 0.7066441127924609 0.23928665768360727 0.807754481320125 2.0931589948622467
Ni 7.904897581135907 3.730238430152847 3.2653194397836836 0.5506979012476064 -0.831102412017446 -0.2355187060007428
Ni 2.7369795664469767 1.7495547540352152 11.582989641802987 -1.555085210136554 0.4843786091950819 -0.8529462473654149
Ni 8.42873397628067 4.817409701691964 12.284227719823711 -0.5393176844351228 -0.4679813987839811 -0.2890732421884312
Ni 3.978748544926486 3.169211121096514 5.215104044868655 -0.08613092746181295 -0.35015982508710664 -0.847141724868496
Ni 2.9299033615539343 3.5773807034229783 2.787519013032438 1.7261910970788656 0.22363403874801482 0.27956453136704756
Ni 0.17931473063683925 1.7309453400189176 3.035727655299013 -0.30704962416119375 -0.1603987849374528 0.6608856125483069
Ni 4.337891626027014 8.84752022930343 10.160373447442394 0.07147435389090272 1.10742426807748 -1.0738469463426668
Ni 4.835553880357854 5.3502809673416385 1.3082129607539994 -1.4678088562163882 -1.5050230033728402 -1.0107795855685366
Ni 3.1685504868989356 0.7412520400385696 6.031471123642609 -0.34504410112709605 1.5168552201210779 -2.226758657328985
Ni 0.11774269295181604 5.089609600508349 0.7550043969966135 -1.578858915517384 0.9388511748593509 -1.7708583580792534
Ni 8.088060738591317 4.298653676573651 7.7494838513909 -0.7200752355345856 0.44226985295048993 -0.398177747727282
Ni 0.8042346713060281 0.4970202295472776 1.0560805235420883 0.6391937293971701 -0.6336666289313538 0.1314255376335543
Ni 7.618005549953654 9.301738806613224 10.453427055605443 0.6720799386022296 0.6786884450576828 1.7718166082274647
Ni 8.24919034985143 5.359250704897495 9.86869507497515 0.10130172166498037 -0.6085988873294487 0.5701230998517536
Ni 4.779511630047773 2.87408442421205 12.125191667640433 0.15744407318450304 0.4761451655416961 -1.3783210964672006
Ni 6.5818426822332095 0.434947598625216 8.496970045124929 -1.3001487617308318 0.3358580637524538 -1.4123442474901804
Ni 2.722659622361436 1.1075857987149953 2.737784423603182 -1.9886842747859232 -0.02150162151720168 -0.5287067416884959
Ni 7.735207639428297 0.6369323174167091 4.56116272304105 2.6629365384491237 -2.6377852359944765 0.300693857146495
P 0.2774263527428629 7.105223146734573 1.5236104146977392 -0.2708796019985399 0.9509831822361943 -0.20524113806312394
Ni 9.102394763670645 6.579032660716749 7.934993655953765 0.42232811972124046 0.5979897443550347 -0.25286696747120324
P 2.8357025078034357 6.003871501715037 12.620410505910932 0.9082177662442101 0.433430400281989 0.5645659174789504
Ni 8.822481262744503 2.6486872016466525 9.381633673338696 1.261511508974608 -0.5172810163500575 -0.22575005664975312
P 1.852939353602757 6.8916522067765325 9.371882340394155 1.0163259693080624 -0.0818945207829622 -1.1657610561451601
P 1.2077602743647256 1.132959734726217 4.891286283924564 0.07296456528318403 -0.024420337825893427 0.026281302294032156
P 6.288921200909676 8.333816660090543 0.20804952681940445 -0.7655220550134751 -0.10489509544319355 0.40848067231518687
Ni 2.177934159983379 8.466176117281462 4.488250108454495 0.39157926857415787 -0.39743084225892844 0.058720139549027904
Ni 6.623378894317586 2.810179696480083 8.969908762464417 -0.7794507492794254 0.26328122082599176 0.3775765265371626
Ni 1.5529555996600388 0.28424112015563113 9.443324811273422 2.378405664215736 -0.08068918762095136 0.7207082411328943
Ni 4.483110188303193 6.240815865677547 9.935710366259942 -1.1937146039352926 0.6768989572574278 0.23477617140776338
Ni 7.3137881543222285 6.405239343218544 0.7066450432631616 -0.2802954959958011 0.4240895824970374 0.7358780068947971
Ni 5.883440678908567 7.677546370098798 11.305528861644193 0.25053806222771047 0.5731875977096903 2.142560685223826
Ni 1.619233027679083 8.656206148508884 7.112716227288234 0.02885651922037611 -1.1595641833058288 0.2618455168207297
Ni 8.945731411774442 9.278216507296625 8.50121857434485 -2.131396955297523 -0.7318364898355718 -1.5958317959262969
Ni 9.13352831331991 2.9075255411993366 5.270012981865142 0.44937432520575515 -0.5025295690724958 -0.6615196465878801
Ni 7.905632652989551 2.1483731058184903 6.980795021797402 -1.4252442433813002 -1.4177006267060874 0.7381886573058448
Ni 5.039810808600738 5.58480610748203 12.582769244180168 -0.7921399147113197 0.2819597710721015 -1.2641373766332293
Ni 4.602387227440653 0.5240634299957614 1.332220965776425 0.056342126235154576 -1.1804783077506766 0.7093563064551848
Ni 6.695732296012951 6.50257588323079 6.836998218752068 0.8621189150036185 0.5743757044805204 -0.2929273258271987
Ni 6.916114281500955 7.231357754937038 4.552910378395523 0.3518248714943554 1.8215250311961853 1.4541606693053344
Ni 8.329192220707494 6.124218582158434 3.1948986257339103 0.8645712331988529 0.136051723551656 -0.6144278353063999
Ni 3.9833822890165442 5.450539185354443 4.348157509269105 1.9651908196496737 -0.01048264469887872 0.3898435168299738
Ni 1.1498384732389992 4.869776592733826 9.24539508379608 0.6288931188021104 -1.5775967609755086 -0.09742475520807736
Ni 4.528824213834229 1.977613122804943 9.690280109505998 -0.15032031765552822 0.8269302829176274 0.5702732522763728
Ni 2.615655491767724 7.821778633432113 11.208716176636507 -0.050750491079990016 -0.1384528767939809 0.06370833679223867
Ni 8.648371585208023 5.288544236342572 5.575787054979032 0.9206457075949176 0.4211495260321069 -0.12458280368010803
Ni 6.6315019035357 4.800624010249264 4.718522997492162 -2.5865714321248228 0.22983091158734614 0.7335485874306722
Ni 0.48054717626005095 0.35460889737545737 11.602123841294544 0.42818149317822385 0.40628160778133904 0.24002919227658662
Ni 3.7691321054469094 0.6272991542511726 8.040100556788515 0.04814133559191709 -0.19620011090677822 1.1546130099481404
Ni 1.8123243075121873 4.228068169209834 4.9703269785466855 0.2759472463294344 0.17170932485426557 -0.27689161252057476
Ni 0.7778530355258237 4.597251029172155 2.8376751056891636 0.10179820168542467 0.7652685442417724 2.6805974460639965
P 6.398735353019848 5.619996509386849 10.820564740967374 -0.11354788602218507 -0.2763869049700144 0.3584794006963955
Ni 1.5135873843085612 6.433693137249463 6.0364696122473855 1.071366088902342 -0.2714712128359518 -0.8777273109648368
P 2.4463377383404397 1.7944127465215007 0.49529792828006924 2.463256182303229 -2.1808510961635927 -1.1447476871182867
Ni 1.1599433850498486 5.683501134717465 11.391433638626225 -0.7018468854520171 0.11363067554397849 0.6714106804493469
P 5.288246485718311 3.3538723363802356 3.379646374792808 -1.000373045523232 0.6567258247436626 -0.15692445323560716
P 8.237252410759975 3.2744194432376528 1.177348769979292 -0.6317323880231184 -0.4038259471519949 -0.44269897006810854
P 5.080798042971633 5.07483372577941 6.405990233074102 -0.9141981521973611 -0.5345961105897373 0.6911878630762741
Ni 8.861495899229672 1.8921773030561206 13.140115611144077 -0.5380946106612992 2.498792941757258 0.5613306983711043
