# total energy = -381179.4039532588 ev
CRYSTAL
PRIMVEC
9.14339578711743 0.00000000000000 0.00000000000000

0.00000000000000 9.14339578711743 0.00000000000000

0.00000000000000 0.00000000000000 13.38228396305560

PRIMCOORD
 96 1
Ni 6.297148123496239 1.5024519417476518 2.8097179846091267 -0.25720364717334415 -0.4871983380320642 -0.7979552358415161
Ni 4.7889175556010795 7.849916172347896 9.905312232264295 -0.8314155723824906 -1.23580639089902 -1.0295643223752073
Ni 5.514930612548085 9.162688368161948 5.951503074973505 0.6027663398080716 -0.5481314260720109 0.1848108952332301
Ni 0.9039654834236545 5.92691374064045 10.491965307740028 -0.5024940878488702 -0.15150585332319713 -0.18784659673576035
Ni 3.180237641413969 2.066178866586898 2.378499894765953 -0.4402723629044869 0.7318580871021266 -1.5215294856682957
Ni 8.18253462487007 2.542202338883599 3.9311527368304926 0.9230712863172748 0.9578889082170924 -0.059620282765794085
Ni 7.196675402597108 3.91138928680227 2.007650161372622 0.23547062637162675 -1.0173361557401317 -1.4225792949546274
Ni 6.0806782278597975 8.797684007705486 11.417778021095414 1.04771271114946 1.3293644640628397 -1.568715399325479
Ni 6.979775767357926 6.800903515263492 10.177333743441551 0.9433616611351946 0.3655992995706284 -0.1816702927217194
Ni 3.718783654211705 2.309228613822711 9.191675675876255 -3.219603255685655 2.6272079746992625 0.23046006053091278
Ni 3.8913012462230405 4.721951324739779 10.490037879904753 -1.2124191223233314 -0.0160501114843272 -0.8465344303018002
Ni 5.495747768153353 7.894252498596728 3.8632776524263717 1.7429955702307143 0.5269609626419828 -0.1486753258529375
Ni 4.3691076807013305 3.827736358600462 12.55167247877755 -0.5357140262442645 0.5507562652893676 -1.4445555421154024
Ni 1.9849763684602988 2.4444502943535382 6.936438814270363 -1.0444088435872076 0.24250722150343393 0.5786295946608679
Ni 7.418110162154588 2.2692445439761153 9.883151383856521 -0.5130543798632197 0.3770234822471701 0.2189957686450551
Ni 2.8765397498167404 6.9173263740233155 11.260282114048854 -0.7165345693711789 0.12241536371514401 -0.6158321718530942
Ni 0.8797153690748911 4.107981439962951 5.303051615944338 1.3758692924925982 -0.830162673811996 0.501893992371026
Ni 3.613872330767881 3.4455972744091454 5.280970315080051 -0.5258710720119136 0.2678662690935129 -0.6660046789424272
Ni 8.863818189548713 4.979886520342904 3.533712179762826 -0.758031917284017 -0.15797217777383116 -0.2923030619796385
Ni 0.7299346594069193 2.9433871165326013 2.174808809103809 -0.5856625902482494 0.5401517503006439 1.0308593870375473
Ni 3.2094690777962165 4.631203121394829 7.380797792561634 -0.21924747964454497 -0.3064289598580594 0.3959010358779633
Ni 8.714360241752587 8.146564505780999 11.523257149418603 0.22379524691622749 1.2339994195972683 -1.704601286723232
Ni 4.088734591797599 5.168496488967551 1.175158602941156 -0.6430460132637248 0.19694470238228662 -1.102847447340075
Ni 1.7040546758083868 3.8290712943877026 9.339054415466775 1.2929987809496117 0.45644305912707844 0.8274604443894846
P 5.132416649128843 7.333396600039629 0.6343688008133598 -0.7264567135808973 0.31617729749407486 1.0831949632164701
Ni 6.927448113177255 2.996053076357983 12.748994274923312 -0.26414536859849996 0.21818278582545653 -0.5141157312481984
P 4.9271839869343115 3.000231608239962 0.8896652123877349 1.7513724814404998 -0.6334334298746253 3.1464880237572195
Ni 8.052561253530174 1.7502288246136255 0.9177272084467761 0.0839452326644038 0.2387595815355436 -1.2354742043705818
P 5.511346401393301 3.145062997759761 8.696932015012456 1.717971280272235 1.165404958357322 -0.35713959883904944
P 1.5011718663352294 0.9059111980505365 1.331227225902863 0.21332700039505198 0.6008889202797006 -0.6172241671046144
P 6.767703845102735 4.43967640950902 3.979490213082725 -0.41834470959346015 0.7414627000714262 1.5941155845661383
Ni 8.335265908363676 6.353690883142099 1.649473174562273 0.2903657357476096 0.5148744637910939 -0.001306377516249363
Ni 0.19276564201711816 3.6153169873047575 11.320314907872728 0.2099110327349675 -0.24046987935843103 0.5262454246321969
Ni 5.218099411198922 1.9977588357929172 11.29341686609941 0.11917834483508509 -0.290732375058409 -0.7050311967172697
Ni 1.6107828952218042 7.750701184489352 6.8614721120814215 2.05061623640403 -1.2904104513971453 -0.5636552327392228
Ni 5.807418700890813 0.6968968273518757 0.22270660591367952 1.2256045106653537 0.8612267422066523 -0.3961478617814468
Ni 0.5988073915166835 1.2914772269888244 10.329718492234221 0.09801585182485699 -0.05751454927670095 0.2201828469746208
Ni 1.6379113505693574 3.0488196135371974 13.54755560586936 0.7426641765786952 -1.185761667636803 -1.5790352931942484
Ni 4.334783372856802 6.715970511649261 6.961424057641689 -0.03868250417186241 0.9559091587829022 -1.1144235822134485
Ni 8.111947609270773 7.5199035876295826 3.9968864379375466 -0.72902935940408 0.8175035902870887 -0.6786002562192506
Ni 6.525358139343754 6.784481976401273 5.717313278270816 -1.27696358186362 -0.7365148691478477 -1.1795928198219297
Ni 7.036803126981345 7.646539619501376 12.997850992833621 0.829532753537481 -1.7118366281294066 1.1443013436094873
Ni 7.88886703846875 8.392750437777247 6.525442258585143 0.7764435870219853 0.2595155831359724 0.8457571858161436
Ni 2.3955697003906065 8.001705686073791 0.8487302293776252 0.43202169285992054 -0.6271259995993587 1.0587463432558024
Ni 0.7199162406255529 6.638964832196248 12.880114228096906 -0.6440968231257423 1.0774822291024089 0.6599204204215602
Ni 3.7200362994367184 1.5403238871637508 13.330641341196893 -2.283438883629848 -0.1705862669934159 -0.4863470457753624
Ni 5.071613067038777 6.191359034055325 12.166048846445703 -2.7227650805709818 2.519546629364841 -2.068435781083954
Ni 0.7554959367138353 5.143562448612722 7.504129401190217 0.5110373494331908 -0.8600754022110284 1.6146723256715676
Ni 5.285733109953842 0.8743939127175349 8.945976172536728 2.178508564073345 -1.3916401821736095 0.33859320329542975
Ni 6.3677625692829425 5.236660504679047 0.11856241337772896 2.2225173655541273 -1.167072832978048 1.7301164002752012
Ni 6.753632158961891 1.7646296730033781 7.244218317754059 0.46886457271988286 0.7160535159697023 0.24537425863858386
Ni 8.84020079818952 4.5625453623099705 0.19391496686955748 0.05199927588542657 -0.7782837255545176 0.23496900414485988
Ni 8.837274911532553 0.6572254616417431 2.6094648157689178 0.4139424667607065 -0.9428168443753182 3.2896287929451735
Ni 6.814015144845019 8.467762856945203 1.811225332355136 0.8962225415555468 -0.6579355287810476 1.0433891440734417
Ni 1.6901567141877998 2.183680646051477 4.278730699225983 -0.19870925048187713 -0.7507266418718556 0.4453940004017684
Ni 8.14471753982879 4.577092505032571 9.363289900382252 0.2371819526357786 0.7116127065895294 -0.4223039513515243
P 9.243150251228503 2.809408937830985 8.593594269986331 -0.9898510629459855 -1.384836271877899 -0.895459438137277
Ni 4.67102261011697 3.8841419673092776 3.0431315070081397 1.2209546705981682 -1.6110128745421095 -0.8218783223160168
P 2.4041187754664275 5.861108721046133 5.705215651283844 0.4073061923911114 -0.15066484547914052 -0.412953877595192
Ni 0.7841431101042696 8.949427804452366 5.06837904794325 0.5699950589143216 -1.0124839698541532 -0.7421263017973542
P 7.671601667397447 1.061401958397493 11.857653992424463 0.3219077722199488 0.49497643931558627 0.18379505237420607
P 7.430837769112388 0.5345576635484593 4.606771053469585 -1.3248313520791766 -1.2769442985899104 -0.8450012814867255
P 1.7336884216059667 5.710773007252918 1.4664571354899127 -0.09505934029969436 0.14888615631216295 0.45584142098733754
Ni 4.497755259649788 -0.12711514581187164 2.0827119548779143 -0.716081026773528 0.5861996936986421 -0.7808116341826941
Ni 1.2448916253724496 6.786630674414981 3.5702866773144764 0.962151025927556 0.5186953801990809 -0.5228453978117125
Ni 4.218625672575267 1.2430995197950583 4.190126622196841 -0.12191528415027392 -0.7093393371743203 0.7467350042139591
Ni 7.544663903464154 0.04706380121687239 8.965153530893977 0.1111387623600602 -1.0266504911625223 -0.0690163792687134
Ni 4.751338198850677 5.54294597728853 4.6253988937390735 -0.47610505633238 0.838718276691491 0.4350126571674444
Ni 3.316117646442613 0.4804753917131906 10.452379889950445 -1.40409717699004 -0.03761909590435457 0.039127562129080994
Ni 6.276420045210798 4.717096181568376 11.00017079024461 0.6301763563899083 -2.1026319673496885 -0.42049235206408225
Ni 5.221317886521584 5.710882728002554 8.818616898056915 0.7927119851647056 -1.422008767163138 0.06885491399018465
Ni 4.374355989892262 1.8984798441637525 6.822087848999503 -0.02305302516472159 0.2815262830791087 0.547409974524954
Ni 5.479728538706467 4.320391667862853 6.667133805986184 0.6824263148335601 -0.2780468091709405 0.7538621021770436
Ni 4.019619662922589 8.529087612596042 12.293408120925516 1.1157592703057364 -0.6117034943967014 2.338515769999334
Ni 3.571346396888046 6.909609347965568 2.5876651314953634 -0.11542633399182058 -0.6593527208435483 0.6312881013968482
Ni 2.7296876698244743 6.518902901906824 8.8531707051361 -0.44439924058866687 0.35077020497759587 0.19729488663285377
Ni 0.7362518315672242 0.3577783347533371 7.876397275272596 -0.5405824100801593 2.0409087793082783 0.7748042516463495
Ni 5.978546496740091 6.01157244238059 2.493708510563135 0.4267373045325296 0.3420009434253981 -0.1836335870956773
Ni 3.545900326368248 8.932923975027919 7.926608233324867 -1.1038704892879507 -0.04738003194586034 -0.4681701177560195
Ni 7.849797308202457 4.009360772831603 6.040736217633895 -0.4143785258568606 -0.22826819508591653 -0.6236789215910227
Ni 9.057310731532171 8.532955269020718 0.7812601974075781 0.023834126305120242 -0.3066631873560525 -1.3373186859129098
Ni 9.25759681659727 7.368900405942748 8.644888720441259 -0.8731546039924898 -1.2047700904185057 0.1261059251928538
Ni 8.729410271244355 1.4361074618009564 5.931255939307304 0.6902494104224048 2.622246774039245 1.6821848667012447
Ni 7.647353381727845 5.887414270771414 7.3937119247938154 -0.45258280484072383 0.2035238982617011 2.018559722189117
Ni 2.291362418423615 5.150502286027213 12.716408126620937 1.1881000859619926 -1.145900312665491 -0.06403615244530261
Ni 2.200166188684318 9.096325601423647 3.1990885805410505 0.2796550341983248 -0.01439277838656231 -0.7990235292050303
Ni 3.5122251996257345 7.854698168352874 4.777127146713088 -2.027009138508051 -0.08028912396905527 1.9171788105467689
Ni 1.6997115628019532 8.975879648510496 12.380338956522706 -0.6733567484321241 1.2839772941772918 -1.421548796807584
P 2.425029721667929 2.338121744560247 11.496278645762219 0.009367814368145157 0.594403569665673 -0.2753882885021709
Ni 2.451079256310726 4.523000175461919 3.4738403097050865 -0.6886859225900268 0.6647471523862423 -0.8768343668369221
P 8.213951332849238 5.633721610820889 11.732034706165965 -0.5466736105795617 -0.02479880421123471 -0.18454015807034668
Ni 0.19498657285767113 6.304261685430986 5.695071967979977 -1.3042123902772442 1.0752438266901934 -1.076186907329753
P 1.5194952315244767 8.456580483878113 9.786959202650456 0.6350095161124935 -0.4720164880853032 0.39865237337085535
P 6.165739239015269 7.592566154076163 8.00979210532198 0.36890728089793884 0.5773916084887089 -0.1713732816710855
P 2.73958082408334 0.7472540797369951 5.768727507210764 -0.2521234044369593 -0.8787287556461575 0.3249946386753887
Ni 6.007942514246793 2.623688282280092 4.852469642469533 -0.4506123113779143 0.06422744252050229 1.671668026330321
