# total energy = -340855.04776071734 ev
CRYSTAL
PRIMVEC
9.43046598798185 0.00000000000000 0.00000000000000

0.00000000000000 9.43046598798185 0.00000000000000

0.00000000000000 0.00000000000000 13.80244021951805

PRIMCOORD
 96 1
Ni 6.514584754192004 5.174355221689919 3.928643477435936 -0.9454074879206298 -2.5272781936811444 2.181628083538933
Ni 4.010399959131114 3.790943585503356 4.698005410619894 -0.012101154138908193 0.5352666542942007 -0.3161605853235265
Ni 1.6443714905558342 5.708176178484765 13.891742167232387 -0.19397559245163368 0.631347493879874 0.5793752145776409
Ni 8.242170676482242 7.609537297235778 10.142391651897276 -1.1659081232459856 -0.6148978329642829 0.4056084929737144
Ni 3.8551179064408703 3.9070703434790426 11.410974162225859 -0.25064990521522645 1.2378979833207262 0.8185402590817193
Ni 0.6200286184286719 -0.24669061630747047 13.267526421912276 -0.5349455235093562 2.275229094125546 -3.67998215953203
Ni 7.256281472401342 8.752547494871406 6.334671267430241 0.4441999800936673 -0.1653712984513797 0.14337679645815954
Ni 7.081421772353821 9.005331135243202 0.3120908978213074 0.23926994551305888 0.4853070345466223 -0.4466430423175211
Ni 8.431798486241469 3.012354884412673 9.442925503355871 0.6995740302574404 1.9710331373630632 2.2443642862258897
Ni 7.318267925233418 5.057238264787203 0.13173700829866497 -0.35594557853094827 -1.564324983567267 0.3634184898692257
Ni 4.6567640968323945 8.631922404627213 12.233917173921308 -0.6362307901141042 -1.4535394907815677 0.7568720926479611
Ni 2.3155471842286945 7.444909652767565 7.691382425311089 1.3091941597625516 -0.5900200958859968 0.9133861978190269
Ni 5.258955931922166 2.878131062237267 0.3642489190176634 2.0632784052527304 4.670728994819408 1.0577868075560104
Ni 7.034373177620939 1.4702567973200777 8.95528553842451 -1.8294504566908494 0.6449062064009151 -0.5796868322807888
Ni 5.14783675137746 1.0132375553988717 1.7326340507248974 -0.25496730164365766 -1.4116461929818915 0.45307902775085196
Ni 3.1859509020199854 1.5050552167557025 5.926298141177525 -2.0099077029410735 0.9942337653947136 -0.014741934195864934
Ni 2.8784328371483623 7.7366222566705956 5.0817546471738675 0.4461951561468251 0.28369783680913074 0.16498563297718682
Ni 1.2065621078190096 8.725416044270785 10.21691119400576 -0.029897816000696895 1.9958558528336985 0.8277525217086067
Ni 7.832350916749466 3.702863033327547 2.1073290968994285 -2.3427331505147913 -0.4422803944734512 -0.052309608036993784
Ni 2.508051286109293 2.5413408309894434 8.3722432075369 -1.6187724638828704 0.21143672535087457 -0.5784131077746877
Ni 1.029627705257711 3.9560238923382105 10.145773416994732 1.3948946845551653 -0.8047378059809882 -1.8908743683242855
Ni 0.5571255243041449 1.7033590552089055 5.547945960299162 0.3088925909072035 -1.84943924110795 -1.8394852152190322
Ni 4.012455800712948 5.307315361425116 1.0415468711993603 0.20415638963937743 -1.5180075885579662 -1.4657573730039983
Ni 5.797378956111208 5.038547081231266 10.646070953353329 0.2956868908502069 0.8142236339842364 -1.3401096183944856
P 8.4441901185283 5.344490258285612 9.255792051846164 -1.2233607089364995 -0.5055249042553939 1.2461447967105506
P 1.771079231351784 5.295442404766728 11.793384272611851 0.69736982351727 -0.5336568866049196 -1.3460843479206817
P 0.026280822569972693 1.0195182457360334 3.349907097311011 2.1172965113403985 -2.507813400088313 -0.8021954991751087
P 8.475612431146052 2.7326566941576065 0.009190932136032507 -0.7798395000774118 -0.23031607875388077 -0.5011877103326208
P 9.299476799366936 7.653502129595909 7.197309939540422 -0.05232066378058731 -0.46859306422605107 -0.20354343864572688
P 5.256975534068106 7.335148459322786 7.186930768691954 0.41785054356586104 0.8821439519752936 -1.2422572887306862
P 2.3143683759822298 3.550966517921149 0.8284296567977889 0.1765121455595476 1.3641332350025925 0.9938362728459789
P 3.5987035366699653 0.0839933882236683 7.416355144851813 -0.4027483978170999 -1.6373998491760704 0.32682809233970167
Ni 2.3325597448416664 2.262227329624623 10.80495072881178 -0.6516255274026197 -1.6874520286374552 0.638679765875229
Ni 8.400347882225802 4.523417307992357 5.635604970646036 -0.2576065390387176 -2.2135305886744847 -0.2695251448531745
Ni 5.553271344433389 7.762622051354612 4.582534070029241 0.13478314125187754 -0.45403676367843093 -0.191358980764393
Ni 7.14150327105961 6.181236643023856 7.564924591863391 0.28057883156417485 3.246892687529227 0.08947747533654268
Ni 2.738701622845475 7.095925829018316 10.602357914434641 1.0911682112299337 -0.5318725410109872 0.534863505318511
Ni 0.7613790437389022 6.64430081363293 9.314079875924133 0.23414162314755807 0.9679938578615779 0.6744404684146063
Ni 6.5529290288329936 8.744823943240572 8.662797750218605 -2.440446897718197 -2.129429804268823 0.45173305524591884
Ni 6.674591470334076 2.9403249853207214 11.713716639129407 -0.7249850141313772 0.8271819939171173 0.12237139785108601
Ni 4.375358992236447 3.382566687064251 7.104005852262881 -0.2092111784544655 0.008952066986965228 1.5373302001459783
Ni 9.042600336763416 4.64298618604772 11.531994388994269 -2.8767219665378327 0.917561412242639 2.0248396416605576
Ni 3.587302103310163 7.140541363530495 2.2151117785833425 0.26088906644473137 1.549758655717318 0.7171338935180747
Ni 6.795301434772016 6.670894727673165 2.458407427140996 1.1107229934334097 0.9256681005101736 -2.0761179802195597
Ni 1.6995114250924461 3.252850627623325 4.1909452871129815 -0.2595204682319789 0.09598108078301534 -0.5262035156506679
Ni 0.5569661494292228 5.07394905048908 7.835810954714487 0.6962611638341235 -1.8592156037684238 -3.0503655323003334
Ni 8.588485678361497 8.106211648568042 3.793131453608794 -1.8884924983556701 1.0461595077297272 -2.2040717572544297
Ni 0.23997612453561007 6.096975429566591 4.775492720369677 4.408128602110525 -0.11679570353552142 -1.5999087942091477
Ni 3.6767972253817294 9.069854383421669 9.792596808074459 -0.1548799120017526 -1.077115075570977 0.44636330629357324
Ni 7.579397527990181 1.2127579239624258 1.9456060359505045 0.6304368091401465 0.5379305742796091 -0.23197135496911664
Ni 1.888780877144747 5.0551635622734254 2.4637082920636963 0.7853619725575378 0.7223275219038721 1.5091264840182526
Ni 7.761424382176204 6.663944474252012 5.217308165051286 -3.5004386833453265 0.891760134908819 1.7196923767283998
Ni 6.172428587806275 2.572121871921118 3.3921433252585267 -3.811287369537636 0.8775514475086048 -0.0365834555509886
Ni 0.4381507656050005 7.060429555100784 11.93444518261675 0.12225724087072493 -0.17777867097679706 0.3522917838284449
Ni 1.213314321454757 -0.10805805129028818 7.517278105587902 0.8979919747511438 2.557106075675854 -0.43643319166405486
Ni 4.495588002909829 1.3784417806194698 8.81354846400944 2.0229995031280255 2.5989111846370982 -0.29664436966746976
P 5.4529406169603245 4.3523109334015775 2.19066801078466 1.6648255494871906 -0.37728650610056963 0.5645515193012471
P 3.295815830590454 5.905235195429702 4.099200055860565 -0.237458603335933 0.12778819799128316 -0.06605395420627978
P 5.1170557104457846 7.430009516532258 10.402057646335226 0.1954470347908376 -0.025406870108878824 -0.2830877140289576
P 5.324280769708229 5.357174235017568 12.71373173818934 -0.8545729843355605 -1.322002881491446 0.8347243250407494
P 5.742182438778766 8.423858033893286 2.2199703546519696 -0.8796124438026915 0.01360859192237011 0.04994882111430107
P 5.808799250402953 4.0966604313743815 5.8399367629483585 2.258262127253904 1.0495081124869863 -0.5985595008155756
P 1.4319973968728341 7.863037653021423 0.7261986904314228 0.3643852246578692 -4.180363057692639 1.6324293925446725
P 0.7214042415314035 1.3729532494239323 9.658975592674645 -0.5630322544432432 1.2981643843109512 -0.5802817855523102
Ni 5.377402584526894 0.6933005098890984 5.5770832710119675 1.1934886039674155 -0.4319090785414561 0.9363137531494778
Ni 0.6843547698683304 8.543040262843807 5.266928447854654 0.4851653667624354 0.7420836214848768 1.6348912238216036
Ni 8.965477986046738 6.732984915630929 0.8495208939435274 -0.661401375842461 0.030513595207824873 -0.08807493856206122
Ni 2.2171779936777454 0.4891884474439169 2.939877981233662 0.49393102877020734 1.3164685819367778 0.7471584649046229
Ni 3.2939485983280545 2.178041559895132 13.35841536685446 1.2811333969705938 -1.6111995366316185 0.23461033525386046
Ni 9.4318805416098 2.091243551091476 7.591024349486706 -0.4711996486109627 0.5253653360200887 1.1438879102211525
Ni 2.753479163023151 5.163217841377325 9.424719988797477 1.185825945215835 -0.24448697093762412 -1.1755847271038014
Ni 3.3629701787750297 6.471798730078337 12.809188800848222 2.334865574841256 0.7196386622177994 -0.7456525697830577
Ni 8.034162888544147 2.06617737253866 4.219350793666382 -0.031384427848552394 1.352624977252677 2.6746854514549354
Ni 8.75179305759367 9.371478407060971 8.797716597736125 -0.1550028107328621 -0.18641629204713703 -0.6516751496936326
Ni 1.3261969991361742 7.815753296639249 3.069524255226398 0.8731708019424059 -1.572248352179402 -0.4512802839792164
Ni 5.896210239494771 7.085910674156356 0.038412173995985635 -1.6235256622971392 0.16158303505354105 1.8877805598903101
Ni 3.6601053006117956 2.854337996590633 2.392335696449973 -0.08051718081946133 0.44175871764202634 -0.33775142412042475
Ni 7.156865500127532 6.397458366823316 12.089530138568184 1.3068775958142331 0.43303907838084127 -1.6583785083102665
Ni 8.611901525369264 1.7349605466801192 11.790954984577537 0.8365863179501528 -0.4632618818211247 -0.2263465525831715
Ni 1.2908421822082181 2.654742184299305 13.051974261196806 -4.039277885482134 0.8795995882868852 -2.547341797200239
Ni 0.650103317459065 1.878992053466108 1.3667027365778803 -0.16570631319329526 -0.32237159923024483 0.5111180820724552
Ni 2.8838270636841825 5.603714906916088 6.484248831254194 0.06701991766397489 -1.5230644342555832 -1.0410188440690522
Ni 0.23736860069443114 4.320332223291496 0.9724649357701662 -1.299283328406743 -0.7865984160678001 -0.03590391298546075
Ni 9.29351674487281 8.997220934507528 1.5532854488748398 -1.1147154024222543 0.6941040082818045 2.0285602850452547
Ni 4.425114130703211 1.5900708674907047 11.348780239142407 -1.2195853010544673 1.061458599980643 -1.5039588237743842
Ni 7.2365340766565724 4.081675420945328 7.607436189417281 -0.6169565152655245 -3.4926330712579783 0.4848835738559585
Ni 6.232264894396801 0.5256437997507718 11.264930194001508 4.322891132997258 -1.4038624352714144 -0.8681599789913758
Ni 2.8745757765659308 9.202984271544356 0.6487839952696223 2.2616513554411117 1.769763325242862 -0.6131991051056213
P 1.516258610330099 3.498495405254532 6.356271749738452 0.6235930467454357 0.4456621664614906 1.2456850834653128
P 4.250999437467454 1.5908630266323287 4.0812161572525065 -0.7193524984359482 -0.33323116765256805 -1.664789811153249
P 5.1728180557365295 1.139737825943444 13.266974739652929 2.137801059051654 -3.265111267419783 -0.28500652831822526
P 8.116349399487634 8.37948769149637 12.189417634140579 0.0011886209914624692 1.2215475669871607 0.4533057990496774
P 9.346798877612995 4.407271689084728 3.3013647167682105 0.8907440349394787 0.7984889968577991 1.4411786552233696
P 7.415609194993451 1.6005481151852792 6.509838400668441 0.5317876946066649 -0.27401017720772164 0.06991986491958926
P 5.764702391519218 3.396750107885709 9.190161666962616 -0.5141483842583467 -1.1281974960690893 -0.17756552652472646
P 2.788324734788634 0.15481901681103227 11.940380717899346 -2.139623456972373 0.16378852734529212 -0.052672647803367355
