# total energy = -381163.67473091645 ev
CRYSTAL
PRIMVEC
9.24077034304710 0.00000000000000 0.00000000000000

0.00000000000000 9.24077034304710 0.00000000000000

0.00000000000000 0.00000000000000 13.52480146842916

PRIMCOORD
 96 1
Ni 2.0404544745534094 6.070594632014938 7.60844453781914 -2.637000278199336 -0.34567247873971435 -0.470918369925118
Ni 8.841208566315812 4.530047345380511 12.880939719199374 -1.085342348576776 0.1338259195449308 -0.1768618155894825
Ni 8.531365540493722 0.4285675176640123 7.824949315776 0.2515513339835732 -1.0533745374209278 0.05272586963880597
Ni 4.060329753803932 2.918724999552185 3.130774802181015 -0.48336405188763854 -1.5309872886470859 -1.066677425177421
Ni 8.9731205613534 7.206396182562053 8.157875785633388 -0.7337301073138589 -0.7491634111497936 -0.2780421811852502
Ni 2.688380320021399 0.3645603985867892 2.0096633040690137 1.8479346315379659 -0.18034797436587008 0.8018764252727931
Ni 0.305600588209358 3.467478898908553 4.8797208631262805 -4.181509769702573 -2.526311716002817 -0.4636357202207757
Ni 1.2690257349574074 2.7778032535400503 13.151949332205634 0.011420326021799687 1.0066539934359373 1.6696643656367307
Ni 1.843422771702869 3.6988400631646727 6.620931475311758 -0.803781612715306 -0.12561561581999656 1.1145241123470546
Ni 7.599027268877437 8.629862910378531 2.2272372391415196 1.178071755191713 -0.5658877216141673 2.132007078077696
Ni 7.7828169479879525 5.456536209441012 4.845855288386262 0.32126062555425317 1.0526464010056515 -1.5488045193341649
Ni 6.6676130742841835 6.648216697570775 0.6160627456368789 -0.029172507798898146 2.137083721269655 0.3027319706224464
Ni 1.2327649525736948 7.9904016104414985 6.409701329002355 0.3253605066552397 0.46882986282720546 1.7330785682273186
Ni 4.955769629890613 2.76625229075217 9.271386750230967 -0.04271270837717805 1.212264599023338 0.596338839015173
Ni 7.349313934943934 7.287114310523759 12.090618224867516 -0.6620585498104856 1.7380587950507291 0.7294926721937436
Ni 8.040144676591225 4.84108243056231 6.8216659547935805 2.1642826502819497 -1.3669383085515556 2.1324642202197728
Ni 7.206183644846757 3.7703081801258427 3.5977728350788154 -0.19895221973061863 -1.1837412947726644 -0.8656140726410706
Ni 4.795349858692536 4.779871568556777 4.036017287328002 1.1107826430267516 1.199901706582611 0.38107322683651146
Ni 3.7726922988452616 7.236964650483899 7.32417996399453 1.189778759215996 2.5034787772687013 -0.8688027547816974
Ni 9.141154727221247 1.1398859709889102 9.987335753518268 -0.20453357047313805 0.4629551492139833 0.29065524196357034
Ni 7.3799286067169305 2.3383029806165654 9.024423469518002 -0.21318276150770385 0.18198293886613176 -0.5634958243432231
Ni 5.718123933120456 6.780683138822182 8.891393341282546 0.7117276349008388 2.0136082917211127 0.07774373183938223
Ni 3.931725954508792 3.9662771943998982 12.666381971530038 -0.29473686823211176 -1.4712289376415308 0.381146246166292
Ni 2.95688013983311 0.6764031270867175 6.87951225235826 1.5680687668804156 -0.5410716910117521 -1.4430781862389277
P 3.24207803145098 3.0332181427056506 10.606716859744852 -0.9988920901023313 -0.380690389575796 0.8511243636653278
Ni 0.7480283371418032 5.57566821925009 5.3199807273626964 1.543487992217258 1.1982253473214526 1.3862992295766707
P 0.4538650502464923 1.080929856919571 0.5824725458497242 0.7145617619155241 -1.9811745966724392 -0.5145322499603269
Ni 7.463723911165328 8.412908106911456 9.71018564869397 -0.5834159603059178 1.0036393749793295 0.33801007709845016
P 2.1399868107040128 3.9348955386977864 4.3581376004780745 2.024077823793869 2.1413574089443443 -3.0026713115481645
P 9.066711082245918 4.7385560848570885 9.018351359399668 0.9031835462544122 -0.09464642113199184 0.04611067831513349
P 4.256612954265817 3.4537748366570122 7.0810183361543135 -0.7218055879621311 0.22566855267954036 -0.7720102338409801
Ni 4.536053846030208 6.254975720420192 12.786996200884056 -0.22860938047541918 -0.1771801181608497 2.229313048319722
Ni 7.419035546331577 2.220843550219172 12.217047670927462 1.6194136970112947 2.713085391389373 -0.0617463279698614
Ni 4.481745839386712 0.00016171347903031863 0.1749259323056072 0.050362254502635845 -0.43741920972640796 -0.9651736148039636
Ni 8.546483440590498 1.297625918820198 3.674985938892166 -1.5925418123211155 0.6185259166351735 -0.48583488202563435
Ni 6.871316613241003 -0.1887205541054049 0.22318862706443854 -1.5459791340702278 1.2401821513692126 -1.0201404579581463
Ni 1.7460712573266173 4.843910106252784 12.258596022036956 1.2273837140529635 1.9145868814498768 -0.508388341846118
Ni 6.883967227686289 4.82923576312706 8.75863396761484 -0.6785357215299023 -1.1724001587282324 0.8893019031763136
Ni 4.253517296238665 1.1640967889923064 11.756785235450531 -4.880022448575034 2.403062800642784 -1.041022443613478
Ni 2.1816904067533742 8.89892641717429 13.020420829132604 -1.0953652800304166 0.4789155291979817 1.1767648634548316
Ni 8.926463912460596 8.20571155680758 0.3126106365060666 -0.4978213649635491 -1.2437649836244644 -2.1570840756509817
Ni 5.814440481230913 5.5295660165711045 6.3393180784662215 -1.1869777994320911 -0.924195629729705 -0.5929416404081659
Ni 3.7981875839106696 5.17340825035473 10.714455923936987 0.10215584213515955 0.4490066574536912 -1.4033651839200219
Ni 3.5200866038296734 2.1784376556323073 0.7598611434217074 -1.0206168833739324 -0.2668889927819081 -0.4296315953611891
Ni 3.0137848029113212 8.426473557609542 9.450725150321542 -2.0592219757951695 -2.669401320237861 0.9007965340794746
Ni 0.42698827003165335 4.869257538994506 2.6919084460953293 0.22278891713890017 -0.5771977473103479 0.5717920029137442
Ni 7.242527594162541 1.1566579689569119 5.956187428024615 -1.0530865738668638 0.06186974092160312 -1.0262951647056324
Ni 1.6259874481838177 6.275018951049722 0.805368240497862 0.2966965630616439 0.13739306807089885 -0.5929480681660692
Ni 8.427471560794414 2.5583719236512534 1.2997013958139245 -2.2940092029465267 0.686606671463495 -0.06788715076027663
Ni 3.1675604603138092 1.3713949875687144 8.978046815963175 -0.16338255015612507 2.143509936510973 1.7633047141017115
Ni 1.1823195878864659 2.1651679095815908 2.271003375106285 0.9531421375607263 0.724890654645358 1.2541285862469758
Ni 4.278929414372001 5.253719784426301 8.218386197255466 -0.029026212029020976 -1.6485327258644384 0.20178120453898152
Ni 5.748359733314009 1.9826164936819368 13.578224214775508 0.13161657059843784 0.49183866501755297 0.4050868161422895
Ni 6.4097308994670925 6.6641477854478195 3.6249175976303336 0.11011700596376521 0.6841872633887248 -0.47864530625573054
Ni 5.425570388399264 1.7621409567571156 7.373342709773794 0.3116876371538374 -1.4570624163331616 -0.27293339920377513
Ni 0.9504409404974494 7.550845892896633 4.290783474423435 -0.4458807102301998 -1.8592528847642624 -1.6391104041092739
P 8.451432878001592 2.517130366113407 6.880674741253232 -0.2921678219533549 2.088604542722345 0.20467523825732492
Ni 8.684753085546536 0.5642682284960254 12.234954435479747 1.3799933419633006 -1.4107601908325123 -0.8751222692418219
P 0.45463850271476874 6.891415288491914 12.301970349343955 0.33755756294206385 -1.1640425307921565 -0.8913479870720649
Ni 4.31263050340192 7.045754632878451 4.9031462156601 1.1382178564195686 0.5896439434935006 -0.19505648422063826
P 1.112856718065271 0.23471741200376572 3.7154115364186766 0.6679756866258689 2.1765617247596194 0.15425770503672143
P 5.937887930737543 5.877859887321488 10.966666113986717 0.7183168580825823 -0.6066787874886003 0.028297304282796427
P 6.925707786816572 7.207643686543145 6.757775269421258 1.4372998889942536 -0.23150572818660778 1.4838391702063733
Ni 5.516009806643249 8.752025892823148 6.687797688698236 -0.6294816443157288 -0.041035063564439006 0.046739313038067894
Ni 3.2824879196680987 5.184746675427314 5.775793731973736 0.8086898486502008 0.8184520702432873 -0.21968508140259585
Ni 5.292281518597361 8.303996388977094 2.125300454576991 -0.38456889869459576 -0.19351793608892479 0.6807586973231502
Ni 6.281940287952219 3.586629390258092 10.911633630957166 -0.29589360754437427 0.8286385238579858 -1.1389858449338448
Ni 6.315844673927204 4.555949224336052 12.925395216623318 0.08260620213800612 0.1733993109621788 0.31164341417946323
Ni 2.5248186869450198 4.184146834119773 1.7282393430131997 0.40195161294741744 -0.16242661400075897 -0.6852203326389296
Ni 1.3690016280790656 6.280933043997116 9.832125004499014 0.37122898705258 -1.569657194413458 0.33088015092188827
Ni 1.7563562345929455 1.495526254072387 11.483556913511975 1.2454043190001003 -1.4990770702020506 -1.4434576810655333
Ni 2.938139857806054 8.870206103298505 4.8626531605109085 0.3319386740933896 0.9366896484316578 -1.2101092432432319
Ni 3.1511580931550194 2.3906334624307766 5.318817314390701 0.5254062165603531 -1.6461043189286038 -0.18232669535879567
Ni 7.970487750595194 8.176381352096596 5.236235323073544 2.336843010282601 -0.7188110241101815 0.6539750014714028
Ni 0.8929661218960281 8.225967325152407 1.9904859336100638 0.8053507569746389 -0.8352539722919744 2.116107376128304
Ni 7.524149307701284 4.7866912569867415 1.3057947597037867 0.5489850323215577 -1.5545316516259293 1.9506669150018856
Ni 2.738326683116192 7.202053020553811 11.644217868813062 -2.3584127660335774 -0.6797580239727777 -0.06807329862915373
Ni 0.889861223098646 2.3193039570230605 8.166274721695713 -0.03688221773833003 -0.366588145846459 0.895504946663232
Ni 2.8518033415443242 6.063747221274283 3.1435150520975355 -0.7631080462553439 0.5136202796690187 0.470520620266067
Ni 4.7766742620570914 7.738193268545814 11.119388323582951 1.6927852679249102 1.3209610704904928 -0.8511145934733149
Ni 6.177528825120015 1.6991096630162126 2.463961746439307 0.5417342642964154 -0.14084863071966713 -0.09247846694639557
Ni 6.1032237916981416 0.5317582747487932 11.590051245954088 4.118683835515287 -2.5122950900087506 -1.3190908500509733
Ni 5.414204241015989 2.8209946135964907 5.170179525236262 1.3056838326164482 -0.2627862834674442 0.11843786712463475
Ni 4.969242672886395 5.827848838835084 1.9473546385601204 -1.040236457377073 -0.6953147407604541 -0.9698581647638266
Ni 0.598793594230487 3.3491877991904326 10.79003248734255 -0.8208074578493412 0.9967225932548384 -1.1628312840928747
Ni 0.44817920432378633 1.102451610785949 5.738126504360971 1.79575332154872 -0.5895035612608944 0.20126312725198242
Ni 0.5761232126244823 8.29263024159382 10.432044124543552 0.3459709838167397 0.0628398181443563 0.8398930137258824
Ni 8.144426768640205 6.248608829731513 10.384288748070366 1.0908697061529085 -1.582699629419713 -1.2928596842685862
P 3.446465387404842 7.663481641233807 1.135627824066786 -0.9686250636876738 -2.1573918366993876 -0.12559916075976435
Ni 4.996669278929937 -0.130437168108832 9.29575835763637 2.94503874863636 1.761646095452366 -0.9068892772407736
P 5.061419355933676 3.7126180515780556 1.0797645957935298 -0.07243568936290751 0.9022960014431363 1.134299495201769
Ni 2.3103126875889743 4.193720272078369 8.81120563353206 -0.28380865135538225 -1.4865843370516785 2.2131657491358983
P 4.549471444404609 0.6452164516364648 3.4361111043617867 -1.7379695777710327 1.1834191355465555 0.4493110760679874
P 8.364578878606967 6.489682043499681 2.418585868300423 -0.5556251633458946 1.2062374189926515 -0.015235328892515698
P 1.5759671589271826 0.1358947670068495 8.241635051077887 -3.6066429845182464 -0.9171325522353366 0.8683834078560915
Ni 6.219417236573983 9.044579437544341 4.359300089373047 -1.3732660505417964 0.5668781105518947 -1.138322243207917
