# total energy = -340875.8498376773 ev
CRYSTAL
PRIMVEC
9.20108290032119 0.00000000000000 0.00000000000000

0.00000000000000 9.20108290032119 0.00000000000000

0.00000000000000 0.00000000000000 13.46671488433242

PRIMCOORD
 96 1
Ni 2.454425694056981 2.3504350540132255 12.298033199357564 -1.3868705286991083 -0.025079054455814872 -1.0276928163841075
Ni 2.276844792194967 4.838049054444107 13.292563538882026 -1.3127278839474228 0.6579069895359573 -1.906373749511465
Ni 0.49737742297480747 0.9430465997172758 8.71658709125426 0.1011885931258838 0.35143586358605283 0.1562467104422922
Ni 7.63514148151379 0.8755796586342073 5.993752004520195 0.27557597903294473 -0.22488745153914172 0.29930263322592326
Ni 3.270810185223351 8.535209822547259 3.3571577486183806 0.5583878136926964 -0.968243511978539 0.14727098930624313
Ni 3.8146309947390233 8.151515460446333 5.727272999056097 -0.5266002368684544 -2.4266071636216275 0.2350880462212274
Ni 7.6963654877826935 3.8779896522634707 9.075771608465029 0.36537561359559656 -0.895137278911168 -0.524472134781858
Ni 0.1634397574023391 2.4997502289052855 2.3258635618669814 1.0950114962354238 -0.38462751984667304 0.1324948594383331
Ni 0.8639338478835985 4.5664698886742 3.858617692119415 -0.08337779019670802 -0.023937227541887807 -0.22568732173261777
Ni 7.235271615502325 7.327402059561618 2.9771134561427743 1.7284014744666232 1.5847588259415868 1.0058168422466227
Ni 7.72835765336685 4.070724737823244 2.9704748747596947 -0.671230960338373 1.2977452944956618 0.256291676882036
Ni 8.253813101218451 8.341931873090603 9.573057020609857 -0.32365689370057166 0.5363899692653665 0.09714347652223271
Ni 2.0040786867183136 6.057413377675276 1.853922532840233 0.5594303960245979 0.8108490610850486 1.0384659957402114
Ni 6.786856835593244 2.7987486220093283 13.088178962138446 0.1036293413568925 0.7775563604701898 0.06502962670682348
Ni 8.781449205740588 4.665123900579097 6.516058841769869 -2.498861333101348 0.25912220435229566 0.31077001043557445
Ni 4.940834352615121 1.6213688404981779 11.169280221382714 0.29887197344640787 -0.030795388114301804 -0.25045810091939447
Ni 5.977575580501354 6.007368687248982 1.7800976434055247 -0.944138391400219 -1.765709466888462 -1.4056496090788242
Ni 5.201501033949362 3.024874437768958 8.401668064238725 0.4846655443078814 -1.432382139977662 0.9307863955733453
Ni 1.183093654052928 3.408706816114854 8.582431620709757 -0.0902629473523155 -0.6024539507739755 -0.22331265085285412
Ni 0.8682831998167682 1.0861786468346588 6.1841849791138594 -0.09339480811307786 -0.45017342406828276 -0.5641532554215639
Ni 0.245414966156704 7.050375852656876 3.717419712648218 0.9452406233254624 1.114341049801971 -2.093986118749233
Ni 5.60841892953732 4.243659092771251 4.422603595133574 2.5094573634496395 0.22213894225972708 -0.16477274563543237
Ni 0.4971483160081565 3.229083273827276 10.91945885657825 -0.16122513749349007 -0.023587300401636795 -0.4085956006264963
Ni 5.441152441716099 0.5148907643532612 6.490499153309637 -0.935502312991776 0.5921294289195157 0.8106675412018619
P 7.348104496307189 2.192664083845974 1.7156596988454085 -0.9159824977912935 0.17948716902747153 -0.8396544153525153
P 0.36035029442661853 4.531883017684598 1.6912041403449396 1.2182696675668374 0.7454265698151807 0.3562805932728638
P 8.840786989994893 7.623097263869366 1.4682757009271257 1.555971212285933 -0.8803632059257871 -0.12231611913311836
P 4.7743867611807245 6.115867857961773 6.277751712229145 -2.0422285265609665 -0.48829439930972035 -0.07331912040912533
P 0.5465627322490865 5.267389989298268 11.839329768440086 -1.3406670335598525 -1.0023198848369574 0.12173016472266131
P 7.985638336157815 5.770376392468676 4.609925683565605 -0.4229066179325297 -0.7077660791499295 0.47347867445312647
P 1.6333486505616153 2.3961644365134434 4.356913383177425 -0.995276604836931 0.3752435075286118 -0.3153560871443601
P 5.445752983215116 2.032353614771265 4.720110492683635 0.4532338081611614 -0.9579434156041114 0.13332686842132524
Ni 3.0946922555580234 7.097789033345733 7.823367116296227 0.18415809214057963 -0.6509881509289369 0.19129187497188346
Ni 8.63818834346123 2.7487223337490287 4.831898130459924 -0.025607673265775253 0.02318929363226974 0.39999577477262727
Ni 3.2438602131221153 9.218289023238144 12.048723414767794 -1.069424648905255 -0.6925099243218074 0.41144284026730427
Ni 3.307448897721513 1.1267094174409888 5.049829461701506 -0.033060015778762414 0.6244032013515569 0.09139037608853938
Ni 0.26784628639760577 6.140950010214408 9.587277294383314 0.02822711316649332 -0.7989636225013723 0.6262060588882505
Ni 3.448768331488284 4.652242384381853 7.89057918738025 0.3019156453687381 0.23314686333445653 -0.9690708929758408
Ni 2.7732800242707762 0.2552454032318012 7.328707693239037 -0.06714050240223922 1.033854207999813 0.911429074092656
Ni 4.9141604130038266 1.318386378455988 2.6476373957160515 0.6147206839564703 -0.9664761356654712 -0.005305728483629571
Ni 2.8423065489220107 1.6201634986254356 9.73562727566888 0.8032617356560942 0.9021929002063687 -0.02342840622626933
Ni 0.14013433427662428 3.3652961065301397 13.365997382289319 0.16858389185140643 0.3538411305934358 -0.4593980279903443
Ni 1.4440547700431066 3.55967818594656 6.1461283797257 2.148892540979125 -0.6680327651160495 0.20857020243635693
Ni 0.97724702522096 1.1734693212369869 0.45718801254770425 0.41653388163696653 0.2418356493577061 -0.04334391420327374
Ni 2.9188503583826373 5.160206573454196 4.993983488444952 2.1324711621983083 0.9512716600108907 -0.9646514237519065
Ni 2.7468637149834265 3.7217368607908945 1.7482756978568315 -1.8206518845626127 0.1461759564698515 -0.7671403073431885
Ni 1.143216160339458 6.3363258065946155 5.6572591981991724 -0.11001878982300409 -0.11659695726115402 2.041577523240529
Ni 5.277658397924071 7.614457446934214 -0.08185467456709071 0.1851399964378747 0.48872711597176477 0.641914727872759
Ni 7.993799696777071 6.70828878787305 7.724615572911551 -0.41793487574955124 -2.049713522084102 0.6305052004842366
Ni 5.15742784638879 8.267357095391555 11.046032634732377 2.4599494865274987 0.9672760058589471 0.267998423796003
Ni 6.254831814481047 5.045119427314813 7.3877860069528 -0.18044490495505053 -0.6890065391542392 -0.4643880250057679
Ni 5.301608816967948 4.910093534318697 9.668320433429978 -1.0566768623212832 0.11496996318069232 1.6644727941334625
Ni 5.278348479148924 6.4462603462551 4.003735332947773 -1.1361632878833852 1.3967803316136524 0.7022796021140615
Ni 6.5646414801077775 7.24043342306422 5.870693040071317 -0.18847163191426894 -0.7325090904225642 -0.22467019332201305
Ni 4.211639323938101 3.524088396910173 13.38156469461369 0.7996537065898616 -0.21969665136682162 -1.9216543298196191
Ni 6.488622132378038 2.78074210258218 6.557011021977509 1.0939018081110128 1.0627238398463117 -0.5420142574306794
P 3.3153526280168224 2.428046189101624 7.773445720382106 -1.006317436032125 -0.7677146917894198 -0.949760879793319
P 6.982085414645483 8.509051143583855 7.736318430376747 -0.7204493310445528 2.571645921163242 0.09370205494085153
P 1.3813953948265096 5.4192446630977855 7.758942053252308 -0.16048645955525262 1.1322145876482823 -0.10680851041582251
P 4.057843221625999 5.177881853893415 2.8678450748913478 -0.7372558610789303 -0.13433268397802026 -1.0658942671544933
P 7.112455559644595 8.875613089142444 12.1267633203239 -0.49307767963097665 -0.4089334435818892 0.37347356011238264
P 6.886062912478023 2.535533240684632 10.826929085516843 0.7836462754180117 0.2567074242632159 0.9789786390078559
P 1.28317383382252 0.7702373794980408 10.834403125236145 -1.8810710090806182 0.23553181862686534 2.338868525353062
P 5.522453211086708 8.33086297024397 2.197970348410939 -0.8948595997697492 0.3102349638677109 -0.8561647543027125
Ni 1.9677436099590857 8.380769644425294 9.563387602487225 0.8502561021277615 -0.16474523483160658 1.0303456806259224
Ni 0.41380766653688367 8.267366296474552 12.756911450852007 -0.6338872295825922 0.2542193677340396 0.2113678197861521
Ni 7.324623332496212 1.1177751658499 3.5600342678585837 -1.6832919837224944 0.1833296827020133 -0.2577656903244012
Ni 3.759212871841878 3.1738951780050813 3.575843568665802 -0.06097499702147564 -0.5764827235211943 1.969558866810382
Ni 4.122287606944213 3.412470059061049 5.906043600949756 -0.36499457610709396 -1.3273849717389656 2.243758020100458
Ni 8.651750739800331 8.123884608203245 5.9169110000787315 1.4426693808362832 -0.07138976459689642 -1.2352793147509564
Ni 2.4011422224153787 5.016145216954012 9.966499930147197 0.9038522901866628 -0.2511391861468191 0.9937624821852499
Ni 8.1385879388341 5.531875120076693 0.48078879043765593 -0.691293535416203 1.1727796535548383 -0.9553538005000644
Ni 4.79058066725726 0.3865899429204057 8.766952899477188 0.2595672623095142 -0.3932296596933873 0.8218999195825716
Ni 5.289141349505615 1.1531165256453402 0.23480519735167354 0.28974198612068164 -1.3803823498716032 -0.4506421361745852
Ni 8.443585438052857 1.3184415849539761 12.258414256076339 1.072273945428592 -0.021070447517054034 -1.1602262423698597
Ni 2.525577668880761 1.46236492520919 2.637671702720884 -1.2855526090842118 -1.0782034235391496 -0.60600207313655
Ni 4.243419864613303 5.7458647073619185 11.967734562110818 0.7457052773978641 -0.5459976675584597 -0.7497840754529281
Ni 5.550194476325775 3.5122189998427116 1.7594393718583436 0.48058983157661095 0.5761261115127239 0.7625840554310737
Ni 1.9153434422852944 8.553124331144426 1.4925702404751287 -0.6675450268463535 -1.2594006332791925 -0.7975960527298843
Ni 5.394659369327044 7.018944953135599 8.471533727659379 0.35669274110961796 0.940830924293541 0.16861268820681283
Ni 0.7689694702609121 7.735322873196361 7.791127441579423 0.8264921669389445 0.7452743605080326 -0.6599556445348699
Ni 1.8940981416428393 6.822271804052669 11.44152278523678 0.7658706966021455 0.959206084366619 1.224629548346594
Ni 0.24253502717832007 0.5354183805218703 3.6752824329504317 1.9998714017509946 -1.312789590423294 0.6777839309655423
Ni 5.609799091987025 8.790880315813569 4.384196434483189 0.3941493432941792 1.0482431297316335 -1.2866412141627004
Ni 7.595070765057361 0.10699663385921268 0.9608782985674613 -0.44248736827793467 0.26198975570807786 -0.2227763187334099
Ni 7.15764207824793 1.4056218463603276 9.113828207853189 -0.09009119766114161 -1.0497562239420501 -1.4926899357287842
Ni 7.721567254114302 6.9300716924576085 11.463487610569679 0.5963056717843924 -0.18687163441700075 1.2847997900785872
Ni 7.387623147783735 4.573067065183789 11.39692145551212 0.3235188254608105 -0.40813948692568414 1.1762784107367161
P 8.560917648443759 2.365672047457966 7.465933565179984 0.016710370776145414 0.5974243587698679 -0.47589859674852875
P 7.20691387770239 5.904472976081992 9.666852860691792 -0.20695426409948872 1.0286163566396413 -1.030548797775664
P 3.1817345007194047 6.891178714624928 13.499304512981405 -1.3097808855039572 1.3865563398927991 0.48372374921990247
P 3.87533053927704 3.5220917618996 11.085166680939606 -0.23695363867505642 0.8954082731843674 -0.5426560047797364
P 3.3079365551204094 1.6428349671325861 0.685685867504227 -0.8036882816705514 -0.48134573590602914 -0.057561857574868605
P 3.757483068238248 7.187315570916583 10.114432182264652 -1.345542616484599 -1.5660545646638642 -1.4024650407032555
P 1.6790320276468433 8.31590200928917 4.923229000406686 0.16104953114757423 0.7079038902793744 0.2811223627724707
P 5.950321972661184 4.896337915236638 13.239894699584694 0.7079756240575742 0.9510034939511686 0.4188206207886142
