# total energy = -340891.83085933584 ev
CRYSTAL
PRIMVEC
9.07399486972253 0.00000000000000 0.00000000000000
0.00000000000000 9.07399486972253 0.00000000000000
0.00000000000000 0.00000000000000 13.28070870529992
PRIMCOORD
 96 1
Ni 6.480765006181826 1.8769195162629158 11.321445388447062 0.9960867594430522 0.4373443906244145 1.4620403291637272
Ni 4.7505356889070764 0.2809907655565358 5.936184674784181 -0.831979672416077 -0.18820526562675974 0.07510655132685129
Ni 2.846004006646326 1.7299570974325096 4.613797847351189 0.25899004964980554 -0.589308928751585 1.4118919904441103
Ni 3.376678441102898 4.328331787588234 4.827723625174108 -0.43224615016590073 0.5282830238875159 -0.014415661204697753
Ni 5.131062732379039 4.513250726421579 2.567267221383534 -1.2109217118421982 -0.2654201215458654 0.2944705019446025
Ni 6.995696059762209 5.833172149483355 2.712956558751733 1.4618176716299598 1.514909666358933 -0.6258867278756188
Ni 4.818808425340762 4.469604811715833 11.614882952590268 0.762844765291628 0.19193053699714688 -0.6900185253585214
Ni 5.7705162157945455 8.13427369791872 12.361789774333003 -0.39387114993212813 -0.33775656632674733 -0.23223386460188392
Ni 1.6415763886520602 6.812755251782472 0.29890918297221886 0.7609773730655862 0.04186810098869564 0.3768417052536671
Ni 2.534457471197872 1.5070090466382964 0.3871229302494278 1.1856385117953774 0.20542934281453007 -0.09529253935642298
Ni 0.6231329964737701 9.35937187593371 4.712486614157776 0.23766686269199713 -0.9332194304948702 -0.0277278049325716
Ni 8.76080581282259 2.225424432292763 1.2660436718857195 -0.556793215512067 1.1259467523616995 0.6509621827870079
Ni 6.9809689662970476 0.8058061216086381 4.9419770151604805 -0.19941424696870172 0.14884193333778883 -1.2823793535625527
Ni 0.8819814000625388 7.3455892969874785 2.6253571209185114 -0.7343528284995223 -0.29472915492262786 0.08598951678794224
Ni 7.567239766533683 3.7115995870049905 3.9147282184852146 0.022037696526329788 0.5049140101442724 0.038285525843759875
Ni 7.831447271416674 3.828635971178526 12.775882431752578 -0.5429766213439488 0.26758164797355855 -0.669513463426634
Ni 8.100028441764982 8.685464434485414 6.873802366203646 0.1565346739963562 -0.34847806650930957 0.41778266644240303
Ni 6.769145633055692 0.8832408705326339 0.49138222242771157 0.5109201071290362 -0.29297437701505025 -0.9523834050178309
Ni 1.711037818396859 6.699892905189943 9.145958778813677 0.5556465035021333 -0.9174763087280005 0.023075650872540904
Ni 0.1855268964810128 5.142024118026552 1.323636316508873 -0.4307104302476647 -0.9527125062224755 0.3034616496996193
Ni 6.594407716322107 1.7255562099829698 7.088444989611129 -0.6105701521232064 2.006694338210099 -1.2342272193373582
Ni 3.4515570457082645 4.193002230016199 0.6546351840172081 -0.3957136024575056 0.8750268813145383 -1.954332279668615
Ni 5.811222156204105 5.47525750090676 4.828600173066119 0.15277597828487238 0.7328009106313702 -0.6256900384837806
Ni 5.410106218664088 3.029462032326318 9.42700580313761 -2.015263567936348 -0.9561043055128435 -1.1260246567874865
P 0.15301205112444366 5.707715098189875 12.39246804315393 -0.10951588204465657 -0.8957677134063153 1.1290930113001652
P 3.9640653426927157 6.100065556809778 12.75690417175111 0.7143115935779311 1.4656501580021726 0.9558564511680957
P 2.171679161439929 8.651772692010898 1.5350240980026453 1.6540400288359127 -0.022133084453613495 -0.693185096011961
P 6.395932229345233 7.79661220560475 5.757160202934798 -0.6998416820965301 -0.24282115319942696 0.6546463165068145
P 4.777322121383451 1.116319129056056 12.782987369635032 0.2688499731630209 0.37165399040514063 -0.233709677816462
P 4.099993783917677 6.067235843835685 8.181301490464556 -0.14921628595807204 1.8900364458040224 0.6742062409166131
P 4.879359192249585 1.138296344319531 3.8460271894997384 -0.38310748365772085 0.08496338951627302 -0.5178955100056049
P -0.0566235419847802 5.492870124699661 3.5924054068819697 0.574007008287192 0.8862448615175446 -0.5738558274213085
Ni 1.5549923308303923 1.4014966357862366 2.6193673769897665 -0.9291252058208385 -0.8500828097746909 0.6135971118749883
Ni 1.7834664444220691 6.504012580709086 4.710494872312057 0.5260587625426877 -0.2618239195541749 0.20687558834275338
Ni 5.874077717777221 5.679631084465493 9.539439857178346 -0.0004237178009799154 -0.8997688641459085 -1.5745122085129142
Ni 8.642716845259061 2.1043228984751168 9.976614035021418 0.17185947727888468 0.039779079670150846 0.7692061887332817
Ni 2.374219798060916 5.150499229114945 7.110809664450059 -0.9984084655976934 0.4845925249781009 -0.6258283638338578
Ni 0.6239333228099545 -0.07900182781582167 9.071414097214792 -0.10082683891109087 -0.039362560958022534 -0.08728509567091419
Ni 1.40406457629803 0.8380759691071916 11.396654286461013 0.26598113625565806 0.4805121842611402 0.01109148192747122
Ni 3.9312447037133635 6.853960261902802 1.622809552728064 0.9525947496976884 0.6330624196884516 -1.242684606076092
Ni 5.801812423657356 7.704248013132862 8.078575703397554 -0.9360383880009039 0.8152176224663895 -0.4986793420884702
Ni 5.163801705405719 2.8941052527700593 5.224869690014796 0.6419913467469653 -0.8421404149991625 -0.30340302854754203
Ni 1.1019822173647715 7.431474657214064 6.959476302352759 -0.948874620533624 -0.2534387808142732 -0.03911933459896489
Ni 5.06269925599794 4.61175801333334 7.061100506458164 0.17006947525799743 -0.7775882421493898 0.1497042813380841
Ni 8.192220228336785 7.084221952458519 9.140474456392022 -0.15496295863386214 -0.08089744697701552 -0.0191356923881864
Ni 4.890647241707786 0.6256755298002878 10.243423961596218 -1.2231365087408355 -1.9917282038185697 0.2698241641508321
Ni 8.166368417318767 7.454241310020034 4.709113810312428 0.7395318015973005 -1.1636105854610606 -0.8122459414325753
Ni 7.009987601479787 6.089811942752086 7.076320317837778 1.6376315055709023 -0.9685402172833513 -0.5253722779986242
Ni 2.52522921854595 5.185688180721781 2.4894159761009114 -1.9423208570300359 -0.4558787019831762 1.1082830165333493
Ni 2.403737502954427 5.21264701909824 11.731089066244971 -1.5511807328758254 -0.2834476684715377 -0.8619996158169347
Ni 1.110348440516268 3.4817553002073747 4.016683623398677 0.3306454092032628 0.6924896126068332 -1.1445715665517384
Ni 3.62272888250851 2.687426874547031 2.536309473524575 0.5736215999233154 -0.2013880828656209 0.3230804523718113
Ni 1.083861449866357 3.2219486827739225 8.350351827294281 -0.3535642227829653 0.476720835539508 -0.15842674881274652
Ni 3.5078521090834087 3.005161874409065 7.537094141204071 -0.49980188572868767 -0.5852111045331276 -0.28200553670837236
Ni 4.251175610302797 6.852000279038678 6.066508109457431 -0.46744686643674976 0.3359912468962084 -0.5835028635927693
Ni 0.8651854357963569 7.379480667346305 11.315309553202983 -0.846536230074013 0.6454235123569658 -0.014628034325819968
P 0.21357552162590465 5.475575090722706 8.066994563909208 -0.4235784471885737 -0.23049579886485466 -0.1946109120427874
P 8.604996249119397 1.4641707174645284 7.8546095503933655 0.45752857888177334 0.6999756365712332 0.480119833918728
P 1.930819045026352 3.2483449334764205 10.49938320525935 -0.7178630583746153 -0.9685749271760288 -0.431922705388211
P 3.987185881293597 6.21873526003675 3.7068048881836777 0.2924886956278834 -0.3639620210775215 0.9976553894817528
P 6.8367741158627435 3.93747853810065 10.61936047112855 1.1715267549843436 1.0506224285970873 0.8814363843853078
P 6.269377224688053 7.819251822484341 10.16906529688953 0.361417657389113 -0.2130385226203557 1.0493404765608703
P 2.492934871261595 8.434078484171907 5.721993028915342 0.651252460333917 0.7314665080906628 -0.34883802095188954
P 6.954119015857485 3.8698591292883395 1.5613196273635144 0.9961435808229167 1.3948692306338688 -0.3302126925412184
Ni 5.359373514065372 3.1339127857936435 0.3313351031803231 0.7867976765627999 -1.541990838846441 -0.4405181603667059
Ni 1.509105139423541 1.1133973027493511 6.800784837919723 0.37006916241652393 -0.2679408310851902 1.0437503840676026
Ni 6.798336674138516 0.6031266528681095 8.99807807171545 1.4991531748556246 -0.15811924487465673 1.0763720267573655
Ni 2.776125173143427 1.2560495740776305 9.283932498453332 -0.909127422542673 0.4348367937112124 -0.22367029130258897
Ni 6.449341762392637 2.051221881248917 2.5210905695444343 -0.21402762600650235 -0.90801387776352 0.8650306893337748
Ni 4.167930782545934 6.872162695353889 10.638392267698991 -0.49717498962880186 0.7317917526405655 0.04021436743535655
Ni 7.875909845649138 7.360416204394793 -0.028815377700533322 1.444280434077145 0.1852713798094164 0.884924085823592
Ni 7.46714453054219 3.8374558940670878 8.514049414626102 1.2483829420124501 0.47031261802031904 -1.3055707040773514
Ni 3.374264758501707 8.56023423306047 12.821700660799397 -0.705523562972656 -1.7454152354158003 -0.837772367838454
Ni 9.18397155758401 4.5980018373055005 10.518878682961077 0.02896836220789205 -0.1555892793639514 -0.6434959563169498
Ni 8.832154633473582 2.548848826857604 5.698765417176513 -1.1466312772942446 -0.4887443423629453 1.7266919479746843
Ni 3.7320342231624415 2.3742016500714334 11.30006342723862 -0.46833981056466434 0.32277423398530214 0.8564807428812347
Ni 1.1774506316283235 3.150817637996721 12.60339214351642 0.11586213597765853 1.2628286851241348 -0.6778353530287682
Ni 3.402875063921087 8.22307181045727 8.007948265328498 -0.5428074427559362 0.5374688041518422 0.001953267071628894
Ni 5.72762344265233 8.030340162151651 3.620998471711341 -0.38286477151929543 -0.416286798623167 0.01772801340738237
Ni 3.213546163643461 8.324764069523235 3.4825075343714302 -0.5668138329728626 0.48385281859859897 1.2634637476049724
Ni 3.155563337246431 4.642201265690466 9.409102811512986 0.72841769396201 -0.6550782618379105 0.7189390650476135
Ni 7.282370775624707 6.0726076487225455 11.386109397172127 -0.028774501029531087 -0.3043299112371855 -0.026840260121295714
Ni 0.4099286012327854 0.05986477290637943 0.4293623757702688 -0.5328608730661855 -0.36258185290054334 -0.4955711354767917
Ni 4.5676130289168215 0.26002620810619187 1.6995056784801164 0.23540429191006557 0.5776623456515922 -0.3726608344031001
Ni 6.041393106812408 5.66935932241832 0.26435631839674945 -0.4103130975382353 0.3282280580110218 0.47130223562709805
Ni 7.990822915053205 8.808371693256584 11.136432080068408 0.10545945258709578 0.5621791624143285 0.33383023468914763
Ni -0.09608362291635511 5.138911737830281 5.696069533338866 0.043232071215757804 -0.46478474622355437 1.4312392846224706
Ni 7.937985043674503 8.824060630164325 2.5813709314099667 0.6574022819853969 0.7102975873225316 0.10547436498543124
P 8.538701643539317 1.7231969713502266 3.602472096647989 0.03960758708929308 -0.10651489043480364 -0.7276440490207791
P 1.7244673306140115 3.2524826750784617 1.4575839046818047 -0.43457839784350316 0.6506086561023311 1.1636671497306088
P 4.554764252363114 1.2296442493803916 7.959340690298198 1.0600468072347808 -0.8500429576756908 0.7979158979631484
P 8.69532786676923 1.7231606753712614 12.352758427366966 -1.9902940424752047 -1.6909826674985327 -0.10205608333250166
P 6.3870760104777045 7.913394517925528 1.4001854435461156 -0.7057403069691522 -0.8444865466338359 0.351644122942117
P 1.811486940183263 3.212466358269244 6.165648761202137 0.6788969615240631 0.2228791628598613 -1.2270016481231965
P 6.881173172132019 4.0481994219342265 6.069164067718215 1.14940164095053 -0.9980762790692553 0.35222519225656757
P 2.511209896670612 8.319410412625857 10.342975665302706 0.9215839031384708 1.3852278508893627 -0.20837865525084112
