# total energy = -340859.28271287895 ev
CRYSTAL
PRIMVEC
9.39482728513341 0.00000000000000 0.00000000000000

0.00000000000000 9.39482728513341 0.00000000000000

0.00000000000000 0.00000000000000 13.75027937549129

PRIMCOORD
 96 1
Ni 0.8619002621438415 5.780421263882151 3.6576017481420737 0.3103149251760268 1.7822149207426534 -1.8781240106371526
Ni 7.622324164348796 3.385444870005642 1.5678755121800865 -0.787493931298876 -0.9049938599902736 -2.027689966625159
Ni 8.861351590964505 6.727786271559364 1.9801365129574557 0.41803103500778327 0.2129873576674461 -2.0541275919913975
Ni 4.1864478604613105 0.2161580694933393 8.362273928980219 1.2831609689235839 0.7692480977148106 1.0233144848107536
Ni 0.05473426486505657 6.562991602833316 6.742257124317972 -1.013169425956952 -0.5101261504728312 -1.9133380966444404
Ni 9.102000096717752 4.862659357576342 11.640560457331668 0.685364828636594 -1.1829062004658788 -0.49366826202712405
Ni 5.7457637453295956 5.78962819480693 10.490514260172947 -1.1479759642475973 -2.18227780130779 0.5014993280357686
Ni 3.25982663184727 0.18300842075040208 6.132171120380541 0.34002556486658214 -0.20194498381035542 -0.5485170915462038
Ni 1.8945327239774656 5.301642066138758 1.647461914162811 0.6309880536579262 0.5179225065887983 -0.7585250548703517
Ni 7.538588067070689 2.4387375002516274 11.070844966533892 0.4960311058323457 -0.8186500451867063 1.4085942935294449
Ni 1.3858122110735953 7.096326563719756 8.441846238721732 2.381035902749732 0.8924206513109533 1.338934624249778
Ni 4.206731292978244 1.565478891691402 10.16043921014043 -0.8897400191549967 0.9079292884695138 0.186522221497382
Ni 2.0707421080847435 9.082487040053708 12.047500227827614 0.44869118309580147 2.200380938666404 2.4601487470224983
Ni 1.6622080353664144 0.3042204848233441 8.579885378283826 0.6762165864784225 -0.763192378439034 -1.381519291689524
Ni 6.681140953149648 3.238791613132395 5.846343828786308 -0.4700776191913776 -0.10435850621343316 2.685122330517543
Ni 5.330343264072632 4.335618931097659 0.5110081533938534 3.9572316696126557 1.4685529334712644 -0.2088226847667952
Ni 2.080869732101999 7.817539284436508 4.425239008822897 0.9554013659085482 0.40342999726515677 -0.7499668808876955
Ni 8.172597999171332 4.511762551412617 3.306035090779433 0.2541247511377042 2.2514505036487096 1.656748428906011
Ni 1.9402009803298583 4.802541856568533 7.732648562861813 0.09668582015952382 0.5890361347061727 0.0232348021582245
Ni 2.657580611437111 7.5434545877023575 0.3619563970664277 0.5657087728341419 -0.389834003748277 -1.2218363018721732
Ni 4.1493664764203935 6.354229141527717 8.765871959343569 0.4032207094678281 0.27049085120055355 -0.9332991346928702
Ni 8.44658874763074 7.028486514528102 4.05905493939305 -1.0405511604040145 0.5093306511547293 1.3206021444891771
Ni 3.113953145654388 2.337940396280259 7.973278278960113 -0.5478444909592113 0.3138807881504143 0.40358863433020814
Ni 3.705056900680071 8.132275399651794 2.3890285286025543 -1.2684347184570026 0.5009151733975243 -0.4705566157103251
P 1.1744004084202537 5.087261498003548 13.370523988442466 0.042014396758572804 -0.0028097015346532253 -0.03555141474204845
P 4.0466434328168015 9.074933598764401 11.375963596863777 1.1766316803110768 1.045254993637587 -0.2471526906952453
P 8.103057486206836 9.09874948641166 12.453848124192682 1.1060494992171404 -0.14694548764602433 -1.2401520694622254
P 2.1722814034265787 1.335098932367523 13.53768615369203 -0.5291715971400563 1.0841825239407201 -1.505514341186962
P 6.714530169993179 5.968430551297104 2.2766062651145327 0.2060122119011936 -1.474084661922771 -0.9025014325857231
P 6.380525263628179 7.509050729491606 9.599689203201345 0.17399349290275196 4.262137507957969 0.7526755380681102
P 5.816431637591003 9.16693714421986 1.5697591750886761 1.3072115821148844 -0.840677714410707 -2.361688094350739
P 5.452682707442485 3.34830711699988 10.48251174613037 0.8121266422458917 0.3551655058318141 -0.40134328993945717
Ni 0.5639404903493463 8.217495879670835 10.77694657865652 -1.5191360457354546 -0.6154884153604302 -0.9150515013365917
Ni 5.557237742403558 3.0411620223837974 8.184826306611832 -0.8031712328248168 0.06779047728141228 -0.2108515422713659
Ni 9.16010710464607 0.45997826900189875 0.9083520471075879 1.619453806220611 -0.47192829924687113 0.554452226083716
Ni 0.8849786558343687 0.1712949498554909 2.9448284009454517 -0.257677244375653 0.41234684013881245 0.1921611649507142
Ni 5.8489847147893235 8.491251757443386 12.499870565540855 0.48715051551326427 -0.4798817497659929 -0.56734065201061
Ni 5.497195400015544 2.0994527008460913 1.4710326910926355 -0.7743543085931244 1.0762283020906498 -0.3510795086878986
Ni 6.509704141399296 8.627880733401593 7.538742142241267 0.03427100536772807 0.1303544160565626 0.4234534915749353
Ni 3.5969318312787775 5.494095106949036 13.206758992807599 -2.267534553694766 -0.7819840572242405 -1.4505384991717145
Ni 4.739098586634834 0.6304436555914122 3.0045597745440684 -0.9560058322617664 2.491833222609973 3.473777886224689
Ni 8.500233212508782 7.6208115971254395 8.764180890398201 -0.46280371123778363 0.7001448151592459 1.0970786631770977
Ni 7.873438507908372 6.823669880761694 11.261823019430711 -0.7657362279068103 1.2335317359322304 0.2518932907040243
Ni 7.376790348308931 0.8481368398940461 2.7885839647037303 0.699987206535459 -0.7318501166823267 -0.48882173256810013
Ni 4.093025696057238 3.3182530639097125 12.147202834398232 1.314423012261659 0.024441935092448228 0.21445725734475324
Ni 0.6104552206571702 4.0371828415502184 4.845736454846952 -1.883356976901318 -1.6063702335637755 2.402664022542469
Ni 9.120150903398029 9.226800984885863 7.161764355526239 0.7410934896574657 1.2569884242932738 1.9041913971481657
Ni 5.037224646875624 6.788458067388156 0.4705164469797796 1.8499434344378785 2.6495966268071074 1.205710342844588
Ni 0.9810266745174971 0.3753947582856136 5.208083676736309 0.6141033620874456 -0.2587735627636253 0.47861085347336924
Ni 3.3570818858608416 4.596400552128253 9.939678614667448 -0.2986847971362663 -1.1447338031612158 0.6335097916385154
Ni 2.8014060252406043 4.5384626510944726 3.801745646596944 -0.12548963176509356 1.75259581232464 -0.3588480968897239
Ni 6.857773104493268 6.695261378843465 5.781730902832064 -0.6537567148130096 -0.022352142442955053 0.4659839087379781
Ni 6.302783066278652 0.5293957097264811 9.950059899026511 0.766697306268499 -1.643185859730228 -0.659835831127554
Ni 0.7254216034252221 3.106493652639823 1.1812605114419603 0.1454377927522463 -0.37750479275896276 -0.5662507613805409
Ni 2.6796208766917324 3.4780684740744015 5.957721387459192 -0.1526224834261436 -0.6904283592024303 -0.9078279870049593
Ni 7.258810104887135 1.400486931588394 0.11617455758124212 -0.7207020704853071 -0.5229153318176994 -0.9015550095120537
P 9.078099655623229 0.3404234524954168 9.489645710029805 -0.5203912798442651 0.19840200365410346 -0.7819449764561888
P 4.132098783522698 4.565735835252259 7.0337908341200714 1.0194493454283928 -0.7838771604818952 1.8108338700309263
P 5.442113526533939 1.1000403489614614 6.864482890275387 0.9295034150958636 0.8688536626242909 -0.019052902866392992
P 0.8850735435918587 1.9816979332836784 6.638649087966304 1.073573638076622 -0.011413898263896471 0.21986480151356974
P 1.4956847183851019 7.727771707919924 2.0746973304514085 -0.820779175714567 -0.6638272116751341 0.8139153587151983
P 3.3244442552152513 7.947432169095669 7.66166970181101 -1.9395396947404726 -0.7888704999314284 -0.617645313802433
P 1.2566521229574266 6.018908959316319 10.549833200845443 -0.1860401396546409 -0.19565066616121143 -0.9555471474577931
P 0.19177473426663694 3.0166603123309197 10.447696394476244 -0.3189360911861346 0.0752423055737672 -0.7286578349972741
Ni 8.94504071410524 3.563815064432 7.402834689033083 0.8874990456396199 -1.083457215738921 0.6011987382106356
Ni 2.051003575561317 2.4635962137485277 3.929939946448758 -0.606660018435523 -2.9196964132168297 -1.0349726378749724
Ni 6.788664753592589 6.005587093957815 8.39490310428108 0.4011753969030252 -2.273551963533439 -3.413915662651417
Ni 2.5763059589572617 1.3121849481577956 1.7464232688457084 0.7589688272759897 0.29388454753414545 1.7423137136723414
Ni 4.3536194205383465 6.533839453180677 6.254438223578842 -0.27884899335726165 0.7980341687085676 -1.2098505902652066
Ni 6.217299531090332 9.255690079369222 5.091824565707799 0.2656972864666521 1.2646827076137381 0.5679749431604992
Ni 7.492421884862161 8.250161694798848 0.4855049547322189 -0.42506685880864215 -1.5017160504867946 1.7877841873003144
Ni 1.9347425855673115 3.4263969229659543 11.751772667041005 -1.4577944094031796 1.4795564836706196 1.701987760359785
Ni 7.449835131921326 3.9937599489641746 9.440392387513235 -0.30911267733780956 -0.11765676598423609 -0.24692257696231024
Ni 7.681286101577271 1.7071716796582372 8.16860143956378 -0.28072589866500036 -0.6180523194328645 0.3055632694236544
Ni 5.050865936368254 4.801677532440901 4.054599912204755 2.9944386392257267 0.2922254146641677 1.977847589181736
Ni 5.565383057823745 1.4395130449164828 12.052848703108712 -0.237166783127127 0.09030562766479286 0.8910199143086848
Ni 2.9157880497397572 7.229639165579549 11.089160182694968 1.0532899481269216 -1.6737279941831433 -0.5241232360828716
Ni 4.113506419951132 0.19688458092988864 0.21152454058303277 0.04620940867652687 -0.1766980363181086 -0.8185561999213193
Ni 8.452357171699937 1.5734926795269484 4.979746152905335 -0.5736912768189861 0.27913695691132573 0.5809908958041929
Ni 3.4908078601295016 3.444002829652723 0.7157458706094786 -3.2914434775564088 -1.8674382487885324 0.9856552796970831
Ni 4.247063287325256 5.99658684923747 2.4723277664031076 -0.5176301721593601 -1.0265489325876516 -1.2006527258160224
Ni 9.286542692794702 5.324255415869309 8.92063107336161 0.05447242001626748 0.24441857959353389 1.1106990821740097
Ni 0.19595543249268402 1.5087529234018016 12.606036813413764 -0.3098575259236341 0.40777027651172354 -1.064858112580495
Ni 1.8916766964252896 1.6082723308366702 10.428129787295598 -0.8278764488809807 -0.4895709520292988 -0.027990057455022765
Ni 8.260486610193063 5.813058894527742 13.620642480289773 -1.1893738104680935 -0.7988602641542887 0.5090784259346072
Ni 6.6711542515445075 2.805295483814949 3.7834445226770796 -1.8010942741456595 -0.5456821932005699 -2.01792928769397
Ni 6.016607226585125 7.645397860625585 3.3578184403348237 0.7008986626061348 0.026814291979366724 -0.38393383621375815
Ni 0.5094270039299349 7.575537923526965 13.193434309000851 -1.069080378191959 -0.28526543840656676 0.06482959488087545
P 4.310929324495295 8.355956846986524 4.454747222436809 -1.3633853010929744 -0.3631593226705681 1.6271208358475655
P 4.283534007580345 2.932106865062552 3.779236579451357 0.1882921689136112 -2.11857486383219 -0.47593407797215453
P 7.9147757487951305 4.901469389872522 6.299154783908091 -0.6273041770484358 1.2882684653534782 -0.9604307008023394
P 5.783549741431082 5.8484398147958165 12.536968860271225 0.7856427370227501 -0.1773858064137526 0.8851212894360627
P 1.8954534170699433 5.9742835288135705 5.469875241720387 0.34881848056786374 -1.2772273770479683 1.752234315220163
P 8.127822251428993 3.2301953459934447 13.225761910339791 0.5084338503720728 0.9279892924441824 -0.4109345331723181
P 9.122847218883143 2.47197639985557 3.1033285352637434 0.33226083331949874 -0.4523241518626984 -0.08103962898183463
P 8.266536879086487 8.426859609934787 5.57528426649887 -1.0601684204143096 0.41206299034980653 -1.3081767742416308
