# total energy = -381171.62689675606 ev
CRYSTAL
PRIMVEC
9.20874547171144 0.00000000000000 0.00000000000000

0.00000000000000 9.20874547171144 0.00000000000000

0.00000000000000 0.00000000000000 13.47792983210537

PRIMCOORD
 96 1
Ni 7.963677050843377 5.2738669561827995 1.4586763351615724 -0.5437001297735347 2.911417975258121 2.614620110731923
Ni 1.8548163066435654 4.443007894888106 6.040538298830305 -0.01899659570716083 -0.2731447438836328 0.7304149268976969
Ni 6.386863561616553 5.184542124987915 11.548578127424157 0.39312758689788424 -0.8624271902726567 0.4198038106374899
Ni 0.11125730031414895 1.0343631277458027 2.9430680920872394 -0.024213106911093785 -0.7745823654435305 0.750597572493159
Ni 6.867449570936004 3.6890879021123073 8.172665846104763 -0.13804304295007194 0.830126421257422 -0.1149069711532408
Ni 3.875261109562513 7.841845348089942 3.4352681712111215 -1.5499869696780404 -4.394976123888966 0.9649319311068028
Ni 8.528790134960545 3.0363904396967327 1.951981463743536 -0.7263705816249941 -1.1542947073767733 0.3773862649032275
Ni 0.5756552559472604 2.056487832743358 5.194205782498833 2.127775813605168 -0.06381246647027075 1.1975154657386216
Ni 7.895449455552356 0.039752312505369126 9.62301287097605 -0.544432637064185 2.780629556987934 -0.07100615600523255
Ni 2.895220371426878 8.460267859814035 10.678847109692368 -0.8582671453576961 -0.1438838180015651 1.7149880292741948
Ni 5.000956575018716 5.747758207535376 4.260683943050217 1.1342778979352142 1.6780392199639875 -0.3534361818455332
Ni 3.3063171873239985 5.568528394180113 2.458805951570573 -0.07964403418588864 0.6407682729731417 -0.9616995402124341
Ni 6.133954575643736 7.390570775646092 10.837724674653423 1.650873972403105 -0.04085611478441351 -1.447631609937565
Ni 6.593682776441907 6.824113214688259 0.022525512328433892 0.052094149592078025 1.3092882621382547 -0.1734381346199142
Ni 5.357067971630818 2.267441774291031 6.259487273207196 0.2854050493082246 1.1416006568488726 2.6749140225259738
Ni 8.54416873991884 0.47188650746070737 0.9019146623238529 -1.0625492619416605 1.343669310721286 -1.501243738836066
Ni 1.1240839349965004 6.424932515447445 11.272791855045417 -2.82885728164607 1.4247063685999592 0.4685992348736381
Ni 8.655355132892762 8.499276105684297 4.648322400701373 -0.6554927236675099 0.6077054289809019 -0.3982823916259463
Ni 3.812052280560277 1.435993353285362 9.971322618414103 -0.48758631749910214 1.0316379170747845 -0.36688665092348427
Ni 4.353627811220317 3.8458207502501374 12.204885418069464 -0.5475572987360957 0.007530246938774127 -0.19593014507484321
Ni 7.433428277128668 6.5479061026409 3.7870560618184834 0.23641576389371544 -0.5452713309153964 1.7463531738490377
Ni 4.1381339581490275 0.5327544733609086 2.8751121547879963 1.0867189172093283 3.8197894934713768 -3.062684715987319
Ni 1.2181696876066184 2.642578439073097 7.6807889939473695 0.3095430800070088 0.17660650504556683 -1.4802241991616056
Ni 4.869078130942225 5.13408740848103 7.647835498232845 0.5502258467071943 0.4039267343959172 -1.297221817892024
P 3.4799388746794997 3.890087189791767 1.3147703486084186 0.025349277398066025 -1.9510325258714203 -1.0665786948160276
Ni 1.3148707239341944 3.9229071586967743 3.7569729320713234 -0.32506997199801435 0.0881520716568998 0.16141565623774137
P 5.120154576563725 9.094133437714813 10.147978587406582 0.7759453072293281 -0.2456269980793383 -1.2215717353568767
Ni 0.8967329012400012 4.626501357402466 1.6171901546760092 0.8791257339742602 0.10494831727863216 0.04292816682209381
P 4.430327452356627 4.101400272413317 5.313525339484231 -0.8267924717881826 -2.0999726753499703 1.0871529194229534
P 2.7690973932778937 3.5022884999691892 9.953532243013544 0.07289206017403575 -0.46011279466918187 0.822926561074873
P 6.174528308246279 7.157939447229062 5.920032655426567 1.4480177896323903 0.013903240344653475 -0.5719951200634859
Ni 0.746159782956425 2.706293749076954 13.325440561796494 -0.9337277375898564 -0.400185265075614 1.754009919063347
Ni 4.296653302910755 7.467463800437565 1.13900486530424 0.6571973650634424 -0.6166420693488993 0.008157081889495628
Ni 5.9434716753070145 8.674472488517564 4.166607399185583 0.7485630585616334 -0.7943168677579804 -0.8254169315968946
Ni 8.61570227483862 5.019033342403824 10.522745060620192 -1.2447366035091143 0.19916973505806343 -0.31811719482926504
Ni 2.7700274765717787 5.861817729100308 4.568519412336953 -1.7703809042222027 0.4422747380464963 1.0820204832923948
Ni 9.251013625780386 7.143739561692719 0.6616879606316124 0.6881477906983697 0.4917900711678046 -0.25586950174295287
Ni 3.0536476287337653 5.564743599786184 10.92608627107068 1.1352140365962384 -0.9607870557004937 -1.0473278170062155
Ni 2.171698447493792 4.714730347884754 13.320710029241356 0.5443171945322431 -0.11047927439919036 -1.6247392229892665
Ni 6.325929292748867 2.5240158409664843 10.521330597313849 0.2852921778794441 0.4764351859782891 1.2698876488534452
Ni 5.434172797568425 1.9563795605866985 4.185867490365387 -0.41078412363738287 0.21424411289268264 -1.2846843475466456
Ni 6.278255617378154 0.16317804910208727 6.258166739104788 0.9571880254953258 -0.37674991687080917 1.5620251317894969
Ni 3.8185628636174713 2.837214483623107 8.06441151769295 0.23964198414049698 0.06793703016160557 -0.3686380863969522
Ni 8.143118665344772 1.7049808088732588 7.22954849386181 -0.3466824080614675 -0.3792212612294372 0.7792072658100516
Ni 7.350291722899036 3.976704649814354 13.437860005790723 -0.13749154132197614 -3.505801490319137 -2.541395349808817
Ni 3.894175872786667 0.1269361103752223 5.287958178522429 0.40404834757544605 0.14420777699988713 0.4132346420604044
Ni 1.2988567155375033 1.6920517302137101 9.67197853333817 1.6392261037515319 -0.594955328404085 1.2687167684737957
Ni 5.670027186904857 0.19387908567122417 0.7155379415984506 0.4898409178612338 -0.5375989019718032 -0.24223005658264735
Ni 5.305701589321018 2.4872084852669007 1.166814355791398 -0.33632189076274976 0.506868819877798 0.05790741383974543
Ni 2.573383925506255 4.886602373598294 8.26392543472584 0.6076894881413019 -0.8463575384043037 0.6067926873586453
Ni 8.099552090459929 8.282327270826533 12.04940403844291 0.8871365200938787 0.1423324143540452 -0.0526641631629351
Ni 1.9606524184912784 8.841463879124579 8.646321353572949 -1.7226077506029815 0.02179806971169794 0.02258534149968368
Ni 0.512614026112833 6.4591337961750535 3.0826588605065863 0.9355534779446856 0.9224763330457532 -0.22103491056227093
Ni 2.9287402049886704 2.336221894311093 5.678777336863763 0.6981018165872881 0.23754190707835865 0.6832439256388491
Ni 3.594514085991537 7.2019848768790755 8.726474274265762 1.1716887344835045 -1.1894753690429642 0.5211875504933153
Ni 7.345788646357356 8.244451700650805 2.112814045370846 0.016413408361016894 -2.6728435131501906 0.1601884686988596
P 5.927743138020327 6.361309292898429 2.3872779418980827 -0.9231371065582038 0.1443497018943901 -2.298340740442345
Ni 7.640413249372733 6.178699869950535 7.207363705116284 -0.9206865881351821 0.5842711092173615 0.4286887718319455
P 8.381579129653181 3.7005527902398985 4.20303811719487 -0.37298839294584796 0.19886685910566396 -0.33409274432191494
Ni 0.170227343770096 5.046503030182623 8.118390421096564 0.8508924501601797 0.39121134371177785 1.5659000413638708
P 1.6898416312975482 0.5221533655597177 6.738519767163493 0.7014720186111015 1.0677930268391027 -1.430978060541284
P 8.380372783994774 5.782060784463308 12.669927985886456 0.4404870500184543 0.3665452084236655 -0.6698497637201303
P 6.927886567547553 1.6883682320201068 13.242066421933375 0.08341250008938537 0.39519732494271936 -0.15284436962896256
Ni 8.727266226377386 2.900782453699219 9.451573656300258 -1.949730519230545 0.5108704848380234 -1.018177934915137
Ni 0.05755465927505491 6.328820838830846 5.428290250953239 0.5464784638496202 -1.0042656957094187 0.6344541578296558
Ni 3.4748280209358753 2.9529499968661295 3.278681742126488 1.1010602735326651 1.0889876586388472 0.48164706919653183
Ni 5.828095303137868 7.663794254156632 8.218087062330088 0.9714159961692496 0.2548207487634644 0.18744087665690945
Ni 4.0065317764370585 0.020677317109793324 7.554285694609896 0.2510993340478192 1.1332723394888353 0.4495195925343678
Ni 1.0445848352330525 9.264182131822517 13.04158190312647 0.7912292299715922 -0.4295683462234215 -1.372722262223184
Ni 0.8526018302569859 3.481255725283713 11.299694284102403 1.7590688216434929 1.0010196779682954 -0.9792696878857134
Ni 1.7907050205838964 8.044115442646195 4.815610312912974 -0.3285571592156664 -0.11445831365159644 0.6117091508236562
Ni 2.432784799456409 1.749238039669405 11.952875205655888 -0.2529178753137967 -0.1062868335843976 0.050508293162196884
Ni 6.841278316270451 1.0840535183775142 2.6411759471358827 0.2765172599002915 1.7820681107521439 -0.26588137745300017
Ni 7.7432288927016915 1.6601710533480718 4.893095460039069 -2.9014757764437453 -0.3325302849308015 -0.7339933882775747
Ni 2.021218337539604 6.731399565155258 6.987228644321055 -1.8480937828236497 0.6108285479909158 -1.1468513637248507
Ni 8.629423305609793 7.24499892703488 9.472518027029087 0.7267032823740646 -1.652647262253444 -0.3917150228210738
Ni 9.206645890038432 8.476880436667187 7.068015126703166 -0.5886502121216637 -0.34170295256900507 -0.22589686664026257
Ni 5.000744773872583 4.4094696438353465 9.823429245066373 -0.4221376009769891 -0.4624077613509455 -0.1793393305956976
Ni 4.130288106996653 6.977079685923129 6.212342179827264 0.03470140803692733 0.8010238474645108 0.07849500818310998
Ni 3.2350322885322864 0.32083545528651125 0.4283033568339906 -0.08853208070413784 -0.03320656865895571 0.1622849462165721
Ni 2.489206783036931 7.050381299975839 12.972319244843046 0.8866192141378278 0.8502743569602066 0.7050782479051211
Ni 8.772269365557737 3.883309553115537 6.359951923814086 -0.7054505436428754 -0.4197089369308385 -0.763796073461304
Ni 4.631759551073835 8.247941815189245 12.208362640364227 -0.7983676407885864 3.1551847802002695 1.940700033597161
Ni 8.348344767201393 1.832227253971292 11.573013533565975 0.2206261051596265 -0.9801896285968216 0.6887298884540849
Ni 6.644119075457822 4.599528941879804 5.723699439083854 -0.5561733225398809 -0.34135791052476055 -0.6587287141063042
Ni 5.330850673237846 4.930546507047984 0.6336740359947094 -0.8733626062382379 0.6799943083532999 1.147919657088365
Ni 5.925063393084481 1.5014399074402123 8.577300885295754 -0.0013416016295589798 -1.3519009546024587 -0.8274326764753426
Ni 2.1772421122751653 0.9816706860863046 3.9457448474971164 -0.2319646701008973 0.07139619235479962 -0.5368936483746625
P 0.6780721605967609 0.026366480069813958 10.773718368292272 -0.8323882207084051 -1.106202736965553 0.9928199157663223
Ni 4.723672039749727 1.5390300065059364 12.214940447263453 1.3796516423531657 -0.6674190427914506 0.6099939679047625
P 6.823413350031474 5.915265287889495 9.38387372212547 -0.19191716726070818 -1.29496207532357 -1.155885191792345
Ni 6.496512094094646 4.108923817473752 3.1481339617724373 -0.007742877170212471 -0.34208527560908825 -0.32391914622302276
P 4.604105688385356 6.272914544997429 12.223296462915643 0.03536603820411974 -2.669413661533035 1.2520292805157855
P 1.5570791476545933 6.5826967430794845 9.090095402820074 -0.9869225764452808 0.3668385712943682 1.2491298474808035
P 1.6878341247820343 8.489293825579631 2.4937540615569342 -0.09910471401366158 -0.12118740484531389 0.011193554722974269
Ni 2.016917853398572 2.034340799854317 1.724622142116101 -0.1879144738592183 0.13057321693558804 -0.6784896987833154
