# total energy = -340862.07585503627 ev
CRYSTAL
PRIMVEC
9.37711856393502 0.00000000000000 0.00000000000000

0.00000000000000 9.37711856393502 0.00000000000000

0.00000000000000 0.00000000000000 13.72436087198913

PRIMCOORD
 96 1
Ni 4.3441283377026565 6.923098500743322 10.545044301778287 -1.3583019730327963 -0.17772082115566812 1.0516840370923823
Ni 4.702859385295206 4.48616355251561 2.864616886296338 0.4316236860905534 -1.7868243944902065 -0.5073699278839326
Ni 6.312910641873017 3.38031058373589 8.943891930712953 1.6505847232974606 -0.9218129884301415 -0.7451548042110328
Ni 7.815462611290619 4.480621675447249 10.717682680720346 0.5334105749220684 0.4399964835352809 -0.6584806026512402
Ni 9.3011920300134 1.2364856074249468 2.1327927963262967 -0.4687640425862766 -0.7924137371979966 -0.3343575679475274
Ni 6.940033576860849 0.8250392124293485 8.849330254028574 1.4321587111129463 0.6752948459951015 -0.6606534419328428
Ni 0.9982130248411252 7.6328713587100525 5.239452804579025 -0.003719100722800046 0.7894942495583565 0.20843393396880877
Ni 3.1180607089967425 7.36309165776804 12.735026268772124 0.5386563967020401 1.5567548845294932 0.892041927815296
Ni 1.970629596526481 1.0142103891027545 11.217605940167395 -0.45566941418584755 2.687151188022114 0.5442143504057917
Ni 6.008154288705988 8.113458061976619 9.323109169221317 -0.7560112873095625 -1.0191366992839803 -0.20229362539902582
Ni 5.143621466041761 2.2453322847119614 12.680444874775837 0.003283555847278216 -1.0335636733425877 -0.3691818747155642
Ni 0.6224231231660692 3.3802168125503003 11.447832955027607 0.06787892323016051 0.17031270161705508 -0.7425271367801987
Ni 9.272976280269413 8.856529067946308 13.56893248451085 -1.0721410193951535 0.010078210171608449 -0.012749329245868366
Ni 6.304049264834776 5.997220568466211 12.04346940131808 1.4650477485314832 0.45602345509115655 -1.0424686891417012
Ni 3.0545307307596157 3.2788220295719896 11.170710032542052 0.9311129256748287 -1.3877382760160422 -0.5467975377519357
Ni 7.926215758590797 1.8044951870169348 11.274233421433253 0.21005989960800597 0.47686661708875294 0.29308724844383066
Ni 7.1862954644569275 4.779657986293298 3.1097619590720407 -0.8721647292753947 1.4794055599150522 -0.4389731844770891
Ni 5.442939090444578 3.966005408930125 6.740170609606489 -0.8388080081918199 0.4035660086223889 -0.7189753176021876
Ni 0.8878133949106211 3.0525240273879928 0.18569976738286947 2.534242026593487 -1.449946888334303 0.23213179180638085
Ni 2.0109324520930008 8.966016304241023 0.8828191415661053 0.9421015634758485 -0.22332807747182185 0.30100084686395256
Ni 7.0014818347778816 1.7620168399447305 2.6525758551694225 0.5027684245561793 0.5944591054939569 -0.9116321912423977
Ni 5.623223571859633 5.986924492288445 0.75882550286064 -0.8928816501077719 0.03131526517351381 0.9057590202910725
Ni 1.730622247009247 1.879587152437291 4.334935010667427 -0.5429221139569295 -1.0909319268494115 -2.1588460526474114
Ni 5.619472724436039 1.1345844600444515 4.421344220476623 0.028953192699240463 -0.6890173377875166 0.9795913328911903
P 4.994281475871358 9.258882471075259 12.822395695521761 0.38065336569027347 -0.1169682245576437 -0.6613625521847255
P 7.659483621180454 2.1522643830140304 4.784421562521262 -0.5491909776847768 0.1657176260472049 0.8418686493950146
P 6.750315714175455 3.169587975478368 0.7753395463548693 -1.3764195085691133 0.04602943145523685 1.4777109458214488
P 8.549709748696301 2.290989474975662 9.301918756701722 -0.08288131017626371 0.5859376982865071 -0.39012145308170876
P 4.456475595157862 5.366224883513517 12.62847031973895 -1.5305630566254738 -0.5614309713943944 0.1332006272561061
P 4.610616670030466 5.202903609571667 4.8522612644480985 1.7250628970116935 -0.7918051570797202 0.9936496107564693
P 3.974979311391074 2.2439819796394675 3.397012169601299 0.36141971427164205 1.507227981443959 -0.09057559349672788
P 0.37337998220539664 4.994740954680748 12.909024329905234 -0.5451651443548353 0.1539198620813285 -1.1408210983703708
Ni 0.4329162456482516 2.93534755387491 5.678275697207581 -0.8574649611713747 0.7747019217405303 1.5739987592116054
Ni 4.835273676466641 9.020412969001697 1.3206536858985447 -0.056694110257934624 -2.532563867560116 -0.10197072270754697
Ni 0.26793897256888416 0.5572315195202902 8.050902366357771 -1.7785863228511303 1.0617833303099133 1.0702165486789312
Ni 8.534593833579217 0.033206252241079474 4.623284219491799 -0.23339420345857226 0.8313065576084522 -1.0510147789394997
Ni 6.165718011852622 0.41196588736376616 10.827409033538315 -2.644167485371736 0.8449987103835641 1.6487396996689219
Ni 4.811108841940134 7.827765390840008 5.252491687935294 1.8519882327820494 1.953863824672629 0.42056999937955303
Ni 8.192507171428867 3.381013867627814 12.98330048601096 -1.5420530595429442 0.7399313510285643 -0.8678411621993765
Ni 3.3103479021672992 0.2639762022658569 3.690411894481541 0.25188480606359204 -2.089735571002995 0.07648466262130053
Ni 3.138802895249219 6.3576582516364955 5.701277769032773 -2.5263883348770233 -0.25679844131512547 0.5571678252426663
Ni 1.0970103459785963 8.309580496637802 9.409407729031518 1.9496503008119133 -0.12607430062396996 -0.28389838285571106
Ni 9.010473223329173 9.094464074262007 10.722801649741696 -2.128366653111631 2.8629166852236243 0.36779039368467625
Ni 0.5626486809118161 6.069002411035245 9.527602557620106 -0.20815419794486087 -0.8158267168052982 0.003120805017168819
Ni 6.974081894348527 8.354965750463291 12.357867307787457 0.4421333273726257 -0.2677641962980098 0.5428339251184974
Ni 3.899484129872682 3.7754623598115393 0.41625310596893433 0.7555461747476859 0.9458867415498935 -0.8998061451417472
Ni 4.020589616061979 5.582817567988965 7.904490850313339 -1.0986701760339337 1.7463932830583537 -1.6452941643224825
Ni 2.8826106390991755 5.271666019964708 1.7052515150360559 -1.209201129606666 -0.2641363697374354 0.8277622919006197
Ni 3.5651617218891714 9.151036230528366 10.311784726776098 1.0005373390152381 -2.686658821766728 -0.20275770951963792
Ni 6.745599023540286 9.102322099614435 6.750341032395564 0.3854366460115297 -0.015141226516812633 -0.7418941311818901
Ni 7.5022668514205035 4.2996995499701836 5.656865860113706 0.8974451011087383 -0.36161511811189984 -2.2751781862829525
Ni 1.0986138332521829 6.410723365561796 0.4899553824188486 0.5927246393013533 1.4054125533673536 0.33209705404812484
Ni 1.3193793354863785 2.283178335216027 9.392280421983529 0.5751573198415514 0.4272381554283481 -0.5124499135100014
Ni 0.2873617982401108 4.0047891712900885 8.085048205878461 -0.4402818759861836 -0.5507534370758902 0.31722630758387943
Ni 2.363005745508671 5.414629569515001 11.697972281147825 -1.0038034113610195 0.5047582012926983 0.07555777993165698
Ni 1.4780776899786492 0.5510707526270366 6.200707792043621 -0.7765564584507658 0.26252377383467695 -1.5102683109321797
P 3.1497459926075546 8.74762321300225 5.863636950610471 -1.6031401566622518 0.15949195685246725 0.07562848526859234
P 8.162153438653432 1.3834719408370446 0.1347698233534515 0.7662936430721771 -0.4051210118143345 0.36457625762275275
P 3.4375766467756144 7.249131535920689 1.472802123077364 0.713365684724894 1.0330615368951885 -1.0271688255598375
P 8.892677859991197 8.57108957901079 6.554631190950978 0.06471003858387565 -1.1532680658844718 0.23368345256421694
P 3.8503761599792745 1.6707399678915655 9.672943206725103 0.7399218379468676 2.555690683385566 -0.07571770254828895
P 1.187846493459489 4.151597339449566 2.6160557292295974 1.4748089416833052 0.3919122264335444 -0.5161258196996917
P 1.4067365719818878 8.734195179225782 12.165328807839519 0.6754681383481722 -2.1251502030568625 0.32381013144898424
P 3.047901107938413 1.9134197961981105 13.715083316659342 -0.9042132730705073 -0.8819943137713069 -1.1255891119119645
Ni 8.888711338840746 3.358743211050223 3.49106560645978 -0.23359423528452028 -1.333024172302614 -0.05133695971107933
Ni 4.51758627680677 8.81010295396077 7.563413166119936 0.11464677551331869 -2.1083850677833813 0.3067344069136201
Ni 3.655444619375084 2.313053834944955 5.614937949900914 0.6248703707959625 -0.9044171615511973 1.0212272632644217
Ni 8.913738868274677 4.528426225860957 1.2697659389026423 -1.3438024938650406 1.2507586413334781 0.9367292434203417
Ni 7.550793439963253 8.910381859830562 1.379586062906201 -1.202713207889477 0.6045753679923523 0.5830770889092604
Ni 2.6408122599371753 4.055781942013852 4.41887334973633 -0.039188497274003475 1.1464718688982447 -0.575780298137531
Ni 2.079919913331457 1.8117061911887946 1.9712850571137541 2.051870420526105 0.7758792298780831 -0.20409982536982912
Ni 5.50771622545005 3.8596782615897887 11.035991783340677 -0.7436779625551903 -0.1760622025063226 1.1264368046242406
Ni 2.755991407197194 0.7635140621401327 8.069499067883951 -0.33353712892876103 0.6045972223692233 0.27751253393402525
Ni 0.42077662796178894 5.385813684183239 4.539854120248793 0.777998333103615 -0.66750208942356 -0.5360575256266122
Ni 9.231548170475815 7.166969223106858 11.678470687680704 1.0647730090658565 -2.776916884023037 1.942665384853648
Ni 2.3411289279105576 7.093790189872535 3.3400564891858773 0.38548883940570383 -0.07099535737195514 0.06828361486774692
Ni 9.300132415616234 7.223053769208151 2.7173407999207675 0.6038104648018698 -0.4545098466601076 -0.06640156735368564
Ni 7.993374681710251 6.931566038802086 4.886846890829205 -1.0055401915464683 0.5855353206417658 -0.6110560906206897
Ni 9.102162688598934 5.944155454540913 6.843090112062491 0.9397806286521557 1.4193679871061813 0.07083723452753607
Ni 8.239374009986676 7.864579958302585 8.607246810462382 0.800010575708648 0.7132530704064296 -2.1273868056968652
Ni 5.333995727026284 6.750822078577641 3.4746237667784547 0.4746215298083181 -1.3290505323668467 -2.774377662540951
Ni 6.257182426276967 6.623021329737227 6.616775231065087 -0.02740795969930764 -0.5657722790822256 0.7776324651237639
Ni 5.145618792294824 1.6980461371353313 7.648531146703559 -0.8358682088372056 0.37889010314226357 0.025702546972426705
Ni 4.9653061795240925 1.8024040895782811 1.3154034372173689 -0.6121691211792102 1.8352488085401812 1.1182344713191066
Ni 7.893817813969502 2.221626928994846 7.045633997512866 -0.5993603994503163 -0.05483288867947976 -0.09325365454952327
Ni 3.0883539974018763 3.4789484938578585 7.67636431001034 -0.5075216229704484 -0.8496027848144786 0.583066547386299
Ni 5.610564461805003 5.537619856534655 9.385376987300404 3.020414494464198 0.19149139257719922 -0.14703547625666932
Ni 7.869727996391468 6.666606176799392 0.06635624177080504 0.8132340163774575 -0.35523955360285914 0.7821457796130852
P 7.380204899138189 4.995688043655206 7.5747079054242334 -0.9791863841432877 -0.7575845453339535 2.437079781018177
P 7.2684484001522 6.980777156999642 2.2733576789492016 -0.6011871682464098 -2.680117163993468 -1.2344570759599771
P 7.620934286784465 6.939433441273075 10.298252606983626 -1.0189749768951353 -1.6716831958389724 1.741709247319123
P 1.1751967605234175 8.987508659978218 3.06840980393877 0.029415219937323538 1.092230333945861 0.34330320717658946
P 6.4467315008282995 8.589628142401903 3.607174026168994 0.08654281818825096 1.7211746177008809 0.9806043475367369
P 1.6913227431285387 4.588702343958116 6.404253153756095 -0.3445175391996647 0.9522733618025278 0.15521364119208753
P 3.2592050975465923 4.9610114592240775 9.745957202672786 -0.07537548871752181 -0.46704654567453757 0.5676975211293964
P 2.8314772115970275 7.465058444978449 8.760382658225462 2.1967939926460938 -0.2051879162276853 0.08002892832913314
