# total energy = -340855.9675133833 ev
CRYSTAL
PRIMVEC
9.37095914321184 0.00000000000000 0.00000000000000

0.00000000000000 9.37095914321184 0.00000000000000

0.00000000000000 0.00000000000000 13.71534593715318

PRIMCOORD
 96 1
Ni 2.634120331234766 0.3604417532374034 8.642862602712208 0.46963101857226214 0.02859375247729269 0.20793539706583544
Ni 3.7918273401407028 8.814342717383095 13.18262834487265 1.4167452047713534 -0.37084666401249683 0.9090909128777828
Ni 6.464958973427204 7.873657746482472 6.122749357896227 0.8453082712041828 -0.49520269639377945 -0.20147447193184012
Ni 2.585859892712923 6.1602247597783055 1.356567191396847 -0.08717839488972083 -1.0989622533530556 -1.4066988762789452
Ni 4.968754185824951 2.744894436820535 7.736442543162094 -0.01845049339570371 -1.8705734519834043 0.980558581900466
Ni 8.890050694629302 7.630406394414508 8.147957896794013 -1.1094227865647475 0.11972110471243251 0.19145308314009607
Ni 5.69535959982625 0.41305406508925535 3.825374436036693 0.9191799216826686 -1.5250159015549993 0.35778006063652573
Ni 5.754827705235885 7.2285703042678735 0.558509152602304 1.132879989146423 -1.0587165184591314 2.296623757751238
Ni 6.494514977912232 2.750919963416563 3.5742055607634664 -0.973074357708279 -0.8498845777209556 0.36256256962683364
Ni 8.715160488001503 7.152524972499959 0.1648801482920641 -0.3261457215606964 -0.40053262111270377 0.012955531719403494
Ni 8.359841838014566 5.166490790339401 3.964695293830052 -0.2890344185306958 -0.6440577423576908 -1.3147359155163874
Ni 1.4067402426375852 8.213664249567529 7.20110496072153 1.853405167734234 0.8135196659386765 -1.4460737785321418
Ni 7.26100319314634 3.7842556053201886 11.073962045688354 1.9895203975339737 -1.7629167346346737 -0.9869500872491067
Ni 3.8057806979968243 3.6743998537101747 1.164390376819292 -1.597043556846211 0.8221300333155067 1.9828342437630495
Ni 8.161758508019473 9.027672597567515 3.9893006207090433 -0.5369558690711655 0.5838556189464977 1.4088061524299351
Ni 4.073209124120391 1.7147168080784363 2.7768775196700592 -1.2300895430199008 2.7143904833540415 1.0861846419724133
Ni 0.8942453097000982 4.98155491573191 5.525185796831081 -0.18604245364748606 -0.8749158096579707 1.8949901902648718
Ni 6.112142369476252 3.7494706057487166 1.5028319297619903 0.5728484692027167 -0.9267505349410748 -0.3811002234197049
Ni 6.941031800267051 6.802894494587343 11.91862186327302 0.38436475310358964 -2.5038510730064556 -0.19245427071110083
Ni 3.9705690108913125 3.167618394436138 12.747152386336557 -0.35208660979617423 -2.6330436075444332 -1.4367699846327127
Ni 1.5195103624767818 7.9971763562215825 9.786420400720255 -2.3456336119910377 0.6959153504589305 -2.1928458066316234
Ni 8.611114730931984 2.609174838546388 4.424365194147834 1.5303026038752352 -0.7015164986957918 2.5393086424831175
Ni 1.8815667319389064 0.35824988594220747 12.817484244441022 -2.9175724248952917 1.4598039836340408 0.8905298620461438
Ni 9.146683776058273 4.149666778081501 9.693745365224018 1.077018659202429 -1.0522044283722267 -0.20726768157484948
P 8.925126193927799 0.6998457036628576 13.424662409374791 -0.1772881044936237 -3.8972450046463787 -0.631379889779706
P 4.648717196233107 6.882903741985303 12.694183040949236 -1.8546089582343481 -1.3692335323436355 -2.7418799470235617
P 0.7848506092697495 4.576673263930984 7.573983850659165 0.5226767334443321 -0.9438694540095487 2.111929333491214
P 7.369781284478681 5.478543722917534 1.6664142002413795 0.28911772227312144 1.1245696695085148 0.6227170718983855
P 7.496317342995274 1.6307623869683014 2.051143604849834 -2.078091301895847 -2.095042585038205 -0.37934390285023056
P 1.259288203775215 7.915939513202968 1.331778193722705 -0.19379098724465335 -1.1992689580946185 0.18736811443744505
P 5.670301655630637 4.180281700926329 12.272861915886393 0.12518084227542312 1.1489362712783375 0.38639823859385064
P 1.2745066410877341 1.2952445732137225 4.084607958570482 -0.6385098159562681 -0.8416524196191505 -0.39661168879174274
Ni 5.473492776050879 8.463194144122799 11.454302093131055 -1.5768089749668908 0.8393206861621804 -1.6821910373488318
Ni 1.5539392656086757 2.645281143327876 5.612497832528086 -0.9272752970962934 -1.57340869103609 4.731546640327412
Ni 0.8896038737389586 5.208838153772452 13.169337513813327 -0.5457212739686214 -0.2064140753253026 0.7294782740160405
Ni 5.860288477104783 4.974976502558641 7.289884488587957 -1.872962778151187 1.001992840514842 0.01848314640585204
Ni 0.23956762811011148 2.528303462926289 -0.10950715193758397 1.7057184310468108 1.728543399361126 2.10169145781329
Ni 0.2557119161655351 1.352997793138018 11.204106860491308 -0.26568365961989726 0.0035280677579165045 0.3320011519002089
Ni 8.818718955206338 7.251547895579633 2.51861763976975 0.4715806860994653 -2.2050037821503965 0.7402972190084154
Ni 7.333009641612718 1.945045607773269 12.789121163028584 0.3868049871139661 0.9758323800693904 0.923403729956029
Ni 2.0686110723070605 3.0141689418545483 11.117796580304594 -1.8027225537777019 1.6481293197784326 0.6889404618029942
Ni 3.6946879798072216 1.8854275670206537 10.213680839556911 0.8110010132818807 -0.4006395790042132 -0.29448747122546703
Ni 3.140929903385612 0.9312053088406811 6.465660858251531 -0.2628374484203538 1.5036880866115006 1.0781268046649433
Ni 7.07918784786463 8.771226935317268 13.04483026790644 1.3530543514806117 2.3010686808964693 -0.3191911446197342
Ni 7.7092067881096895 5.493237386529621 8.442234120270022 1.2954613835574915 -0.47765363176642256 -0.3916666860816416
Ni 7.245175643502963 8.602015529804856 1.6100994225138032 -0.09257205510146638 -0.014666857983555387 0.9683653822683841
Ni 4.17750789708119 7.949150191673145 7.404901764380073 0.16352884592600225 0.16690316171487385 0.3947008449222751
Ni 1.2679469698323382 2.370768272248482 8.784733298432128 -0.4146176384508602 0.11430533301349992 0.21262688900423382
Ni 5.500040702717361 0.600402024526945 1.5004723223018348 -0.4112080985486789 0.8087669817450395 -1.9643184443470494
Ni 6.540451418617878 7.343308325483689 3.657553680830424 0.39892285342342265 -0.9256922688798896 -0.32341598133435917
Ni 5.748830291516666 5.109740263021288 10.141620039528702 -0.4902960031207814 -0.04382522471506646 -0.8454296272733955
Ni 1.5114607087505172 5.674715377289625 9.725222416290983 -2.030023756964659 0.15392834672176073 -0.7919170000672361
Ni 9.205177301738535 0.1531486447997348 2.0266891504097173 1.4891222729821838 1.9377787461853082 -1.32215534790891
Ni 4.056669381597856 3.826846613685582 6.019706293432889 -1.1051912649819031 0.14415301250255175 -1.1513762481783976
Ni 8.228892057838983 1.8544471767773114 9.234500906441944 0.22676692795004172 -0.4972464662966855 1.1530919453179238
Ni 6.225231101919282 4.652325015423576 4.82459229064511 -0.1978697852997173 1.690471275079753 1.3091656205174615
P 2.9626848934586247 1.681946564678264 0.5780054326692351 0.855049923971979 1.1077975922564987 -1.096215543845854
P 8.505635217145214 7.059874301496957 10.202886431958209 0.36455903123157213 -1.7286300455376615 -1.0456496579728443
P 4.880357930179019 8.038502285130578 2.374400455932184 1.1710151054552478 0.7630008312535181 0.23856340636433748
P 0.006178273226689582 3.6425760771625675 11.971137654247828 -0.9485714874709082 1.012343587621547 -3.2278523830683254
P 1.4495748959353223 4.279595123733027 1.6862197219532078 0.24366833169107066 0.3556481018951875 -0.15305365742629123
P 6.830220210845536 3.186828860255513 8.693444227762567 -1.243306298820491 2.5055222900612915 0.654903169712627
P 4.2638237998432675 6.30207296519678 9.042500265892391 0.21902199389730018 0.24871617852762326 -1.664921708745423
P 2.634326492331364 -0.07701991149728754 10.93196671621458 0.7277222105568822 1.0722194380415728 0.21570758481208657
Ni 2.7763246330928193 3.924454521965878 8.468046426660006 1.6762242782424355 0.10482053345151625 -0.13033590411380136
Ni 3.3701248170491547 5.068133205344203 10.55918434715399 1.811216964401958 -1.1722597764956264 0.4214349184830096
Ni 2.0426628870125008 3.659846754482132 3.9281298120606865 2.323345490016799 -0.2562086302499265 -3.737375352739518
Ni 1.3390444352818964 2.0793314493301653 1.9495127438981936 2.247329796612117 -0.3354891104488093 1.0354326082305265
Ni 4.574808443102665 6.742657970544934 4.84136630714105 2.6842576685244026 -1.0912980519395785 1.220790119995846
Ni 3.1384465992674975 7.380304871364125 3.155187817407162 -0.20323953425206287 -0.8345263500973306 -1.4158653732695616
Ni 3.4794183111229917 8.994864870331597 4.758580444610271 0.372446661509765 0.1957545387289274 -0.2019131021311555
Ni 3.138324776801326 5.289522110213825 12.796129703217026 1.3946486299826302 -0.3640448105993149 1.1098925271123143
Ni 9.248386793393724 0.39040070895669143 5.987968729707495 0.9410898343818825 0.04153154358488331 0.596101011972754
Ni 7.120054599785749 9.324038544886314 7.984827306535352 -0.7208205983410425 0.806934813632307 -0.22243204802011368
Ni 1.2736163999887877 8.497801095474482 3.703980222688437 -0.6436790188620334 1.325148369098963 0.5389135070181686
Ni 0.057803823102551215 6.987099434397805 4.956382645837273 -0.8867511117300019 2.131346304565245 1.5823841550618232
Ni 8.826178238519615 3.0917417399290765 2.3546642793164843 -0.22212685807486907 3.82609975196012 -1.86250661581487
Ni 7.453332754354556 3.3701248170491547 6.628653695413828 0.8253084310434883 0.2648958736112793 -0.4304003552064136
Ni 7.76004424033901 8.997057674722686 10.357801502517434 0.22313858716883506 1.36947830136459 0.6061295998533496
Ni 4.959064614284837 5.638121782643451 2.4858511447531524 0.04579263285408242 0.09853984264912706 0.45785742297610177
Ni 2.7314283688291003 9.419969051517016 1.8212749192387727 0.3385533511964298 -1.5389093717076399 0.1564410858412854
Ni 7.63246800538049 4.394042645221818 13.401799143762057 0.5084279368348018 0.7442379488237183 0.06818179918256
Ni 6.165219480891343 1.3241914653678921 10.960837703601367 -0.7194147191324514 0.5627656310454179 -1.733811589738601
Ni 1.5180391219237859 5.744022989582353 3.565975984625625 -0.5221028632187331 1.321950945207588 -2.2867476362881067
Ni 6.5432252224630165 7.234661427576456 9.396712205628955 -2.098411758620754 1.0968200101990724 -0.6100914127145751
Ni 2.467945116417708 6.089539616521944 7.485986797863919 0.5003050506173512 0.251444890312696 -0.8702487431996045
Ni 2.352850998762314 7.052724259828575 11.567302738560086 1.1526268327560474 0.6576485936682481 1.8118705388255572
Ni 7.11370108962695 1.230219489154874 5.653821887245295 -0.987402344295177 -0.4694155601273464 0.699901331689872
P 9.616665479589537 6.974898445862768 11.988076599621047 0.8604610676852212 -0.441332171627569 0.4650428849809474
P 2.6342421537009377 6.897972243954842 5.212366319811961 -3.3099687900541057 0.4293796272513831 2.103438522411384
P 4.898996767503281 0.5374807207492911 9.061029462997096 1.4155267589832201 -0.6584196675063178 -1.0248334925584415
P 0.2597714155767317 0.6012950769135724 8.356376457399927 0.2461597306543567 -2.8280304148694007 -1.6606122827367917
P 5.425878933695639 0.9762009052691245 12.99723797875675 -0.49604756089257795 -0.08328960135827591 -0.5742738887953336
P 4.499203546404756 3.8163042848822673 3.8762718624032053 -1.0424614900528497 0.13826441493225866 -1.514355850737992
P 7.988142751807008 5.845538587739078 6.159671873201065 -1.1685537883989487 0.024530381041196467 0.16965758453155944
P 4.979952481753806 1.471502939846218 5.549146401735257 -0.4583703580567783 0.27501984941915864 0.5006421222417959
