# total energy = -340858.6657171992 ev
CRYSTAL
PRIMVEC
9.38393806003861 0.00000000000000 0.00000000000000
0.00000000000000 9.38393806003861 0.00000000000000
0.00000000000000 0.00000000000000 13.73434189385647
PRIMCOORD
 96 1
Ni 4.800353517493263 8.320794186457592 1.8115457837323443 -0.5023902152811541 -0.5915560729145489 1.038860917185785
Ni 2.8152846430195906 9.208026762690517 6.3438105130213 0.6117410325028562 -0.8850927501909723 -0.10570550715963085
Ni 2.3214267504995325 5.972726435789625 9.721194922962109 0.24113939462162987 0.03251262791572465 0.8137608354152049
Ni 3.1164715191753203 6.80966110399056 5.256984389313002 -1.8791789342642282 1.7262407193698788 -0.5544491407599225
Ni 4.2456314026792725 2.558343034843492 10.417168765509592 1.3406693475526976 -0.19933017189532767 -3.2596463876504695
Ni 3.4465233888210505 0.5215395714199762 4.166491022608642 -0.110246589563094 1.1136501943825337 -0.7417316374620968
Ni 7.987683153002454 1.0377884785585278 12.788746096213483 0.4796228396776514 0.7910415394408183 -1.3442321252032914
Ni 8.987935879298304 5.926951585905288 8.376409972191395 -0.056915739350437464 0.3945023557582238 0.3558974989018322
Ni 4.260045131548141 7.841931826966475 13.160658775176357 3.4359890975116887 -0.1028443835617519 -2.3837623005419593
Ni 7.184558813652125 7.5696287121768755 9.9919675174532 0.891070307930646 0.005331182404926302 -0.08789084757571315
Ni 6.665598886806401 8.359615538235268 3.4750224087264883 -1.3184295623178905 0.4629628625234672 -1.458054862153418
Ni 0.9677561487744359 1.2820805382221034 4.7727797538811 -1.1197133698574782 -0.8371285636068679 -0.3729415988683126
Ni 4.694821750006743 0.21579773172717 11.29524637176565 -0.009474000928706264 0.3597634096151417 0.4780701504785509
Ni 5.881523941729381 3.1341039388007133 7.729481281944137 0.5921569397233415 0.20408928384686786 -0.09187991413044821
Ni 4.832728103819823 8.329455561292205 5.0238432632528625 0.5683168998809502 -0.5544303717068452 -0.21721476548523236
Ni 1.332781955590916 0.1762735229883764 12.262487342340279 1.0314201446370237 0.762422333042229 1.566522248328902
Ni 2.80245679968382 7.79470246668196 8.383195497806682 1.6636266440830834 2.7641066196322464 1.9387796766459964
Ni 8.042992083961511 0.0033162837124076226 1.4938018872535466 0.8273511725051299 1.3244863100349318 1.2511515058965226
Ni 5.505950588527089 2.3150644404910086 12.309486796142185 0.6268658039594366 0.400816985122342 0.19977034475653982
Ni 4.73619553293828 7.883737271049032 9.813200682120774 0.1979770003015429 -0.9112442117753597 -0.7314621372152886
Ni 7.142556306870188 2.5757877757075716 9.847715744720112 0.6884663503800531 1.0175688405762282 1.006029986698693
Ni 0.5983245830361239 3.3179634373213767 3.3772061151175623 0.021731735250136767 1.6936409310569867 3.617627251443892
Ni 9.21863999664279 5.342200869281155 5.8202299350720414 -0.7922854391502484 -0.5333478400049332 0.6039446763868889
Ni 2.011024847163315 3.96059428393456 0.012460931357402607 1.0134674168133448 1.2154134290649647 -0.700281083626794
P 3.7477384167909773 6.314217325937404 7.2633519880143265 0.17743722847697826 0.010694503599368677 1.1197647919207037
P 5.147662449241759 1.0666347041723963 1.695971325727945 -0.8033013306447778 0.6446030733381996 0.49023815329965253
P 7.129765999286681 7.245638866521569 1.3224577469310663 -0.3581652118900864 2.3069932739110204 -2.084334711702397
P 0.9663860938168483 4.393024917876744 9.196213323059647 -0.40293351724471255 -1.0919639676583515 0.23787357938616452
P 0.18785048737999294 7.9794159035666 9.052758246668336 0.8627668330002626 0.034822764106140026 -2.1090998344622194
P 6.350598853818005 4.096924136152607 11.257462883538036 -0.8708200423220421 0.5089928081993363 0.3069537220132778
P 1.0472662560048542 8.295795375450648 5.246435904533383 0.0260244490882197 0.3491090152250891 0.06696103940158146
P 5.113439227116262 6.161615725113486 3.127749135942642 0.9326699857493035 1.4596797993513506 -0.2742312920795923
Ni 8.719564634558221 4.144669613030734 10.690619535924624 -2.5262577228364296 2.804268536563112 -0.5039719579459772
Ni 6.769291402432049 5.116976971767019 9.305140199338325 -0.6252935743763102 0.10142230640324468 -0.44663532900803726
Ni 6.222967912186834 7.1570357233055155 7.687934834552191 -1.145286590340892 -0.5128486916103168 0.6749631736872956
Ni 7.588912704901826 1.9884283243011827 4.533390801856837 0.6435265524445691 -1.3471163887296218 0.3023876999091502
Ni 6.7000473234454745 2.068210565735505 0.6065430359940372 -0.33462239157313983 0.8686667434244653 1.2068814803345538
Ni 2.618709908419944 8.407229639980475 0.48118300737475767 -3.1481679825628044 -0.8912117186045166 1.6548311572786403
Ni 2.136769617243287 4.777109502904599 6.5426280088186415 0.5180204656192433 -0.988566282696291 -0.26546023075518155
Ni 3.9221482896795115 0.8987851423855714 13.55802069417333 -0.12226855372463459 0.7412130459544654 -1.1571257490676652
Ni 8.133143576958398 7.45609244552034 6.4445789935456865 1.0789120195703998 1.1480207014426034 0.04616287170930759
Ni 1.6810011293317821 0.08651709378405364 9.939117178267347 2.63045836331576 0.45090875957241056 -1.6521824068018836
Ni 1.383248774508087 7.00265117424912 7.056773975436677 -2.599110445132098 -0.09543112181681629 -1.8238035428177173
Ni 2.791242993695345 2.104282423659939 5.971279432539897 -0.4371376739302471 0.5068611065683142 -0.27675791515618786
Ni 7.828597250975158 9.05226277473847 8.26274514558336 0.06753028164149015 0.042902970011113206 0.5683516097736276
Ni 7.113503634618875 5.444720392648595 2.314593366800112 -0.6102035128124071 0.014779986522651964 0.49239556596228745
Ni 1.3063661699360565 4.363381057527294 11.544387112227758 2.2005827702645653 0.08998552532121276 0.12036542316465076
Ni 3.073108341373861 5.983968393592296 12.81897551429823 -0.5822455941469005 -0.7131150021666687 0.8770359413247669
Ni 4.149352198125503 3.304854075843637 0.7761661620752737 -0.4684326273887868 -0.5709162851770103 -0.27680008124803296
Ni 8.613075705389003 7.607342759262801 4.058154396034293 2.3670213336381947 -0.6570724094498039 1.5447149226458234
Ni 9.039397395650436 9.170275179852329 10.724460831770847 -0.11164938344789159 -1.4703848444736807 0.787727901686553
Ni 9.274802865965823 2.1520842041664596 8.877150983282622 0.17934035903696208 -0.7166620960879787 -1.370620385388833
Ni 6.766241622560708 6.315287094876891 4.908901282674089 0.3638332088091411 0.03769700033014153 -1.1482060779805323
Ni 9.230426222853271 4.48846895194267 1.687593345822915 0.05885332269278252 0.7667777817974473 -1.8771079106678124
Ni 5.917867933857719 0.9873779632697509 9.1486508329738 -0.6382629900527846 -1.7883804261234169 -0.6278734192883445
Ni 2.7836044681098895 0.8947359731102349 1.906711114837719 1.0826763717088386 1.1709456856698932 0.26460996693974426
P 2.7839892095705823 2.1313926207316585 11.673861059295026 -2.456202103669925 -0.6545879524650533 2.6319354620819184
P 6.778468893860275 -0.005371366148789256 5.366584093950991 0.7630165149828021 0.22239296725206215 0.7981077022589803
P 3.0447876162916705 7.641706740459283 11.233839757851522 -0.01004735693367302 0.32684788983404356 0.3623964763626146
P 4.52485047982327 2.7632131706931897 3.8786058786609985 0.370207230656285 -0.5603793902014285 0.8893116733683266
P 8.888034474651187 1.7450746584441739 2.8841158287312765 -1.359605779445884 -2.6971034141388195 -0.7683479544980445
P 3.8405361803223834 0.8884778248142399 8.849833401179652 -1.4510015548510624 -0.9020545748562916 -0.26618708161887705
P 8.541129052239514 3.0016778048179846 13.59304342782202 0.5176034326864828 1.6707838239531547 -0.012776840049694123
P 4.01489913352059 3.5561277854280706 6.779778891614242 0.4615891221043921 0.3428260104298547 0.5704475730707078
Ni 4.956614854162792 5.70688885432727 0.6184202864037553 0.681750114702142 0.23900923565250454 0.7062252170253708
Ni 2.998684328575036 6.782457067538184 2.4492312949849193 -0.601341434436087 1.090037182949284 -1.0668820849890595
Ni 1.0995629428448306 7.056627586002852 12.351389833180628 -0.10332620829417688 0.2708616042764109 0.1367081261887323
Ni 6.1820633261585805 9.120437084785559 0.13173829132251524 -0.429287581758209 -0.3333648650169549 -1.0516966354978725
Ni 3.5630625156586 4.88348582481703 3.4862840727990987 -0.952939791741933 -3.275253240949792 0.6345498028672556
Ni 7.798549881288885 5.330236348247426 13.627392394717598 -0.010305752801382252 0.28869811823719954 -0.8884624379941538
Ni 1.3961798411625796 8.81438932871181 3.0231069657847476 -0.012220453325591858 -0.5744458955968236 1.0686376342275852
Ni 5.351218833762263 9.319995911690087 7.111285271660151 -0.17836462538725412 -0.972738571635415 1.7232127311768324
Ni 0.7413282920064755 0.40613027072553254 7.384900260991331 -0.17215746813527769 -0.46727357408367914 -0.0663113216327245
Ni 7.702608498505479 1.543582740298117 7.029579322922366 -0.6477709295432199 -0.22719681639860873 -0.9590536179491547
Ni 5.7615596774978615 3.637814966289724 2.3742282932074423 -0.04194189164942454 -0.6523058412990959 0.3906590707527336
Ni -0.12961470613825424 7.382484835333228 1.9196074609213687 0.7673591082222139 -1.5936574139827975 -2.191933065009367
Ni 1.3655975870065624 5.833712777284794 4.127046577343407 -0.7125709567377405 0.1645457172262908 -1.0815489429726148
Ni 6.201713292468092 6.309919482303329 11.648631403411667 -0.4059432506053137 -0.9690102149412344 0.8147841344733968
Ni 5.225042402531271 1.59842247435389 5.704614187740153 -0.061535240400319824 2.0312054359775855 -1.4712849876904468
Ni 0.1089325066415185 2.1235851842610214 10.985139124084693 1.509613193846684 -1.0921799403238996 2.810062260426754
Ni 6.467044141274899 3.8567516252998604 4.846382672099178 -0.5726453520529752 0.42506068816105497 0.31553143637995984
Ni 4.0200227637044454 4.7104647747622135 11.240350334081484 0.9338424087908499 -0.15744098786070948 -0.1296792443664089
Ni 2.0837128314199913 2.7594877472811192 8.232968971707185 0.885865880911571 -0.008936640367997512 -0.0337747824575999
Ni 4.19794222942954 4.6077388047573296 8.769185022261867 -0.4074540308228854 0.4080160739739424 -0.17053741603335146
Ni 8.427864919786883 3.7232557223776452 7.422408799833619 -1.0028068517757052 0.7377639110636003 0.4135827694284426
Ni 4.789899810488107 5.452659204252151 5.569152349793179 0.41535477372720075 -1.7083957207686575 0.9216366107532774
Ni 8.308435540025105 8.238262451170028 13.11754614852125 0.786486058859652 -2.508196494459345 -0.02736527938683029
Ni 1.091427068541895 2.1931577010798953 0.7750109992993898 -1.9201342936306671 -0.7518558703802923 0.08275044102535425
P 6.776610874123272 5.237964085247698 6.9333151326695015 1.0447189186284587 -0.9552548130283548 -0.24143121483043578
P 0.6104354935036771 2.9403443856207683 6.198926262862588 0.5927184686537663 -0.20265126584876067 -0.04580394570799208
P 2.326860050639555 3.0557855917046353 2.382839933170307 2.569120840748543 0.07991888511383011 -1.38154346005924
P 0.8228859745228227 0.1319128325705367 0.9116927491948997 -0.6099654286596721 -1.6766302554316028 -0.3027831355753559
P 8.601749292143738 5.263647923733435 3.7864340237985723 0.693481029985825 -0.03062980907071499 0.12182786664279018
P 7.177539627979004 0.4025587438977387 10.823347832713065 -3.4637978921938406 1.065783709718558 0.44613293545032195
P 1.548875281367155 5.801676012728599 0.9501415586313677 0.428299763923643 1.4637470274421889 0.22971341217287536
P 8.600566915947464 6.648529503464949 11.49554840656498 -1.6861333098260316 -0.7252066432238801 0.40001968603202726
