# total energy = -340857.7316996455 ev
CRYSTAL
PRIMVEC
9.40959649177410 0.00000000000000 0.00000000000000
0.00000000000000 9.40959649177410 0.00000000000000
0.00000000000000 0.00000000000000 13.77189560230140
PRIMCOORD
 96 1
Ni 7.497387534348351 7.0571595723431235 12.352687462549842 0.34985514936249423 1.0615185066843007 1.2548955463199871
Ni 4.0456182826183555 4.236407256811324 6.947631871632621 -0.43626838395141637 0.9267124826142878 1.7370750909812211
Ni 5.394615643843482 1.453472108732747 10.771178036262294 -0.38672271181280493 0.18139158513903597 -0.5041023128762544
Ni 5.330752713884531 2.2887431514019805 6.741852469604439 0.8519990529607971 0.3513625871459562 0.5658419559778964
Ni 1.0613930508972473 -0.3000917855523551 13.193530868136666 0.9192375143934812 0.857749325181013 -0.4056915396058239
Ni 3.7420176586128266 8.573026714014988 9.989265050263933 -0.6690102985379703 -0.2668154592314953 -0.038396340390011295
Ni 8.284857827910251 1.8931731333462407 7.239017898705822 -1.7539032182821535 1.0464143040530107 0.17024559582454551
Ni 2.2648051384631898 0.6568274587968995 1.966254644781658 -0.9316484864633245 0.1468153898260633 0.057259752953417516
Ni 0.3895111790104225 6.3813717770400675 3.1970900597488625 -1.029820661360388 0.8717086155745826 -0.5100297341042829
Ni 3.7288348142231866 6.025500845693744 9.218824244051333 -1.2528106387665006 1.5989508011712528 -0.8231201651429179
Ni 0.4720559214256124 4.113856674847957 12.90116718400987 -0.3550680610220014 2.178962878001944 0.16959742071758535
Ni 1.0578550426956024 0.5317306400799025 6.7170901760314345 -1.4037451929672597 -0.14039277412917112 -0.7480259551112408
Ni 9.047910219123034 1.098513908225678 11.351305993853742 1.236790094968528 0.6486877849305345 1.7934046188108854
Ni 1.5570905829787993 2.49273378917715 11.973933334007823 0.8182255560547779 -0.5384836185696017 -0.16978793946183662
Ni 4.364170755114348 4.145576423911111 10.220674310642226 0.09393576821821242 -0.8117255501527311 0.5967859538549206
Ni 1.657124001041802 6.97591711805322 10.17391896768171 1.3315277902627456 0.5252954020141017 -1.184867695067624
Ni 2.06072040472521 3.06748133961514 8.48333632418403 3.0694845125179717 -0.4345164342573162 1.4563643618248725
Ni 4.881359805101638 9.05397940872426 12.154124279909535 0.28692637104875746 -2.05569545069915 0.1950387436088254
Ni 6.451040427904377 8.831630648604914 0.49217834307246894 -0.3611201807533523 -2.336666889716053 1.9026587625537235
Ni 7.393674964139489 3.649944759003526 4.665697504099551 -0.3665832607504525 -1.428248834535579 0.4590311315692288
Ni 3.1455433503620753 4.666181157348393 12.665516077628117 -0.12377547728746426 -0.431430853353457 -0.18742107916256753
Ni 1.225101206993581 4.725019362893304 1.672597141166231 0.11085311279884136 -0.1897420139862603 -0.8474615701017598
Ni 6.735690125000031 1.3584728246800637 1.986596310021861 0.8356347526701607 -1.1444836348236223 -0.8096807518085605
Ni 0.12491897734728666 2.296233190041633 5.289702409149168 -0.03657934178593055 -1.0095300294321519 0.9947418153793838
P 8.567108077954257 -0.1411580586089864 7.827091319396922 -0.3581657261107187 -1.1163382827376582 -0.28601131543365577
P 9.302900868741066 5.719425497866319 11.337009994224063 -1.3529610204358569 0.6660995526490786 -0.31317836276675093
P 6.047227603506506 1.5128654804582358 4.860817715460651 -0.19610883674455257 1.4309736896659098 0.4493658405653229
P 7.847631527118654 3.1714667881161507 2.0834953915636722 2.0669679382891757 0.4537680833980766 -0.2489982285444163
P 4.2716461948835605 9.099201928450606 1.596217566234333 2.5028347159267996 0.330005975847051 3.4956034667402123
P 7.010854949044465 9.507738370181523 12.421878105923076 2.043244626530307 -0.08219019764651006 -2.407042868336455
P 7.492353400338032 2.8588329516808892 10.898857789158416 0.9243943760040726 -0.47031878866790616 0.39982222530924044
P 1.848534008589314 5.66438876921892 7.763079717816733 1.1562582588610473 -1.5762626155451176 1.338656945108359
Ni 7.716621718098695 4.813958866941042 13.603534265927784 0.027314885764869082 -1.2681238720848031 -0.22360087151723426
Ni -0.025614802996059248 1.0303131543812 3.2409397193778156 -0.28413698122907843 0.9335873553572502 1.1238011667736065
Ni 7.831371744745136 0.29978409175396736 5.555362599990194 0.23592134075580018 -0.408540836129161 -0.23575704726379398
Ni 7.296050402724415 4.503178720973133 8.023671900100828 1.9848330193606334 1.4015654117071217 -1.7668330389699443
Ni 7.695892377491715 7.747334640359783 9.322071980203916 -0.8051101017187425 0.4212968502432486 1.0771670118548353
Ni 8.498615626625071 6.746906363766947 1.1994478246527696 0.9216229839065224 1.00661928354326 -0.6401409238017878
Ni 5.239084426915312 7.0145529203828865 2.548186421980169 1.0899320248299875 0.1186993483161375 -1.0425460793468562
Ni 2.7260259097712645 0.5688411468524239 8.229850269011324 0.6084279089692232 0.24029041635777323 1.0926507093127311
Ni 7.4795281206070685 0.483825444453851 10.010322785781117 -1.5182302460917336 0.5568184123230474 -0.743949471049022
Ni 0.2010172053503834 1.3220012294950203 9.124830845841087 0.6411593377639732 1.1033410991470418 -0.9492867683703778
Ni 2.9520820508253114 1.834946551559592 6.037515959184916 0.48351600408447054 0.11133570886221471 0.5439770375840051
Ni 7.356977538643702 5.251542732391318 2.6571354325193917 0.28447842372889715 0.032818074971285416 0.4951175928791409
Ni 5.842154862159024 5.382420807063344 5.193120431002025 -0.3346964393441849 2.120851832791825 0.05220959212401976
Ni 4.250192315362947 1.0435524563485263 3.5412366341290955 -0.7811160527969903 0.4365373213420869 -0.05864840577082803
Ni 0.11287939890578427 3.791587411820982 3.620948147104085 0.24097638668120436 0.8661496334295664 -1.174380422383055
Ni 0.28127447490966934 3.6470842417341105 7.797247843832195 -3.6621114498991965 1.509401334946194 -2.6760471076891528
Ni 4.113480290996718 7.530358759716874 4.6312405034782635 1.5753740422925773 -0.09846142400270785 2.2528640961667845
Ni 3.260697989648598 7.919511433108991 0.28235375560309667 0.26923178198247183 -1.8846106468027606 -2.327995330083984
Ni 4.945486203756455 3.8614066162257865 0.4557537958688302 0.00883842422723639 -0.9336493189434372 1.5226677130377968
Ni 4.372093635182925 9.494470839425356 6.513858892676139 -0.29627850168761877 -1.7260386306614017 -1.8417251602931444
Ni 1.381714527494062 6.4783941242931595 12.67707106186115 0.3385582362924363 0.6724064687037129 1.3197881332283141
Ni 6.256948685416789 3.097206254266727 9.214623800271509 -0.9683746382397646 -1.5341116932086805 -0.1677364562494466
Ni 5.2402794456429955 5.787964997176912 12.574732292709308 -0.15989844826226657 1.12447633846376 0.5743715907154625
Ni 1.1334046912355185 7.668736282624834 7.561279634055772 -0.5325055466092958 0.2488187655437586 1.557822663672375
P 3.7694278125792953 5.390898853312498 3.5307562257913503 0.5135943115270897 0.6208391381493824 0.6917982429667634
P 1.384687959918849 7.7035894272495495 1.101897599048315 -1.9746900173893607 -1.1911722971294132 0.9608639316850162
P 8.302039750719306 8.466114881070597 3.417564428289038 0.9759267395554095 0.2161940375302019 0.08178242068513011
P 3.396026803361523 6.903256215571561 11.838734372723575 0.059385541047168686 0.18937511756514483 -0.29790318177523534
P 2.093484618975551 2.725715393093992 4.37508306392139 -0.10388310923891142 -1.7346086317185998 -3.624989348235918
P 7.98733580310223 5.665433234406109 5.22281241206663 -2.1035249114776033 0.01902179251814143 -2.149230383934518
P 2.721067052531193 3.3867489414284857 0.5764516283244733 0.6554464438106067 0.052505783208199895 0.24407276621834093
P 6.424176030522205 6.171942392614495 0.6506114794936899 -1.1909928341287555 1.7705662807601315 1.2773497615584453
Ni 9.317363418224918 9.252653624600681 1.377313659313452 -1.4246143231067852 -0.5422199456835823 -0.11917217418749798
Ni 5.90461576227211 3.4868105882803317 12.314994501767528 0.9683155028670549 0.5898277773695325 -2.4363511303822687
Ni 1.914815204792474 4.7392937204515375 10.644188006773565 1.5970237593518688 -0.27299510567964597 0.05825219877367387
Ni 6.721848608870722 5.783777726831881 10.698641340451543 -0.16023731965892402 -0.8790066918978925 -2.1151352420230216
Ni 6.255189090912246 9.257810083362653 3.6551990775668197 0.22207517890132722 -2.543036742066982 -0.5819689434467462
Ni 4.584891655077085 3.5117460184249047 4.772994189531835 -0.8120271405535499 -0.6463802198432804 -0.6522374499550058
Ni 1.91187000115653 -0.07603706562727043 4.264715086262997 0.5677602560465319 0.6361636843215948 0.54485866885801
Ni 3.7377927498826704 5.540652578124152 1.3223418568803913 -0.9422362892814998 0.6152554734140179 0.11835944847821551
Ni 2.7471975014034493 0.5693135085857287 11.60857847056991 0.2734465913947678 -0.09580830265057692 -0.38414980887930616
Ni 5.999031651355373 1.587436530984931 -0.27545463960988875 -1.2118596502754355 -0.06814348974545684 0.6519065489781483
Ni 9.067820924853567 5.956208578680674 9.06641042637105 0.752973014703871 -0.20682596605174056 -0.6410153559869413
Ni 5.911371852401847 3.271217918290724 2.720555170493508 -2.3967911087014593 0.7676889807578068 1.0232340092818055
Ni 9.556762366805383 8.178548209127841 11.293739024766388 -2.213891314448013 -0.2842894476465427 0.28906167222420537
Ni 3.360947828426063 3.2485878392349887 2.6384743211749697 -0.4260870725430404 0.3458367722317205 -0.13562029244119223
Ni 5.618761636852492 0.5202029436760849 8.290694600483338 0.29816569140800264 -0.1838261627224576 2.1124124437752196
Ni 1.809041932998079 3.878823778941864 5.943482099710661 -0.23792140190496444 2.911033595335509 2.033619701846033
Ni 9.445823226652735 3.886981898917466 9.980148092427301 -2.5152644570497196 -2.5617970533936205 1.8403804733397917
Ni 3.637768741415949 0.8728943724390679 13.820510146570696 -0.1871922509812131 2.3042396224252832 -1.3546944581871958
Ni 1.7870611160857306 6.302208843528259 4.944537716451333 2.7401963886735516 -1.2134887012384263 -0.2349803169987695
Ni 9.533991143805434 5.673826594288735 6.406616782902284 0.810355666388398 -0.3906426156925014 1.8031652977420753
Ni 2.8711971611940847 7.458845827981494 2.859348597557086 -1.9361265552938656 -0.04578954753028889 -2.3119184791267795
Ni 8.14228362506098 2.405873805907507 13.06578242518769 0.41783434561594485 0.39424216011830165 0.8186726708945257
Ni 0.2591976801152552 7.949038746238678 5.283339640143975 -1.8899089190872227 0.32034685549073216 -0.5958439016566255
Ni 7.757139439684555 7.160392253141656 7.181272147289131 -0.6749351486628377 0.009641893965138234 -1.9187577249981145
P 5.492240205258556 7.586355267184932 6.4329758849641685 1.039373080935513 -0.4588030747188227 -0.054386288060364406
P 5.581998344182738 7.673958608560772 10.020087123841883 1.6265857892797018 -0.30506704651352623 0.20428134525301594
P 1.419409370195632 -0.1265948264449276 9.970108053195505 1.3756895723816243 -0.670802871662019 0.6363955978267427
P 3.896457362372404 2.688632174150686 11.743418926235853 -1.3202504175767131 -0.7368892217681309 1.1070653420761642
P 3.96222103078011 2.3561534991588564 8.908240758645697 2.4315120571224127 -1.0974275618760843 -0.7928852775177765
P 2.5145358237601605 8.106640074348661 6.022876509290981 0.04899031385577369 1.575445776070777 -0.3344619547358756
P 0.7241804080164618 2.43313340633348 0.5884234576727527 -0.8131885078515028 -1.0637386542640712 -0.23861482842756324
P 5.517580248043211 5.515039657047349 8.330082229555856 0.20936878707825232 -0.44051790325638973 -0.8395793391402057
