# total energy = -381169.5739336283 ev
CRYSTAL
PRIMVEC
9.19252322716990 0.00000000000000 0.00000000000000

0.00000000000000 9.19252322716990 0.00000000000000

0.00000000000000 0.00000000000000 13.45418693744942

PRIMCOORD
 96 1
Ni 9.1336449175183 6.7039599635942375 9.03410919742873 -1.252349897079998 -0.4250720010149647 1.4933604794332473
Ni 6.707168154130837 8.218906143573857 0.8228429597430357 -0.3339158524244185 -2.056129452912775 -0.34407170991149777
Ni 7.032758127242197 6.758159079364432 4.435750869171406 2.4443372339115386 -2.010993479806085 0.20659559520848939
Ni 7.116281391470148 0.4589449854191365 12.586135946098207 -0.45074575163198505 1.9261650732057793 0.0924463281568795
Ni 2.878289270189554 4.685272714230123 4.469158336357981 0.35196833905075514 0.2936847728185136 -0.23298874049003745
Ni 8.603410996768524 9.24289805370025 9.359956561184859 -0.43738501405436286 -0.3454595913979599 -1.758462555518062
Ni 1.3640325294369968 7.383553998494986 1.7254724231033403 -0.2617799536901169 -1.5007914817899959 0.23369759363160394
Ni 8.465771349477626 4.550574674308027 7.777111648367145 -0.321618266003988 0.3927745744338397 1.2062793279741806
Ni 1.5309779401395969 4.34098514928081 11.921795064657005 0.3678490148367536 -0.8651386756665487 -1.1910051754239295
Ni 7.298376080122083 4.7183014494679645 1.036442263314852 -1.6453180755818828 -0.9295908326033475 0.42127268187353256
Ni 3.4611136151797113 0.6797218109708322 10.394031749820128 -0.26692833066027577 -0.419660085970774 -0.9156307708788295
Ni 8.265273229724615 2.649009360837412 5.706983040141089 -1.2781524599653986 1.1305413137109175 0.8296991039120163
Ni 3.143980763253661 5.9808485246812575 6.73604003045564 -0.6968787428134643 -0.28440257618563924 -0.7181931880205245
Ni 1.1562998940613374 5.154624554968704 2.898421814872102 -0.4087310977630961 0.9029572891762192 -1.2087481012296473
Ni 4.983064497706294 7.898932802032307 10.239779374913912 -0.04250470613143002 -1.1875400996934646 3.395031938373037
Ni 3.7771341718194327 4.04013225563648 12.485606514269364 1.5725391439469434 -0.12952754927989305 1.8152404837390543
Ni 4.22449749747621 0.21815236022734166 4.602192529612099 1.6396909592030924 1.4127620517538895 -0.20590139735494215
Ni 3.8063204324317756 7.050766279853088 4.6256573638921195 -0.3645353770824883 -0.7166965488703398 0.577382095407012
Ni 2.292872633705639 2.129162991108722 12.304579996793224 0.658000577691028 -0.5716850450222348 -1.8154461719919572
Ni 2.0675822793474365 5.946900537140664 9.014870165984455 0.9948909393627383 -2.072534890853992 -0.6772149458359499
Ni 2.7059570409928333 2.3545085006050903 3.976021761538023 0.3040460614481796 -1.0421958950962888 1.1818975566957066
Ni 6.369388895485001 1.4181121424078351 4.020272728887848 1.205862552151736 -1.7870036003805483 0.3272656940977525
Ni 5.534229793389708 7.662528687333845 3.0202898504047044 -1.580190489844614 -0.2522139072682366 -1.3938287051844962
Ni 1.8792090974677116 8.14577962289002 9.054922908067617 1.560452902206371 2.619661529810572 -1.0309871708646632
P 4.251606247884336 8.707323277071492 8.566469004477872 -1.3183673416213877 0.7575513781031727 -0.7873674330233408
Ni 4.654339874242554 0.17159590810221706 12.514936178240935 0.36348636699268366 0.02672558892030236 -0.752681194495065
P 3.003224850656436 8.401074372410013 3.0729363490355537 0.8580262329914835 -0.7203881387893142 -3.1175985944163793
Ni 6.159771792888702 0.5280396655031089 9.555701227280345 -0.2685275568265956 1.258376562890052 -1.7377003832700462
P 1.3106699332623044 7.407142012583576 5.9783674627161325 -0.4945810036493805 -0.6239311468111448 0.16040469847472377
P 3.0274195712648404 2.1263500790623047 0.8075309741361131 0.4913696958009345 0.7013411494601922 0.4816352421219899
P 7.167612440055761 5.24358979282894 9.81941724714584 0.35930395348021993 0.4184637516698277 -1.2316594586101821
Ni 5.582996128050646 2.643438691882741 -0.16108793502947094 -0.37180851370513385 0.20497888554067276 1.1504285395531477
Ni 5.10960876970299 2.1215515820419446 11.150264768453527 1.1249905590960174 0.33310929736272304 0.3927583764839236
Ni 8.959556916423326 2.267997666393198 8.145487300657743 -0.2676672657088293 -0.5102811879934567 0.08759234249868786
Ni 0.20466509044137973 7.571917987851684 4.019801152456537 -0.03171250061193248 -0.4435659460540941 -0.47858128578701453
Ni 0.3657695720123002 0.8289063479319809 2.885478742449369 0.6951375917526416 -0.19214933787617228 -0.14080492196592523
Ni 5.527528444102654 6.739461487526478 6.5395415774718995 0.2693058297535168 0.3552704068407946 -0.21766985074477996
Ni 3.158229173946301 5.716802493239075 11.116629326695868 0.6165538805104672 2.047943831778189 -0.8846618333011409
Ni 0.43375379531454944 1.9019789770068527 0.11821216912456115 -0.09117260365077846 -1.1650619731956062 0.761020824709012
Ni 2.043019857817931 4.960055612568437 0.6822607858310301 1.8455450482598668 -0.6342081032571206 1.3146477266779553
Ni 7.79346698533769 4.365703843701783 3.5585516015144036 -0.7111558215577688 1.3533178895546434 0.220367195071285
Ni 1.1553898342816138 1.029654504311339 10.191465312385928 1.5756640627291703 1.3140527734064336 -0.2437200108646125
Ni 3.285545617877307 6.689224349181139 0.05748911976174165 0.025951429758439178 1.4518870427798092 -1.2764725011598146
Ni 3.8329879417345807 4.014282880883123 7.917224084352445 -1.7348258899357283 1.6871920901078492 -1.1949536185487162
Ni 2.018880292347691 -0.07368082982239688 4.6526061643995655 -2.913184580240241 1.2639612560666813 1.892382834549012
Ni 0.5966563343896507 5.401701188902104 5.042171501520878 -0.7719917218982189 0.11368184049688808 1.9875406480997835
Ni 4.417393400685469 8.681611790163547 1.1704572987760047 -1.070022430390254 -0.8006659499044597 0.9543423285164144
Ni 0.9844456760620472 0.3363948646778936 7.33015003596667 -1.1072820860726607 -1.6550389024140721 -1.1104975076861647
Ni 8.397608791228642 6.542226713448235 1.8330387313097425 -0.6096322136899694 0.038147971824631075 0.5089740391462589
Ni 6.009749817079747 4.55824123851297 7.9645692549533305 0.8426626060512198 -0.051857865211555845 0.4579466402557984
Ni 6.788135896957142 7.239792130867766 8.76696344722167 -0.2688363463162661 -1.3754167783362117 -0.12339881067433586
Ni 2.2823380023161133 8.954730841833882 12.362903797645865 0.332111452225828 -0.9444633788398057 -1.035761966545487
Ni 8.559617817065469 6.791675018322732 6.9151021057608 0.3383345503174044 -0.36234351163749207 -2.08301290756718
Ni 4.415812286724738 6.319951506643054 8.746727946281215 -0.20141302256628538 -0.29480088870082777 -0.5869494273804731
Ni 2.268659528051179 2.0211784231045686 8.10477545467351 -0.8348932465184461 0.6488194254123923 2.7417976717224004
Ni 8.678035898705847 0.39495583262464284 5.094575317543801 -0.41290451241449533 -0.2773317853817869 0.058381011042054294
P 4.672044673593538 4.4182299202809725 5.658185450901857 0.12007283162489643 0.48636812882128494 1.2756731451869707
Ni 7.07929067880745 4.858257612561797 5.987328334163349 -0.21856099510048166 -0.0924535272457311 -1.8467519240837742
P 8.909816174321472 8.124976943278766 0.35815172817940305 0.18113473193322352 0.4217413939798349 0.15906181129358413
Ni 4.15403680847035 3.6705836374075704 2.1154284424533203 -1.0364443373244925 2.64843423106789 -0.9197432503853064
P 3.361825173959581 3.2058464432288 10.539740593824575 -1.5544270077272648 0.10081501183654897 -0.9188112254893402
P 6.804792748682989 1.8399754091863012 7.800925798522212 0.5545910656544255 -0.27132851661050045 -0.10637245131966842
P 4.996062725267192 7.157997060968986 12.307634672195265 0.8372802586933838 -0.19142197279184453 0.7402673942117444
Ni 1.512464198762193 4.171070553640325 7.280692423574063 0.16675120951804187 -0.1424141754345741 -1.7542107222202432
Ni 7.567717004828111 6.778980144021742 12.60565810725173 -0.49391817325440096 -0.8550699785766369 0.27320490769760686
Ni 7.4961532130589505 8.806234824847493 2.8055074691192474 1.714658413848918 0.2302523153954809 1.66453604327123
Ni 3.4864849787356373 1.890653788636961 6.379060348962243 0.2885243116634967 0.24385962176627035 -2.164679628610053
Ni 8.047658632094382 2.4778997372033507 2.0461260113489264 0.5687935824070527 0.5688779145907428 -0.36105050385768145
Ni 5.192975761039473 5.880401825559661 0.9949481336209768 1.3689216575301715 0.014849920528638942 -0.5440099477044695
Ni 0.09940334775797396 4.23627311947445 0.17281391740336208 -1.8643994619622084 -0.03953328220793192 -0.07765040079462755
Ni 5.213493472436874 4.475811884525292 10.274221920193385 -1.5404941996962567 0.19793663398191075 -0.22544615225608916
Ni 7.06725766616444 2.8664584930531496 9.722654911253668 -0.25855990409092244 0.4643276040814778 -0.6052518252340867
Ni 3.395828316638339 6.325264784952956 2.351415216606333 -0.29514515941412395 -0.563493510350378 1.0300947409573808
Ni 6.827001884317451 4.322949419100837 11.92681326297772 -0.13136100294420602 -0.5890693019369533 1.2341058632681456
Ni 5.261340554795061 0.3253114396636254 6.8193619784292885 0.4384479081012385 0.005285159658339284 0.2269978130139252
Ni 6.315336860083245 1.148844757886027 1.4134837070634843 0.8862394622009059 -0.2615765794300592 -0.479054111658375
Ni 5.257295844662957 5.209761308087706 3.627975373922761 0.4686416580757993 -0.35067661682252504 0.23238787368124494
Ni 1.4320296222714848 2.9643772483421804 2.1811522243431054 1.8155446452430344 -0.5373345925668229 -5.044850987149067
Ni 3.121771627619198 8.410965527187614 6.741973804069897 0.2586897448005674 -0.09357452822405175 0.16415233844261407
Ni 4.601583984587677 2.2520946015556067 8.84063876153025 1.090017385454942 -1.5118048021813641 -0.3782275298576002
Ni 0.027315582176244475 9.048586501944754 11.798205269561349 0.1949855217733868 -0.5107465576656495 0.6342572113275012
Ni 1.9992818332530407 0.16244107441912034 1.1067328906447034 0.42193679782009264 2.0323549762009967 0.6037022213587797
Ni 8.965164355470106 2.694834088129547 11.046345134132137 -0.27747808115166406 -0.3772541102007374 1.5308649041366087
Ni 8.772746463458278 5.244012648888206 11.182406425219215 1.0355259392752811 0.7929246153961441 -0.7829880730087225
Ni 5.832637475908721 2.4912197030702115 5.966662623145205 -0.707724941499349 1.5351113381177885 0.9094423826799306
Ni 1.0798732576106231 3.8333464501326535 9.46119933280064 0.6173745766395496 -0.2584845707682968 1.2063659741507158
Ni 1.089736834819141 6.639603109878643 12.676965427628424 -1.0485879146655617 -0.0595745171295232 1.351257664591505
Ni 7.475561961477329 8.740416359970526 7.139235121469839 0.09390825741438666 1.6626033450248914 -0.5207728315533998
P 1.031244810795098 1.9480610949437578 5.867276741180983 1.5213590215287025 0.14004233276828784 -0.12980342864909902
Ni 4.45426461054881 1.5566250793863483 2.4085412317084884 -1.4603811962937494 -2.039193596389385 1.2358732395812133
P 7.719412019828074 2.5675911843827603 13.013534950243839 -0.43951003081716566 0.539132050786878 0.14627185861776745
Ni 0.443256106368086 3.163809035423999 3.900018900398877 -0.9303724479643783 -0.40459984920354186 4.0410971980790595
P 6.2041808716346 8.505602551755825 4.916079501657134 0.07962963600818544 1.6933169720586645 1.5892243179121082
P 1.2239660560668346 7.255584885429027 10.754429211375152 -0.20469709263419586 -0.30821459100357246 0.15042316178197962
P 6.082885530286613 3.122130136017271 2.998225037381773 -0.19025572039788524 2.0401919557469124 -1.308320756018663
Ni 7.225681608020539 8.331919021674059 10.810533017916645 -0.0877797759191456 -2.3658334839776805 1.3143163114804655
