# total energy = -340869.7105159999 ev
CRYSTAL
PRIMVEC
9.22654603880558 0.00000000000000 0.00000000000000
0.00000000000000 9.22654603880558 0.00000000000000
0.00000000000000 0.00000000000000 13.50398276135887
PRIMCOORD
 96 1
Ni 7.364250686466383 2.642279775193752 9.00120140200821 -0.9234494955922999 -0.7392176127909914 0.12329005301061349
Ni 1.5940703432534082 0.495989585160646 9.136970025617483 0.00832651758782437 -0.0297458638038649 0.9983200196489451
Ni 7.8501021429405275 9.15211540078939 1.0399212257162045 0.08712800126775963 -1.2240078556021954 1.3780950964993235
Ni 9.032244115846702 7.355577733276256 12.89033445276162 -0.8102497369381529 0.24865395783112013 -1.3565068288055864
Ni 0.291751686733702 7.432822375944066 6.181083644305504 1.6602677549131795 -1.254316790998382 0.2648058850006343
Ni 0.3903391754859814 5.553780934573365 3.6982819478408837 -0.7071780678569434 0.021987817125000843 0.1728822621164442
Ni 7.074463331364785 0.2851639329275844 12.378763076805773 0.014511306242297588 0.8204819561891225 -0.9087690107619897
Ni 2.040238425609749 7.380904601900616 8.11859462999658 -1.5854332263007922 0.45454429944246877 1.994747450260868
Ni 6.45640469801689 5.577926805316515 11.577153383698576 0.0717998555511215 0.39375827850334766 -0.16008716723430494
Ni 3.34497351451296 0.08327880371711097 10.833245586288966 -0.4064081060568742 1.1845709897628116 0.13381614935291794
Ni 7.329115999500423 7.986138336382261 3.4138607518620288 -0.6952286088045511 0.45771189853717303 -1.4707702528375575
Ni 3.360206541871363 7.423337486710609 6.330775125748714 -1.8065591539149723 1.5797112362153505 -0.1816965179739645
Ni 5.183658043911731 3.424930761689171 3.0010844619422703 0.4951597589709859 0.8699144997886373 0.5809682700963736
Ni 1.0686646843047172 5.44772178891325 9.555161375353503 0.4205175488750629 0.9550696936007422 -0.17502861903548567
Ni 2.9135586791257815 7.825107429970258 12.988333287882483 -0.04029201475082738 0.9329949731888899 -0.5210646517622057
Ni 7.524515789564789 4.6592119457415215 13.676023740837367 -0.9045176916848034 -0.18722387555009692 -0.6127453053976544
Ni 0.564906347456745 3.084840278084838 2.771679314135849 0.7343518000582578 0.060032430602548224 0.2599704112852039
Ni 5.195578741275181 7.835413481792994 11.036697383001231 -0.10501568018145784 -0.36632229377958203 1.5824430333242168
Ni 3.612884729174355 1.5301488329329842 3.3976423293964912 1.0928060039436729 0.92096632415913 -0.07876368846346435
Ni 0.6121822462342881 3.033872838273923 9.982522066451594 0.6770838195747242 0.5463635355383107 -1.3224345697122257
Ni 6.281810769062879 3.1568073364709965 11.28491361268428 -2.567087612368598 -0.17889375841784674 -0.59635298008256
Ni -0.020742197943323416 3.321814884186132 7.453415103843049 0.9677537168263138 -1.3545556186164867 1.1630117755347968
Ni 1.310843062320087 1.336142251306606 11.47218666107858 -0.6938139878452115 -2.337157970419859 0.7904846384960839
Ni 7.432970000679217 4.301471079740686 3.1536260234284907 1.6433627516277245 -0.03801067491581841 -0.4267720144252069
P 0.21406232455124935 4.5154162271584095 11.805694926804364 -0.20304593018401806 0.7112617510080137 -0.19908720264658616
P 1.6037951226814866 3.483362477171164 4.9996742591475165 -2.154699634579205 -0.1803394897254378 -0.6670588312385544
P 4.927621393884053 1.335976173479561 9.952367868987794 0.7808995659108099 -0.12047495215932154 0.2254844616931923
P 2.325587812110867 3.9561768242222772 8.487414732370505 -0.40898615119669557 -0.8702173757410367 1.0771112189162353
P 6.4340580037333925 2.755332642681649 -0.07364075382093391 0.9489311848031721 -0.6612535374106869 0.4912961622505217
P 3.7559330975357654 3.878332456067916 12.218632681278192 -0.8437172725679791 -1.9706256175119998 1.2774081256002066
P 8.568886978391205 1.183581314073897 10.153820273193356 0.7651842120580822 -0.9382310247768486 0.06936784907086117
P 7.431456847143918 1.9988481404917613 6.76685951603964 -0.23293886108870848 0.7409325385995691 -0.9359211456967496
Ni 8.817071837818036 0.9188218875079779 7.95581713843682 0.5688866563414913 -0.7037978385308008 0.281648924699902
Ni 3.3913092282585096 4.290574528977347 4.277494977442959 -0.16325348077742852 -0.10328584197454471 -0.038326149273708185
Ni 1.2357389783119679 7.74948665938911 11.11735584766941 0.4652236335331859 0.5042642923754155 -1.1163364829654452
Ni 4.667977164391118 5.991469821204465 13.066318822189832 -0.29647159153503133 0.09890082553297162 0.990561715859765
Ni 6.027739373321899 5.713492444914955 1.744201008283692 -0.42829359327605593 0.5829328500219122 -0.6116908959912111
Ni 4.4781133018949175 5.373272789667364 6.1107681376438485 0.7518643550207245 -1.2573275528002477 1.0374627512866779
Ni 7.170188745564323 4.707088492660211 7.782993783650029 -0.8703037648072559 0.5246827081307673 -0.6524505944070763
Ni 6.7177742916019 7.210988531741707 13.356113558528188 -0.6523289812275476 0.48021830716980524 -0.4103642624911449
Ni 3.6904892071340956 1.570109003429196 8.246004002977921 -0.23951779985780686 -1.1860506596321316 0.44159159593654274
Ni 2.9378152684202954 4.574706011413467 0.6424868363970236 0.9600460637694112 -1.1663272130612752 1.583117433683422
Ni 3.409817679428078 9.333389349008986 1.3936383950295783 1.3338597808300316 -1.6302136158402762 -1.048793860028781
Ni 1.0712296640779675 7.3385178498203585 1.1939132002252844 1.0761105455658628 -0.05951795285997492 1.772077318088019
Ni 8.892019070545055 4.899240538551254 6.024383678560996 0.19061516061983302 1.0341807381012962 -1.8132720471587738
Ni 4.310503868222744 0.7792971370437054 5.896676288145568 -2.0790546942503805 1.1063536607211204 -0.3627906264772397
Ni 7.274531753678305 2.1415735797450286 1.991067394294704 -0.5324749504816765 0.6201215432570675 0.4103030702359063
Ni 8.838154495306801 2.3983852596322506 4.916597516786644 -0.02708940001762431 1.5488343441308356 0.5246654817395867
Ni 7.43737106309591 6.45745652425484 5.093404894113325 -0.020248465836390936 -0.20402706315036476 0.4591828266557446
Ni -0.08954178310589612 1.8018890641623608 0.764187745400991 1.580412376047433 0.639961203690814 -1.1704322363685842
Ni 6.554058460319338 1.7278183533002993 4.282072266887238 -0.24010529693016072 1.1883937059430112 0.12004917747581262
Ni 1.7002309809189387 0.6119967926607546 2.4672854141456453 -4.327313430434669 0.25514727886494765 1.1836186531518713
Ni 5.508561632887395 8.353936137465265 1.7123454357472754 0.5977411186793383 -1.2010227075609317 0.655811026238877
Ni 3.005021429097831 2.6615632562228635 10.339850505848602 0.6582466322635632 0.3737527819156982 0.49371377055307875
Ni 6.3042035960761105 9.066234711115241 5.5378891318343495 1.2807626438947362 -1.0045127787232184 -0.03150012749081027
Ni 7.639441645879916 8.142260720350489 7.3915806382158245 -1.6281338504931122 -1.102417816001824 -1.0547413358614675
P 1.9054385893249066 0.14689214740290682 7.067660599038104 0.25935180386459844 0.24457824509984974 -1.2141037091146056
P 4.706055119514153 3.117520703828912 5.624314187719368 -1.0500213046779787 -1.3013828912482492 -2.1793536856824596
P 5.373752570056606 7.208635762525236 7.116342623417961 1.244681839011779 0.23908276920291724 1.5419013644564286
P 2.394722320891314 2.349586058118867 1.372234653741859 0.5188840991711193 0.8963960910189336 -0.12679549506071067
P 2.0667555186612647 6.696728540296923 4.643506519230635 -0.8371051665681002 -0.4207944566855334 0.4616143189153728
P 3.656240268579042 6.908680753790106 1.3227665276473222 0.2315512367125625 -0.5882902576790836 0.06887908235990073
P 8.625694821786535 0.8719962441726455 3.2852620771081265 -0.30568771081666063 0.7796533522085347 -0.9089695568085701
P 5.834101853533399 4.47430273841883 9.56206190906722 -0.22125808231667055 0.8878129773356129 -0.3844028054303767
Ni 1.9622556592661837 5.339402139496135 6.597181490766162 0.272031456214796 -0.6697875430236271 -0.3143952658929876
Ni 1.4905484977287033 3.1003962345513845 12.916788805300694 1.3358061059231252 -0.27710270009011634 -0.6452440493563082
Ni 8.545995917896837 0.18956861302589872 5.595834608344938 -0.21025453211731532 1.0510448608464869 0.6081430307389527
Ni 8.071216316559026 4.760362568957863 10.067448731274828 0.3974547535183284 -0.229850709081688 0.15163466559157757
Ni 1.9613514577633833 1.0396102911177925 4.842608922183511 -1.4623432051161267 -0.2707695587832369 1.8400595996652631
Ni 5.922049289499663 0.5318107271450591 7.632478371653757 0.28866263701357386 2.2598880928931013 -0.39984150858295014
Ni 2.4125018749310736 2.6288274712031083 6.798755685378223 -0.743007675961043 0.38795247045484804 -1.1287081171569207
Ni 2.4485684430376753 5.72322645088898 2.624485458680477 -0.25140966619938643 -0.21840724313143675 -0.038479901242753085
Ni 6.650411279643267 -0.11435473312101097 9.629662965911285 0.7526804231641167 1.9652095887027508 1.2178976289393992
Ni 6.560101847914586 4.164170849504222 5.37512548009351 0.7422790253251345 -0.9914189216537378 0.5483630824668426
Ni 0.31604795017578796 8.339229023225837 3.984701613671848 2.3168711951463647 -1.8792930912445893 -1.4638352162806207
Ni 3.9971611413185997 5.403581993103073 10.926085859570893 1.3776130146565824 0.2715768851758807 -1.863661298244603
Ni 8.767958933742454 7.910185410147023 9.321704851221776 2.6212473862404533 0.4731955959950689 0.9371411341467796
Ni 3.4351537745983842 1.2494773052269665 12.956342085120646 -0.3179747557141298 1.3215292842891369 -1.1671818477520868
Ni 4.963614149623078 1.9041653259842284 1.355273494327593 -0.0474111422941119 -0.26342520260302377 -1.1653643349273737
Ni 4.327360767667809 8.499853961616175 8.617053238852629 -0.7114293869341296 -1.6327996313998978 0.4530242632535166
Ni 5.124109916370158 3.239301883782617 7.592735947641894 1.0142022380968403 0.8368082041529716 1.5377924844943773
Ni 0.4803026117416529 4.670126949596757 0.7033857302652287 0.4841901473333597 1.4425426254504317 1.2441714750342638
Ni 6.784223875511787 6.7504362642540805 9.280193698351885 -1.8529459687096281 -2.048899767933555 -1.1197959022689554
Ni 8.339902561079963 2.5852689477875885 11.76957115411289 0.5827089069365642 -0.39347957092066427 2.02537211712526
Ni 5.132736736830551 7.283186253776538 5.005156672749191 0.7707730189997694 -0.11550500974855592 -3.342444394084308
Ni 2.080862907414141 5.632123536208861 12.333416448785737 -1.3375284879308706 0.37713995322037625 -0.7510997089405581
Ni 3.669775611483208 5.6145285130880405 8.611570825250954 0.930421813145075 0.33574390677209276 -0.9503200947308987
Ni 3.2981672469241157 7.877874046240827 3.3619245247266845 0.40341379931524074 1.510516936607876 0.11038157247906151
P 8.13468572612805 6.651656863346104 1.4364458776050169 0.17267066032627035 -0.13942115424452117 0.5231670428171893
P 5.734796539506448 5.497508230842957 3.808041861080317 -0.41593661437259977 0.20557049637808467 1.1555941429144874
P 1.1161537162936348 0.08463141535293286 0.11334350368522599 -0.066812172528543 -0.8116890404878409 -0.8861271049927577
P 8.737778901950003 6.1424437925343 7.890863177624934 0.8539692893132906 0.33348442131395467 0.5568721483791184
P 5.125807600824396 8.942432917599154 13.217603728118078 -0.6522235659979349 0.5303676743306865 -1.1744189889304741
P 7.4364945412309496 7.676763024235303 11.087174893222363 1.2256073388788313 -0.9779874787391801 2.0566069067698254
P 5.232263487960229 9.351934706362343 3.5771641565407633 -0.0656574900988095 -0.442839866521347 0.6823877482861409
P 3.197127342259139 7.2685437253587395 10.292816342574868 -1.486707492893104 -0.464556175152516 -1.110011826298998
