# total energy = -340874.1143549352 ev
CRYSTAL
PRIMVEC
9.24167034068513 0.00000000000000 0.00000000000000

0.00000000000000 9.24167034068513 0.00000000000000

0.00000000000000 0.00000000000000 13.52611870594881

PRIMCOORD
 96 1
Ni 0.5613787968936154 0.7004493008160328 11.653170568823782 0.7334318593471497 -0.23978930835163864 -0.009622867801744718
Ni 0.41707935588109385 4.2471297559906125 7.97802904730091 0.4322039840740557 0.31169046536731476 -0.1622245252922819
Ni 2.950597337742331 7.869485628914073 8.443828640989729 0.14836859324579607 0.138073124857059 0.43965041304977187
Ni 3.4642308930512793 3.0226453998746234 8.495240977373536 -1.1472223739110243 -1.3766683913551259 -0.3828604006439213
Ni 4.323059319674414 7.358365807943245 10.668902177893278 0.08122423418881496 0.0587947015407052 -0.5246896501093028
Ni 2.0597650066599695 1.448262162230834 2.458710356959229 -0.14768056603983598 1.0034727674944783 -0.4137912858948229
Ni 2.938333641173635 5.253640074978297 7.99160968189601 1.0927350414964212 -0.2116347002942936 -0.27354532175616114
Ni 2.058119989335759 2.548020935158339 0.237447160745409 -0.7051001022819922 -1.2859734986717144 0.9909005872564225
Ni 1.1535730194380667 6.12552698182115 9.449590384678194 -0.8586579530382115 1.4361668038310749 1.9770402627890922
Ni 7.448499818971497 4.981546816217528 0.12227561637585313 2.5105835066342825 1.0041649084654964 -0.49741744465691107
Ni 5.232236366422835 5.404602760320909 6.012170501510443 0.7089323315438887 1.190182165302002 -0.37111303030000603
Ni 8.515515353810915 5.443140525725176 2.284520581498981 0.846864045727077 0.8277059847413875 1.606941532686213
Ni 1.7385707532726133 0.6564330732219226 9.300681198489738 2.075981454641696 -2.5715834433564226 -0.5668904518470689
Ni 7.354465823051014 2.364278045046199 12.235754378360104 0.6323548520984658 0.5322216968202899 0.675417744726211
Ni 6.271268123409947 6.9616855910494015 12.527485262470401 -0.6386378568937001 0.901273473715893 0.6865773608874562
Ni 1.973540222194309 3.114914236756205 4.322514985290167 1.067792769728787 -0.6303275372557918 0.3177366715613947
Ni 0.5935176297401086 2.345868637687614 9.656620435765316 -2.308094477394999 2.889391591585701 0.8408980579516293
Ni 5.53343164514956 5.721989445519643 1.0351548762707843 -1.5061524889915932 -1.2752663966668552 -0.11201293743489742
Ni 5.3267971375538785 2.305001971352443 3.489021673793952 0.7354388624748496 -1.5249305409300447 0.6351293295198095
Ni 2.455844514980365 5.540159581172175 0.9221116885853058 -0.835735025693451 -1.0514186992461376 -1.5548540679623544
Ni 7.8341639647953425 7.3319069057004596 1.1559758537318578 -0.01633936058997186 0.5450795266195644 -0.42523038096969995
Ni 7.919094915410501 9.074747310679733 12.750625393330356 0.20787137659711943 0.04795570194367225 1.363504600279658
Ni 8.374607605820785 6.438486906917093 11.861675590500477 0.2770425362761422 0.19418488024896235 -1.3906197113288954
Ni 2.0130021546346493 1.5513714784455581 6.586096714252829 0.4612515362593153 0.1506303926967793 0.8024114718406569
P 4.310481406313453 5.885409902508526 12.243125534639827 0.8600057253153575 -0.7042392969435936 -0.02007234526984285
P 9.231763290108626 1.4704976211187635 0.36146945281944115 -0.07730484452975073 0.34768539540468507 -2.0253273799302542
P 1.8768446252099351 4.131581151470338 9.859999102892909 0.2948230001880148 0.0494777950151535 -0.7695298906212876
P 0.7969822444020577 7.535602562121427 1.937142827645589 -0.09577667808169311 -1.1179627057149584 -0.8642580728338083
P 7.55411362785398 4.789643531176859 4.2271289329959085 -0.2751777151532616 0.09139577540517807 -0.35572574921065836
P 1.8439904870775212 3.7138668928354623 2.2028094288375035 -0.49725340827522096 0.5429740502407875 -0.5138740475510376
P 0.5009761635828852 5.1950663682319576 12.875417516545436 -0.564419364598757 -0.3554807230793878 1.1977232108740534
P 8.0055692249759 6.36079218419439 8.273466765392897 1.6138117774434853 0.05045584265770665 -1.4101981476814551
Ni 0.26118254273288555 8.633402100932456 6.827971559268067 0.7538443615652307 0.1621569052791401 -0.8690835192469096
Ni 6.091924268389517 6.506764367542205 3.193814073293947 1.137738602790305 0.23262312962050258 1.4489870955241948
Ni 3.8502831890302764 6.927260368955663 2.140143510455429 -0.30140888093564866 0.9713221509038625 0.4108201190816409
Ni 7.537108954390226 2.7822233454400935 7.84241677642748 0.27458147633015934 -1.0527435887051484 2.3149626652697424
Ni 1.969880520731458 9.161600528729924 0.6938313406707103 -0.04254635800264286 0.8862119513970801 0.14652485516883795
Ni 9.279006708992705 2.5796644144734966 6.2917957216152125 -0.6141272733468456 -0.12947509877540284 -0.8765515454891807
Ni 1.2563034271680007 6.426380318744529 7.221378376520137 -1.4563527918606467 1.294502619188648 -2.47927878298373
Ni 3.714948168267668 0.47146104095180486 11.151594620834485 -0.7453345243220068 -1.5531671671782348 -3.0028859986621312
Ni 8.65131245809156 8.42207282479352 9.239840510003908 -0.005700135708570828 -1.1006105875897563 -0.05177867523418825
Ni 3.6888774161800337 3.8215138691973074 13.017103413179944 2.34454166447844 1.5580995714828456 0.2911972305099695
Ni 9.17524123418237 3.6947089101776576 0.9015036878479021 0.914784106607818 -1.147772075766907 0.13227914388310122
Ni 0.5147000440685773 3.012895437644048 12.103400720455872 -0.7277980581001401 1.254783189111839 -0.6940155623330564
Ni 0.8627330323505453 0.7068583992112027 4.444276764793963 -0.858168672106619 0.19191691015039206 0.9180938877073413
Ni 7.032707827771653 0.5136954745003653 6.7198162910363815 -0.060936944694688605 0.010056612905053648 -0.13173535556448926
Ni 0.7148395057347339 7.47908050619517 13.1811892704348 0.20463590037895726 -0.28118278369676086 -0.031027815840082042
Ni 4.3997929086796 1.3218083866848924 5.947110066337903 1.3052413457623908 -0.07248222633012678 -1.4153917760672527
Ni 4.1688990163869875 3.671540042583294 5.204972514691629 -0.8405635574303459 -0.7739745566562025 -0.42257905938978185
Ni 5.335465824352249 4.772038149139657 8.24929610073143 1.807217870544894 -2.333359679719691 0.04662901271244872
Ni 6.572916243984349 -0.00029573345154353066 2.632101652100309 0.16827381681015535 -0.5421669809584598 1.7274599364889602
Ni 4.152679884903897 4.518539131144688 10.225421218125636 -0.2031642009294372 0.7099070367523322 1.2905042966625322
Ni -0.060306519938978426 3.0642698831793753 3.381299839902185 -1.0488195710603936 0.5544195730735678 -0.3567194805824953
Ni 9.061106605227288 0.2579941664584319 2.077287213663924 -0.33048265837315344 -0.2487002376880233 0.6025951043375299
Ni 7.529133392868912 1.0868481594335575 10.195528111176802 0.5274828965837238 0.3986883688151134 -0.8773344464017923
Ni 0.2664586123418294 4.929368345360817 5.259185077194739 0.7991893653589333 -0.3545409848739378 0.049859860944920585
P 4.793857732861354 6.707151505974029 8.345601699226581 -0.25304411647901576 0.7469574046374104 2.1574795113171876
P 8.074410427493019 1.263031363190616 3.769229119131447 0.3923667974724597 -1.965583169992086 -1.1471169586814116
P 3.5526736784035164 1.158027504551941 3.8255247541338666 0.2628014529760958 -0.42514682011695815 0.702236664691268
P 1.1502275347674804 6.965567092600911 5.067208782958219 0.019665082529095164 1.1722829164240778 0.19565169460247595
P 5.859644125542796 3.725363530764217 0.13975069086096756 -0.7547501612089518 -2.944260989930071 -0.05075794727915774
P 5.620682255025262 2.9416236758220573 6.8126054339592725 0.20500716767544694 0.6014278235023062 -0.0031660564328074505
P 3.7213803708387396 0.6842625151792048 7.833732378789497 -0.5121987167311437 -0.4738509701908807 2.0469899525053523
P 2.040228115517375 3.7645944214455382 6.35327223702186 0.19061721750236205 0.5439086462399149 1.2880175256849367
Ni 4.864353194373043 7.6425194465247746 6.527583078363834 1.173242709234186 1.774137028830525 -0.5620444366086772
Ni 6.633375251484279 6.560051838842205 9.902945145059247 -1.4203280370266056 1.867317921160584 -0.30832797665298517
Ni 2.2716580246909097 5.3155777497359455 11.758281630838642 -0.4962645619993904 0.05368283423543658 -0.7148502396902205
Ni 2.8546133493757337 8.679259269262424 6.04371324661867 -1.6627776658192266 -0.44128177800560775 -0.4542486225789209
Ni 8.215493767220003 4.926928544385581 9.880924092923685 1.286310827406475 -1.0979471818249802 0.2605141996038159
Ni 3.1669263575464237 7.478091647466571 13.127733600734233 0.7564177787193619 0.26611071985498685 -0.4655493923037208
Ni 4.491821462131802 0.5276041883932721 1.4081634787026398 -1.003254223725769 0.044350243980601035 0.7004705739297807
Ni 6.875423839902298 1.601655406878319 0.9906127976331484 0.14469474393863468 0.8458268627118142 -0.29324408573666916
Ni 6.9711767865098775 3.673989085228889 2.3307400233070905 -0.9501928251244153 -0.03623995616864082 -0.1393378505020955
Ni 8.482855290756078 7.689984665497511 3.935437788068164 0.5828482607279059 0.7648314567043537 -1.5929009954327469
Ni 4.420170791825021 8.418098906538404 4.091001901083385 2.4948352426610905 0.7616443172256238 0.38239683074394143
Ni 7.226995463765392 2.5562922301311968 5.006720202113136 -1.4377043235215239 1.4009223788064842 1.1819893450785643
Ni 5.084554474058284 2.569212085295505 11.546300816939276 0.8730476461009802 -0.3258081357156195 -0.36919858688611257
Ni 6.340645342807987 4.91068168789141 11.558014634121507 -0.7668168625654986 -2.2830735298706295 -0.6796492663090553
Ni 5.509643585641027 1.866281395987615 8.915308165282255 -0.01936657745206987 1.1625227517135206 0.04078926610222008
Ni 7.334291256653529 4.504510275537092 6.422620807241782 0.7099648865734612 1.2034117766183985 -0.16076413869667153
Ni 5.663535880487991 8.834297531234121 8.821153103480047 -0.35087947686195053 -1.383960811251481 0.5143941817205657
Ni 2.7630283961008466 2.6408997222837294 11.20418434602225 -1.1344167375059238 -0.17567576570118132 -0.6593051554350646
Ni 5.345298961616071 9.067853024590624 12.79189407232622 0.20791302846833223 0.8314235428022907 0.14394526736711982
Ni 1.750732791467341 5.823943552939276 3.136666356284268 -0.3988488056523776 -0.05083225216051891 1.1215370533297782
Ni 2.2730904835968238 8.334267714696175 3.3767686489243163 -1.0947986088936694 -0.07636073544892656 -0.0849631324059569
Ni 8.161448478950424 6.84867844587833 5.976975448275655 -1.1153653773014274 -0.6301143928037212 1.835299973493091
Ni 3.385464136566732 6.557787629603825 5.087065435895296 -1.3163605956040039 -1.2523691803537076 -0.647849091079323
Ni 4.074402936948469 3.3490889220268776 1.9727713152202961 -0.361905395658809 1.2090070113179887 -0.6216184395175682
P 7.029195993034573 3.2056581980282655 10.168828001337602 -1.1637681940848474 -0.39865674424622954 0.12303654223891067
P 6.758433534805749 8.604836097847423 11.077918176384632 -1.4203714886700312 -1.3761246030365137 -1.2962278294098708
P 5.692388375354208 7.813305514791162 1.2181593569211016 -0.5611129259333434 1.6208745978275376 -0.6748047937325603
P 1.262227337869232 8.129315191106148 10.689799442912973 0.575456339139209 -0.6811937279780397 -0.4050737035161669
P 9.027143466651584 1.0479592105555833 8.013562345670902 -0.4056781698693852 0.8400434232608177 -0.010038358072608517
P 6.473919471080151 8.257118250524757 5.134270963930895 0.5415026079015836 -0.21604234244368603 -0.6138699059204008
P 4.340951193492797 5.246357638734038 3.5716255718122767 -0.01502912641898057 -0.3673882731502512 -0.20755230269480385
P 3.659017579244498 1.3187309104547678 12.929643941554087 0.08924813293455597 0.28901436392603774 2.406105701234166
