# total energy = -381160.12465717725 ev
CRYSTAL
PRIMVEC
9.38110346553260 0.00000000000000 0.00000000000000
0.00000000000000 9.38110346553260 0.00000000000000
0.00000000000000 0.00000000000000 13.73019317828208
PRIMCOORD
 96 1
Ni 0.8550753670214235 0.7693489691801468 0.7199330696300485 -0.142032109504807 -0.7378634127559421 -0.20788603188513877
Ni 4.214742074164362 3.739833102559802 7.70537085908452 -1.5521590376286947 1.999524045713905 -0.1411108832421183
Ni 6.9652065021567 0.48869544096040013 1.7291390251582228 0.4077998441980783 0.0499220816414237 -0.7691002592830367
Ni 5.414988568988995 5.072897257387148 5.258636535229479 0.3135977096923567 0.9476798288945742 -0.6030982692261937
Ni 1.3699225095491046 7.49365343008528 13.65771089921968 1.3282419204226221 -0.21480075672710103 0.22332447792739601
Ni 3.1129502580887385 1.8553383168086326 1.2250885943763477 1.6608701643838688 -0.8011110078616784 0.9465948233605116
Ni 5.177177601262706 6.675771323172118 0.907028855004262 -2.968637876112539 0.8080833254144535 -1.5046954448300924
Ni 8.544252565652723 0.41742157080666276 10.544115221226422 -2.1448610512222284 -1.419693231656084 -1.0606564157943217
Ni 4.697118403966559 7.118990927953032 9.276749746883397 -2.5748788262782427 0.3107378716460584 1.4964735711409325
Ni 8.598456580308444 3.572980799917602 7.853175769660784 1.4504446539063278 0.670439317675013 -0.5355754437838711
Ni 4.646329110898705 2.888319740447478 5.217912227852888 -1.549610560175228 -0.6985003375772874 -0.9631817811849154
Ni 5.215940319946928 5.159738130296112 2.6120734545408597 0.9112930627354241 -1.029267359960079 1.2623594587972
Ni 8.392682080226544 6.35866188956061 4.1370168192964085 -1.057825631213746 1.1120144585513236 1.7852069134914414
Ni 4.806361351468438 4.1095236199624665 11.34535431284005 -0.18775943633859277 -0.10611405545195919 -0.7669469603854598
Ni 7.219077918669868 4.618260849934718 11.31477754486344 -1.4145553962088864 0.3070881907086131 -0.13191096191040508
Ni 4.898971602884372 0.11349821594214063 5.4141724130050815 3.657729775891733 2.1663107364555723 1.0869927396960055
Ni 3.4664396101555726 8.208521642063438 7.47764176303537 -0.14735326460740428 2.7437722789502685 0.3727793622588354
Ni 6.976895356822851 6.071056025712385 13.733075868506571 2.3931141740705044 1.4855664373101254 0.17688804084172763
Ni 4.596965745526881 1.630998613368536 7.272814754383071 1.3185812574044065 -2.03695313709464 0.2695752813648196
Ni 1.5888774597160298 4.761688537728297 8.011924675304089 -0.6635711298002702 -0.9564015250382882 -0.5672591480403972
Ni 1.5628261359536668 7.294783422005217 2.624430243759363 -1.0664750793586277 -0.29152041817734314 -0.8356260109194125
Ni 1.7587973831253496 5.075373868648676 -0.45193371160225404 -2.2948831209110474 -0.5312986707853882 1.1554108232590874
Ni 1.203839457374501 8.294415023542802 4.561898243418098 -0.7942425628766193 -0.07173634930303774 1.976179971671326
Ni 1.8958834451128936 0.24735342596578205 2.7618146248306825 -0.37236361487765546 1.2043659130015518 0.9169140084666272
P 4.715655464014968 7.437488764847517 3.0012832335036066 -1.3090879732019907 -0.4497350509792835 0.11712017675447571
Ni 6.939061367361703 0.9660847762677935 3.9536500224693825 -0.12248915437587292 -0.13606252218493342 1.584569078528284
P 5.899991607704934 1.6124240289070746 10.37799370652844 -0.22142031892614772 0.594803119096937 -2.591248268775202
Ni 2.481020380061985 1.312369441028364 7.990354704570636 -0.739390648033746 0.8744458120000874 -1.2798578726922796
P 8.341123536691093 7.334925162869154 10.748627024809071 0.7685094197765732 0.061868712480338615 -0.45383390363900544
P 6.394328844167921 8.439024730347564 13.833993086862213 1.5766436530336203 -0.15954415024664134 -0.0746650929140585
P 0.8645090044630627 1.972508296568054 9.754052776040766 -0.590882443886292 2.5857990727351727 -0.41195808934082606
Ni 9.089510430629254 2.1242664040595 3.0822365260044835 0.8731988269668639 -1.1955084626109216 -1.4922962998347913
Ni 8.61900119645521 8.208868742884183 0.5182684308878301 -0.5968150073206431 -0.5586904325347798 0.6566155244180434
Ni 1.6900995639277319 2.72094209602253 13.489612786064106 0.10300559172996454 0.8635057680488161 -0.15571397786727373
Ni 0.6909567178701685 8.661694597406782 11.666887874750559 0.9032465382818637 -2.7029884121646868 0.9389537618754862
Ni 1.893087876340411 2.4776150395773837 4.239897502565073 -0.06117271485457852 1.322947247682586 -2.0645796405626573
Ni 4.3708623946732725 0.7271715289080605 3.175875884448408 -0.11640566718595435 -0.45208195394490525 -0.07161267924097989
Ni 0.48016051321139125 4.757438897949992 3.7455968524048133 1.2786016316876754 -0.06863174223578503 -1.5371203981280173
Ni 6.779423133129031 2.2928166863923685 6.09844321857945 0.39495127037018435 -0.46703343304841505 0.3969988969278324
Ni 5.684967339805359 5.243530144644484 9.311940141444929 0.6466542994402733 -1.4416728212509686 -0.1937377654092147
Ni 7.786653428309941 7.610335592475006 8.16561998061942 -0.5530702581345249 1.3754802845842955 -0.5930719953384431
Ni 3.6366503477660563 5.782849771255303 12.595982960850908 1.1591317237541006 -0.11706489803650806 0.5938484684931515
Ni 5.729096049556224 6.41688101641305 11.782592526180242 0.01592207054689516 0.8916907151234642 -0.7537152921865342
Ni 8.503613626315829 0.7437479383744254 8.081193803690446 0.11553123500080104 0.2549737294015609 -0.3358927736451312
Ni 8.836858557540323 6.000688370133888 12.546005133215333 0.7945462101599671 0.8949434177328071 -0.2245328964132004
Ni 5.796489895400235 8.912357676603879 8.746269933877644 0.9714003124399658 2.0535462655666312 -0.3726970869576743
Ni 4.204347811748554 1.4364532938928851 11.783553151154411 -0.8797726235296397 1.8089039999980652 0.836099093901089
Ni 8.851812036142125 3.5972778573697166 12.590257673529276 1.2258865606821467 -0.2302497442923196 1.6032142044332969
Ni 6.5230657242510715 3.044712112951026 8.390712986651565 -2.522932515117939 -1.6434828221453566 0.8959227509269408
Ni 1.9709979389426526 3.4134645200273543 11.356201682543478 0.24092984971398504 1.2857243587753855 -1.6754079529887274
Ni 3.2017705437862727 5.897261706655295 1.9399117770588419 -1.4737979839202875 -0.5550842032407601 -0.5594239682666946
Ni 3.1352209972359657 5.3163744114845075 4.491654418402678 -0.7982462847193736 0.11336970857310798 -0.240217911248625
Ni 8.041960153622403 2.5518008041840696 9.87349110656927 0.9169502610212014 -0.039838472153176555 1.1127829612862319
Ni 3.719185294277137 0.19323290312910643 9.801655308330057 0.6913845524681125 -1.4147700833228536 -0.4594664193344345
Ni 3.3547294324954295 7.790265153066335 11.600680738469364 -0.803819407931777 0.5095579366741869 -1.0461944747327208
Ni 7.645486586402833 2.6564939166032167 1.1638947196790954 1.2645736928396996 -0.1845591842337402 -0.22051451928242666
P 6.869237815772481 9.42491301560432 6.805095460319554 -0.4369664384597055 -0.020409931114919688 -0.17988671845873538
Ni 8.08347153556279 8.134739264897078 5.488356301391114 -0.05293592876708303 1.1935127723371315 0.9927196427430324
P 3.5825964307625506 3.591555384379064 3.1410288382663145 0.5908451628904533 -0.14960555097669073 -0.7086515670786763
Ni 6.716185116030691 7.607727645767791 2.2765076383690097 1.3864732932606896 0.18310548250634917 1.2364759061622188
P 4.3207391599371165 3.2113392691149047 13.186628479636246 -1.064862483455869 0.4681048117357229 0.8188076538104931
P 1.0495015464856299 6.138337298317233 5.5857996972083335 0.16637171469143605 0.3184573517775031 -0.05622951191669025
P 2.494801220755867 2.9354973087589378 6.2859846063586735 0.6186084490466508 0.20099881784700221 1.5428377602277688
Ni 8.272960440379487 0.5997301791855814 12.942848315903479 -1.2013407530219826 0.1478669710190292 0.6123457559663906
Ni 1.2262133886576252 6.2961180741037595 11.09797743411611 1.3637115740841417 0.01393666468575019 -0.2757387298630541
Ni 3.520240237370968 7.958018041621818 5.186937701097911 -2.267902992777778 -2.4934681871102344 -1.3690358145105326
Ni 5.51814318047295 1.749566377514199 0.4183137137270087 -0.15765181831993494 -0.4120750745346645 -0.1433171468648177
Ni 9.066592395356855 1.1315205323172248 5.42809490835824 0.2938925179539455 -0.2994327310458843 0.055483634889601216
Ni 5.7560385781286065 2.621361684881917 2.8451291410229484 -0.7714281360852651 0.9624814126837812 -0.34562439911059833
Ni 8.702990213972113 9.00922694890138 3.185089065963358 0.7619903877111328 -0.9584157272548398 -0.4350687072163604
Ni 2.0378007752810703 7.097620774719088 8.844207713836841 0.5329470050220886 -0.8676077060323316 1.117219914011663
Ni 1.437175638844164 0.08887844853776708 9.487123801895322 -0.6757540450197072 -3.2253059624973868 0.09841283015295955
Ni 3.468653550525727 8.386124689045452 1.5872929913748477 -0.49748763577321414 0.2741294763944053 -0.370912998474058
Ni 0.8130367670776348 8.182892467947926 7.039263745648677 -0.07923368612134742 -0.32344657746197847 0.08080694414573826
Ni 3.5849510876816555 2.481714581703474 9.782048802509625 0.3787222101058316 1.333106447603775 -0.760984829264754
Ni 5.493180064689136 7.102470805106248 7.0357627179107896 0.778106319436389 -0.7031072402216794 0.22903746915177328
Ni 9.25273224630853 6.195346262848699 8.930803739950633 0.20462124509093793 0.13845416234556154 -0.1515405632158745
Ni 6.3724052058414395 4.045722736668325 0.018323170894003364 -1.88881131514767 -0.914106106704187 -0.8053379014588324
Ni 8.119251063409262 5.656852173325055 6.520015927580152 0.100899086909923 0.12115758004864295 0.28604833931917834
Ni 5.7591061988957275 7.430058931062932 4.80157229825249 1.8156102083736474 -0.4200187548617734 -0.9040674915212623
Ni 2.799977891016375 0.9344000999957802 5.449102012895893 -0.43607632254526835 -2.0173307348780227 0.9673233141571147
Ni 1.4814169218341906 3.410706475667925 1.9638983199929383 0.7038448897186524 0.5198654892477821 0.40587485926122363
Ni 4.510912885292039 9.026919709656086 13.178939727401593 -1.2137872063154513 -0.828255172376638 2.4964342117170943
Ni 7.509516875703629 4.447684249296963 2.9303114348749495 0.1693498234831535 -0.29320577629956596 -0.1170453576524823
Ni 9.192327322395727 4.513398877656831 10.3365695688484 1.5338738661662616 -1.014711316522775 -0.06743746481736773
Ni 7.064486717992885 2.2759776060346293 12.008618951987094 -1.1720764568402264 0.1951613852296187 0.7217981317629634
Ni 3.2367151534423053 6.01639233699676 6.959697918320452 0.3268931412496822 -0.09349019604036157 -1.078626627119497
Ni 5.884850507037864 9.254758564613416 11.535586201035207 2.495544610023289 -1.7300996881046526 -1.3906901595555146
P 2.963922051646932 4.89531297261166 9.647273306255848 0.872029232138795 0.06813834753913425 0.5799179744549884
Ni 0.7047854021906941 1.4710414216249097 11.875285331304894 0.7826443165160586 1.471753699796749 0.15410061063356686
P 9.126077971149847 4.348901231933736 1.124708913237696 -0.4336250327912984 0.43998388512979064 -0.3780634934759102
Ni 8.750008303528094 6.445709146741368 2.033331617686404 1.231791613312672 -1.3023673666487054 -2.3085444204482246
P 2.5159274653049644 0.30773583523075343 12.848536332355573 -1.9480914409652255 -0.43835380572553534 0.4929848628068542
P 6.164735722900341 4.622163388892278 7.110111713714258 0.7457050202875479 1.1632889404555837 0.5081769971662603
P 8.066200924454936 3.0532864413337406 4.540931477624479 -0.8517784523095588 0.5664412801247922 0.9691948201482147
Ni 0.49545921641328594 3.732853561731859 5.714780485976331 -0.3668948784536004 0.14006341581421042 1.9707857972389475
