# total energy = -340896.53494024515 ev
CRYSTAL
PRIMVEC
9.01273557128263 0.00000000000000 0.00000000000000

0.00000000000000 9.01273557128263 0.00000000000000

0.00000000000000 0.00000000000000 13.19104952985157

PRIMCOORD
 96 1
Ni 6.314692083623709 1.9300142396226199 11.347705569389289 0.8198098698227624 0.48704175784954185 -0.14839713249088637
Ni 4.604750821885518 0.12014156809710076 5.960889937451396 0.0059104519471640145 0.698961593484422 -0.3779297961115233
Ni 2.7707222164044802 1.669996817558333 4.943490884322863 0.5733300368248255 -1.2395725428096716 -0.25751963575186615
Ni 3.3072954303593267 4.40474920618262 5.027320140686965 -0.3217609622294394 -0.04917183373896048 -0.4326752672835193
Ni 5.072178328316024 4.571809273266974 2.519239854953534 -0.08727789658206259 0.1252662029003778 0.7499295998918568
Ni 7.183366578972831 6.079045098622224 2.553272845853255 0.1584079797596691 -0.22728680500925375 0.04080289294897489
Ni 4.956923465461324 4.5459517348301475 11.45826029062851 0.43501034317459925 0.05562298868094291 -0.4491758360417038
Ni 5.534973288648054 7.681671717569446 12.34501523486509 0.18100540544421087 0.7441890978636538 -0.11449508042680281
Ni 1.8811291617274137 6.559027345743738 0.42772640611185186 -0.15440014415185668 -0.18036494364673453 -0.7144455480526342
Ni 2.861137979945171 1.5968224172207266 0.3520140194292436 -0.982361696547476 0.5883146831591158 0.5304550918381704
Ni 0.5900043156867674 -0.02713193925068732 4.393450840834274 1.5751819808864291 0.920542349247834 1.053850705726398
Ni 8.660058243379178 2.3124246111369247 1.437560168977621 -0.005177430435881406 0.7535072899407862 -0.0474471377383699
Ni 6.843946956271235 0.7743904656888473 4.811184826986241 -0.0827805229323413 -0.2782010753606176 0.045971324523791796
Ni 0.9359996302822317 7.3980048772903695 2.4886893850897107 -0.7302696595690843 0.19041667145578173 0.2676484966557519
Ni 7.812392434714001 3.926812850042341 3.830773139487157 -0.6859363848693477 -0.2698701868974191 -0.7008325852548898
Ni 7.393498509490295 3.848059566368242 12.506130501547586 0.7143198211080473 -0.8144977135812295 0.7089912098062822
Ni 7.884584446871192 8.62145669680374 6.860994545658916 0.16418087768770434 0.6546149490482468 0.04936878024111498
Ni 6.879087612376215 0.8779990716010354 0.39688842998238344 -0.5660139627793865 -1.0000922810580195 -0.4194312577894196
Ni 1.7002435582324318 6.65567090958413 9.062027152419365 0.6688447194943835 -1.3848373003191634 0.0633147008982458
Ni 9.064018065713437 4.900440651455193 1.3408039459422256 -0.1615915196939733 0.09403089903518 0.7009616546335864
Ni 6.204277059786288 1.9925716374232512 6.985346863828407 0.9981207591539457 -0.07622241009884938 -0.553890440042975
Ni 3.404299503623726 4.399638985097336 0.299995213365866 -0.23745243268834587 -0.5627957129524049 0.06124342019151388
Ni 5.977841090568156 5.38919229031565 4.790396051050938 0.11707569666978547 1.243600433022142 -0.4132575248785399
Ni 5.343443644409296 2.768712376365647 9.207484593543722 0.34378014681300795 -0.017817487797395122 0.308839626182081
P 0.25894220270718915 5.670741137728692 12.345226132878134 -0.05651644702948976 -0.9111429103108051 0.8485509465111966
P 3.8049426392571313 6.248475515169417 12.475092442687796 0.4339677608426978 0.055631473321375156 -0.22766784249775632
P 2.3797317205988344 8.608271064620723 1.471896889067067 0.960221927225643 0.08811376221979664 -0.42117703683593266
P 6.289943111665702 7.66425911238996 5.786609767877763 0.027399732169191525 -0.6302974553488048 -0.24174206120263533
P 4.713633680670913 1.0347521742530597 12.456717277346213 0.3354230330975642 0.34150240652242475 1.1445957349214546
P 3.9352127196216795 6.153571409299853 8.150868423998261 -0.7352892242708627 -1.258887955308832 -0.3801941666656678
P 4.8132604599949556 1.13909261429598 3.7150613309375293 -0.8537173212034845 -1.2828591214124487 0.5040706883073706
P 0.37997783417582465 5.6354022014405105 3.492251185251336 -1.0058849764803968 -1.1187330082220799 0.32161132402545256
Ni 1.674187739612402 1.3529918682943065 2.587028244496492 -0.2692945168996072 -1.119157754464324 -0.2648315960322471
Ni 1.8265209967261136 6.488313422224972 4.871995556627564 -0.11854302524393134 0.34354849041817603 -1.4502518211692312
Ni 5.930380024897773 5.656302735297254 9.256845543878617 0.501294154003498 -0.7453838895027034 -0.6504068245041702
Ni 8.496666359684083 2.2754723951763154 10.069018298476847 -0.056110212730006596 0.11825326191765441 0.41598392267076745
Ni 2.173051667816227 5.18168306585783 7.038295784205719 0.21164421337599035 -0.3283309021374733 0.7852161910082929
Ni 0.6616068949357078 -0.01631845907762904 9.190006195394355 -0.1253649332617712 0.39699246916992925 -0.11034943368954545
Ni 1.4653987066993597 1.0977421833624983 11.356002693782784 -0.318422898995142 0.2005038804884547 0.5312891577036915
Ni 4.171301328667571 6.806309772405014 1.5940194564490802 0.16701371915080915 0.7011058935209344 -0.30627752188185964
Ni 5.521039599410224 7.715036864761196 7.971417648010823 -0.1413044873101631 0.553832076001214 -0.35789601738909976
Ni 5.144406391415615 2.9390981428864564 4.844689671579793 1.036233249754951 -0.03192975882906114 0.462102571405701
Ni 0.7410947165612183 7.243733882022626 6.864635690841377 0.16254976984218455 0.7178851698618024 -0.19844365552531631
Ni 4.987197244342223 4.542067245786484 6.844730162994888 0.23706136789751428 0.625956918991922 0.9373856460574179
Ni 8.239776356873048 7.1740834613046776 9.00851042969924 -0.7550072715250804 -0.08090258918333809 0.35090930165862144
Ni 4.710902821784067 0.402380791057114 10.370117571953731 -0.037180979925671445 -0.8694046500317543 -0.40851846753165777
Ni 8.119609553116266 7.37677087221642 4.498834054386132 -1.127775320930006 -1.6986977767546034 0.6942757579729786
Ni 7.1665307888717535 5.948603776281273 6.994329857401074 -0.03539123501510033 0.19015313338174994 -0.23047343026735145
Ni 2.5452686353667633 5.206657356205842 2.51049389632715 -1.332298864100815 -0.252148858358256 0.3976812677068377
Ni 2.3784338866724126 5.130400600292984 11.192843338666174 -1.1072558608204155 0.04913686673596699 0.8586918915999404
Ni 1.1848773111447348 3.2904686529938494 3.790500631731453 -0.3182457499873293 1.1807125352486698 0.4118783851428261
Ni 3.592945072470436 2.8477901185213508 2.982865789507898 -0.29902855362893016 -0.23633863079887682 -0.8826823409772669
Ni 1.179848204679852 3.1432726551722223 8.297249670521635 -0.88575969435101 0.8594794204982424 -0.6958600717409629
Ni 3.507603479072629 2.877036445543833 7.26520762586354 -0.02435554602622902 -0.9316783112599955 -0.3313925717819325
Ni 3.850258673854679 6.794620254331622 5.970480389403514 1.4118215422174911 -0.1377177984001693 0.4966283730967124
Ni 0.8814185034877318 7.263237441861348 11.147426361429906 -0.00956218976713837 0.9802860449653698 0.6663139826527298
P 0.08776241418000694 5.453561247971912 7.96695904770943 0.7959011815259649 -0.35000195935300366 0.16613183076648808
P 8.546029112566096 1.467723992484198 7.9089972437913145 -0.9530606335905135 0.3456742785119273 0.4556007657314412
P 1.6021669694316147 3.0384365146712944 10.354103743339387 0.9141896675569289 1.196014969933695 0.8940173063741119
P 4.050052996638772 6.0796669773786345 3.7932450097216983 0.30160325633464186 0.36643825053215595 0.10379543462111156
P 6.842568007724412 4.064788819345015 10.37433823603528 0.1443658998443062 -1.0120602520531732 -0.06447966774062444
P 6.433461913362467 7.6193937145724195 10.161817029310217 -0.19830738705776815 0.7927397530788477 0.6617590162921958
P 2.425516417447589 8.513195716774757 5.67117555158462 -0.7293368633421697 0.27955064740997665 0.5026527249139214
P 6.844352529373242 3.8215170600258044 1.5878592516663788 0.9173444111358265 0.6902944047277273 -0.3317705239466415
Ni 5.057054957978974 2.717204592410798 0.7653101345716975 0.3892537057647748 0.13993254666330093 -0.7340358114797358
Ni 1.4610816063468888 1.0376542751163076 7.038770755371846 0.13346725065393142 -0.4043725636840842 -0.8521062679626229
Ni 6.853996156465401 0.5077180396574107 8.99393503368668 0.05430272720762261 0.3449242877197802 0.767717262892581
Ni 2.8602637445919563 1.5299929827456247 9.207128590487516 -0.3715236354748634 0.16325656610122208 0.46768340792758806
Ni 6.481094221009252 1.8872848601423153 2.6329859858687694 0.3879972076498544 0.6114376423298243 -0.13315974671584163
Ni 4.171589736206776 6.972297323952951 10.159970319785744 -0.5960986979799089 -0.04242165949932048 1.1962810791108882
Ni 8.120276495550677 7.198823420527085 0.45092789136731437 0.6882483208319761 -0.14312971344435996 -0.3847403912754535
Ni 7.631236449151015 3.6956902583121303 8.168557720160674 0.2570843479866604 0.07592776167656601 0.3856446482572778
Ni 3.139829790172966 8.43342399397784 12.56331360510985 0.1715584010986981 -0.5211762376394056 -0.9766805870022987
Ni 8.989608920598611 4.8755114247851825 10.168491861295685 0.2705006213925664 -0.5942215355618541 0.03579515532173836
Ni 8.647656719193373 2.3244926641055232 5.732262972208867 -0.24691074988776834 0.01719065284667362 0.5684994482054015
Ni 3.4788618652437555 2.6821180127194197 11.431825035839713 0.33010084955370245 0.10570010784299215 -0.06980467949796365
Ni 0.8479866620525406 3.491353516785561 12.799776242683148 1.1876984796481997 -0.2255646801118244 -1.9986077045472226
Ni 2.967965935013732 8.372921499894042 8.13189931938063 1.3464401885982038 -0.19745146681537606 -1.6326967872734461
Ni 5.5510700344299195 7.899716829943841 3.7052996370090083 1.0093377109156874 -0.27260455510944664 -0.3419562062303917
Ni 3.253994112020048 8.220056491379923 3.5164170332160145 -1.1377013217944663 0.6810978258301238 0.513741121517599
Ni 3.5868434504691358 4.239104138587489 9.406115372161837 -0.6588786094206072 0.6776340356512394 -1.2498559270135507
Ni 7.253233305345184 6.054296126664217 11.617067395723808 -0.16378158536675663 0.5410068992120877 -1.3219177779768072
Ni 0.594233091230357 9.070687490057546 0.3233057527220903 0.016440147833894265 0.20552807317592348 0.04885713071201908
Ni 4.592024839218108 0.291324060444963 1.5605407487887684 0.4301704985837947 -0.146786850580973 0.10346916162994438
Ni 5.778461353621669 5.4134996382292515 0.3634358592553119 0.5638853464721578 0.6302154371579598 0.26656194845979253
Ni 8.118500986637448 8.870271288517042 11.383797069100083 -0.8283883555203927 -0.2401646894131864 -0.2944787294747187
Ni 0.12314731541975031 4.948586685031187 5.659804183077912 -0.435767790165914 -0.6117711144098431 0.2187862237374103
Ni 7.9872304926212845 -0.1634585779385349 2.4730973525014535 -0.42479637875607484 -0.10541317273019266 -0.33764215223607014
P 8.529977430462234 1.6910595806558801 3.567994215234985 0.08017625254027483 -0.071317002377432 0.2271155695387121
P 1.8991095692497104 3.2933887793282977 1.5140422432804819 0.04693883064338368 -0.20670769530632144 0.506990690167643
P 4.654825580879944 1.0050642231861704 8.046091767552294 0.0765571677304488 -0.5154671030697703 0.24155591333375817
P 8.536899211403147 1.756005353390551 12.38387634822581 -0.8191730075697118 -0.5572308172701178 0.08860201471012483
P 6.28080419776715 7.694388687501257 1.3125886758724004 -0.6215891289415295 0.4428324103221793 0.8060801789414956
P 1.688382798182636 3.1270226928851548 6.073844750180939 0.24115919211597178 1.0217121733206405 -0.4238980353115216
P 6.984473529748752 3.8570002000835895 6.075995188895134 -0.5014872438509106 0.5455598086900927 -1.335517885258745
P 2.572090536512806 8.520595172702478 10.256950959937585 -0.6801953686205124 0.11833399455691877 0.6351110746873643
