# total energy = -340866.7647358026 ev
CRYSTAL
PRIMVEC
9.24793161160376 0.00000000000000 0.00000000000000
0.00000000000000 9.24793161160376 0.00000000000000
0.00000000000000 0.00000000000000 13.53528270883501
PRIMCOORD
 96 1
Ni 7.879709355326674 6.644768315198491 7.742668881127468 -0.015299349361231715 0.621498368999936 -0.1839536894392574
Ni 0.7831111474845057 5.599715054314653 7.292079136109401 0.712107901058393 0.570909600308791 0.8032306253078424
Ni 2.773306715575458 3.6549027856862097 2.932297155392765 -0.29312581499125 1.088835706442015 2.238554107302016
Ni 4.597174534929195 3.206831252438866 6.605935325677967 0.38972061809886427 0.0156706166577214 -1.1807127923589857
Ni 6.663708079085524 7.276744215954384 1.364966033426656 0.9270863210139388 0.8350485411493878 -0.05053066175970007
Ni 4.385813058543403 2.737757666560932 1.7352504397291817 1.0523044442852008 0.4211888639104746 -1.7014691688521537
Ni 8.136829597197346 8.694026723153172 4.807556655360088 0.04395840785882107 -0.6972214708648637 1.7717315047128261
Ni 8.059433657758593 2.8177337789120296 11.694132487310037 -0.2882957405924583 -1.5814665283435603 -0.015663417568869797
Ni 0.9981200080876058 0.39964011553426604 4.544173714219739 0.042900141797635793 -0.26878698113556937 -0.39136226746734537
Ni 5.960967005837655 0.3459207305406194 8.594958256043881 0.8677560586847377 -0.0019033876702999476 0.07092310937312302
Ni 3.703417434783557 7.9345958292864065 6.593022438805183 -0.09459525617908224 -1.3295303002167427 -0.6203894522064735
Ni 2.3170507628749775 1.9530984153290194 5.945128998204389 0.4131713929226368 0.5816853507680563 -0.11572149663473619
Ni 1.2856474490112848 1.0920142574748277 8.340522688712472 4.88813505037984 -0.010404483162775629 -1.223483607667609
Ni 1.078983921870908 3.466346708590173 11.534091482464621 0.8453776909895376 0.3752229387033215 -0.0957018589796997
Ni 5.439679598228189 0.5236437805774434 1.5445247978831946 0.2929700061396761 -0.5187105497077324 0.4001358998949173
Ni 8.601602894888039 7.26600736738366 3.142324155250775 0.8445513384335003 -0.47228799657913495 -1.3535922262619526
Ni 6.129769501067141 0.21022952955973193 3.9018160854660042 -0.5881563032043806 0.15725175466803887 -0.17761129216099733
Ni 0.4129885799847256 0.38953212631135326 2.0110718488519796 1.5230148119645706 1.9720597788553649 1.1067850918315842
Ni 9.750556667134571 5.651059570477153 1.7098583939749716 -1.1671121708564156 -1.498151730174304 -0.1433153470926048
Ni 7.245338240290146 4.359484197319585 5.383794347657226 0.9327592030290001 -0.44971782458810294 -0.7650561711206502
Ni 2.5202925553287328 4.823221726672705 9.91689551338969 0.7414277330684327 1.8944931960237952 0.19289187246915168
Ni 2.88522518362275 0.48722542599388385 3.2752816676549994 0.4638946303091172 -1.7634394399073632 -0.4796081843896321
Ni 4.538690615582717 0.838266736253375 6.722325168646832 -0.45859301559054566 -0.2353973499315301 -2.225824061329857
Ni 0.551526294307619 3.7766148132825093 6.065444588131283 -0.4044427548003873 -0.5108488875714686 -1.2379874577107388
P 7.646476520741258 7.299410896270357 12.526389917619179 0.16699083633267367 -0.500448261063435 -0.44743931296657136
P 6.923935625968911 5.245861448060022 9.131064549225899 -1.205240088076389 0.1303860406254464 0.7074218084366333
P 4.035778848033568 8.868766390460525 9.18501605730234 0.08792247214459696 -0.7663162687799964 0.773551610186171
P 6.5375200526018595 2.5252771904532976 9.936670365498887 -0.637367731932025 -0.6202619254896737 0.6363266922620203
P 4.948198274118674 9.366212630442664 12.992571675290337 1.0819744605458075 -2.0591098756973376 0.30733244550893524
P 7.397217020718231 5.2415704078043674 2.787997979692127 -0.7697867438271001 0.3018539388928672 -1.2006226439090357
P 7.568775399560184 9.214685271414828 2.349535972155239 -0.14147160901564668 -1.7552813295766028 -1.4270458153664132
P 2.3122325905189505 2.7748048804923027 9.94005418366601 0.7963436683800221 -2.6182443377480715 -0.4652601431980761
Ni 2.924760091150611 4.339499417163395 5.452255860391261 -1.929253482323116 -0.3091116488965451 -0.039757996624228305
Ni 3.002664666826565 0.8514487379352963 12.957082737831117 0.4451458889467043 1.3203743447490872 0.26189950998711675
Ni -0.08702950977133145 4.684428769438054 3.758152242665288 0.9328597331626062 0.07300287472028717 1.396639178050098
Ni 7.314401793370396 4.659246651730833 0.48999980546952326 -0.29276920298277964 -0.250551174853833 0.4728752365411727
Ni 7.232465119523179 0.3951178769889738 10.585024353092638 0.9687263651522285 0.09315492418812989 1.64856383621269
Ni 2.5421546655967706 7.437722961062566 8.582167441868027 -0.47473645811962756 -1.466800469556532 0.7027066623491511
Ni 0.7727331186592975 3.1205665466096524 1.9864917714909733 -1.4086775972718706 -0.8263682397665704 -0.7289182877475124
Ni 4.267522765633725 7.826635475957692 11.164401718163042 -0.30597490303977626 0.3913825791823195 0.22014530886846603
Ni 2.218939456684784 3.6290178251784946 7.964430581374274 0.4773569264616101 -0.4536891505310251 -1.7507078512733076
Ni 6.593377559378065 2.968807989292179 2.4340093536363483 0.7663944303160996 0.06551299410114524 0.6212212040791495
Ni 8.61258943761157 1.1899960926228248 8.897539480002381 -4.061510214517773 0.5062653819658443 0.7778813479097765
Ni 4.833810608338063 5.648867810691397 10.422492880271257 0.09114894950169464 0.051393781090943745 -0.28545698559208255
Ni -0.2469604642308801 5.652557735393998 9.784696331375471 1.178073554963926 -0.2856870993250177 -2.529477001104676
Ni 4.104833153182232 3.312054218018282 11.153397604369498 0.22086136109888413 -0.18069173085853396 0.5446128713957912
Ni -0.16792671610834134 8.00491710106228 10.621163420142317 0.4353155331198439 -0.32508796972014337 0.3508373107701055
Ni 4.497472584506301 1.9493530030369064 3.8890789092933438 -0.46988375801301663 1.0847335113481833 0.7240748436122821
Ni 3.2035482367260264 5.9032321689496 12.396897605180028 -0.09569028901547393 -0.9473574125581491 -0.9762764095853445
Ni 8.406536273955835 5.302625252131604 11.767697008692933 -0.05247004487425802 1.128257145662431 1.6243954664966025
Ni 1.333607222213504 8.807230653690844 12.446017069003066 -1.5260512847980492 -1.5390320133284332 1.16553659883918
Ni 6.11343765388721 5.2698043429347905 7.0462922343967165 -0.7567908457880644 -1.1213462774752108 -0.20302613268967615
Ni 5.084799471567571 3.8498121917814614 8.830134081055405 -0.4663338358782292 0.8626025395082564 1.0114089916224194
Ni 4.3647555183232996 7.6499537430173925 2.3258085540864126 -0.9418933041197842 0.030019429180225717 0.37757292699273687
Ni 4.4749353752325245 5.899532996315415 5.393796910460065 0.47470071978568573 2.121623420850527 -0.3388631691273648
Ni 6.50311774710393 6.777846050713327 4.096088309075017 -0.6859644098938056 -0.292320031260503 -0.0007561614397341816
P 0.07422019973230448 1.0671835611678553 11.146142602040701 0.7788267425421812 -0.7117397190856968 -0.13309521202649338
P 4.72019976881063 3.952316265474751 13.334906057962113 -0.14793819057659685 1.4936530709730018 0.026745386414644263
P 6.228001030367945 2.4720830879737057 4.893235042326783 0.13042872093792376 2.0398844518088226 -0.5504179081133423
P 2.5427465332182404 5.833724715153249 3.8075287989864 3.4693090518200567 -3.1356256271214193 -3.3522485246589238
P 2.026841421791514 9.115630676202915 6.351932561544756 0.5235421667684209 1.6636814085804188 0.008412135323095189
P 3.612843192835517 5.652807429546805 7.416170656502641 -0.3468410451265188 -0.6191522373652627 0.4119753157320066
P 0.8347118313519225 2.657818545936176 4.20548024221316 0.612088645650262 -0.5768113105052065 0.25923816110486964
P 7.566518904253331 8.735050547666292 7.454949083226811 1.5052248349710011 0.20857508753236334 0.9813378832686519
Ni 8.172915026243828 1.441558327610632 3.8078543261782087 0.41617932651102524 2.8500495994529693 0.07468900417345847
Ni 3.978062507008684 1.678860252093653 8.641235830490706 -1.722578182916627 1.605217608016571 1.898207925871221
Ni 0.5421599891978606 1.8686555520221424 13.32942480891141 -0.2014274207439886 -0.7191406395354583 0.23710353398935943
Ni 5.61588968665763 6.396230153839132 12.65546237396435 0.4301910674090849 0.1475530393230362 0.897984518551976
Ni 7.304293804147483 0.06684219991342084 13.205414670316122 -0.6767233509115119 1.181650987902539 0.052339947054296954
Ni 6.73181909521247 7.220304089488294 10.210854890731058 0.42641437397547205 0.019376861864715014 0.803479508093855
Ni 6.438104788058115 4.385702083364377 11.69897840346082 -2.910093600019743 -0.906612112319987 -0.6757136787000749
Ni 1.6929171081035592 7.432118714521775 2.3965302612999357 1.1842575722874507 1.0764309050197591 -0.17713101009046914
Ni 0.5421377941620554 7.978477264659436 7.139307005490162 -1.4481622856300544 0.6595023590475352 0.39772420512963114
Ni 5.368516764678039 4.56661936897082 3.7585582268618896 -0.3974167011915414 -2.408078765800137 2.692852095061633
Ni 9.001011812132669 8.084393825107762 0.640944544807476 -0.2115783931350614 -1.6519885456235228 -0.06320157235914922
Ni 5.311392291274624 6.983815982984794 8.22175057856719 -1.1764154505352127 1.2822909076138045 1.3943902341149212
Ni 9.040722430360653 1.486207341305255 6.434876335141629 0.7149672248840591 -0.31167272475550195 0.020149735474997557
Ni 5.848937562611338 2.0565180342492697 13.230007694781348 0.794442080481935 1.6494974037705528 -0.3486372177949931
Ni 0.8377904677767236 6.306654688502322 13.150650269053317 1.2104833387531992 0.8010331034358914 -1.7461837381507088
Ni 5.3050944498649235 5.477808820155059 1.9012739315172345 -0.10246617428672675 -0.07234544364194638 -3.181005083697483
Ni 2.1438832439371533 -0.09728361631329456 10.405127114340072 0.4227420673302074 0.6071295018727737 -1.2261362147991075
Ni 3.0272179251859734 5.464427063150892 1.3116295128006474 -0.2898252898631073 0.15491616455632676 0.5332881904115913
Ni 6.852301147907903 2.831587180427056 7.644524282383566 1.1476921144585912 0.128887601703049 0.2818116755300114
Ni 6.832316367751713 1.0097169142957785 6.176623221651739 -0.4484525847224341 -0.3192495086614953 0.24838939131582385
Ni 5.980896298404332 8.0168654286707 6.0520988980603 0.47688384347993357 -0.7500697250141469 0.34502867450812835
Ni 1.3274573477091702 6.904496473776264 4.788241425450686 -2.2289302110590063 2.6903157017930246 2.6244730922666024
Ni 2.660759388180354 3.204454534021402 0.18809737968939813 -0.6203161757663769 1.458946777840068 -1.2760346422914477
Ni 5.071732144237309 0.8598939490591425 11.075637296426278 -1.2579754707968915 1.3131711421324288 -1.5695929168344258
P -0.1309238922485805 3.3014375925581683 8.040377369933584 -0.05782693831079718 -0.3998965301906016 -0.13841636712909064
P 2.837986749084197 7.466493276224946 0.3435773046768627 -0.5494781699078923 0.45460214926359765 0.39542203935901576
P 7.868269663955454 2.3988487177484115 0.8265699523840795 0.044548218924020055 -0.5138377949964634 -0.8471412106478636
P 8.56738554802182 6.763992649198301 5.5575602077686295 -0.966102554376136 -2.0348317198762635 0.38658412935241165
P 4.411439076966725 8.447328900179318 4.50454170341023 -1.179639356789149 -0.6784166794535348 -0.019025649172883363
P 1.6986138339602053 6.557070179973531 10.72408550034327 -0.7405196194318667 1.9288644744148138 0.6248600863833174
P 0.12376229402879674 4.2246308589403405 13.333106410475583 0.9403827810125288 -0.5624743250572442 1.393602705216619
P 2.5460942844521783 1.5434520378192806 1.4960009008542619 -1.1213604185425976 -0.08214237512771014 -0.23977336751203862
