# total energy = -340895.9041205021 ev
CRYSTAL
PRIMVEC
9.01430302034354 0.00000000000000 0.00000000000000

0.00000000000000 9.01430302034354 0.00000000000000

0.00000000000000 0.00000000000000 13.19334364999345

PRIMCOORD
 96 1
Ni 6.264219456770771 2.0263071479430557 11.609179221288299 1.6949267397479453 0.7676267600613037 -1.1696899588859209
Ni 4.673249059022398 0.4658754059761349 5.93232093233517 -0.5927896882113339 -1.3852414777361175 0.13903060367432188
Ni 2.8156445921555298 1.7642974162753828 4.9241117035717785 -0.71533309286391 -1.230207556655004 0.1295558314146672
Ni 3.4331604064458436 4.274384178858934 4.88688082922602 0.012946789968655122 0.18693719754761354 0.4533687910771289
Ni 4.996447879610463 4.525838161686628 2.5742460643500373 -0.03428720331764418 -0.28893800216214754 -1.2152668761847716
Ni 7.388321072349872 6.321180837573359 2.4481305564758977 -0.6475251320810009 -1.1892413986552872 0.2180819985815341
Ni 4.944714794561238 4.490709422805843 11.290190981642294 0.13732390539586026 -0.0843679220241192 0.3167660801180093
Ni 5.769793950260065 7.886766958008854 12.288623297346897 -0.3928555641834202 0.032114621146357596 0.667107939308935
Ni 1.8717479083100164 6.45021157104515 0.19364525754093956 -0.4529178195826394 0.39843357249182987 1.5028933586243471
Ni 2.6648353025800753 1.4251793365486278 0.3542567002236477 0.0740418575077628 0.33187516784530585 0.6599595011896119
Ni 0.48302782176837494 -0.03754998067277432 4.677211746631325 0.3282488839466282 0.3203080318329967 0.21371703674461903
Ni 8.590387394775243 2.468575897162454 1.4390902089737827 0.23141779645849178 -0.04481458521152927 0.8045303179558725
Ni 6.852150328539469 0.5688629165840616 4.922634259306302 -0.578189678909972 0.03196421161142237 -1.1152679324916148
Ni 0.891453271718073 7.376151763268769 2.5131209769811074 -0.1403637206634486 -0.43367491219262727 -0.21581762802738963
Ni 7.502135662318772 4.000565710231079 3.625715834751298 1.140455487500836 -0.8851855670150948 -0.2092263479631171
Ni 7.785599435181279 3.8722471066981092 12.509215912344912 -0.5967792689867012 -0.7388370895231212 0.610433369435026
Ni 7.832915511749215 8.647105389396211 6.86064450627808 -0.4363444886049904 0.6012447609572226 0.5988055553881106
Ni 6.894688824505193 0.8123870170423868 0.43754435300502337 -0.8068512527795654 -0.8166471558240647 0.5047959965091693
Ni 1.9849675542793954 6.416236662951314 9.230498461023108 0.32421636574846746 0.6965514413810326 -0.3488200232297605
Ni 0.15698498857653925 4.879370111947224 1.2943935182782516 -0.44808620252195086 -0.05365840875540436 -0.05335964656806294
Ni 6.244838705271237 2.0572712788271974 7.079046645641495 1.2144163552590181 0.005467450872474454 -0.4532903724307097
Ni 3.362857857169157 4.3381874156560105 0.4858727358024463 -0.22796840445731062 0.08764633566507485 -0.3986145781543845
Ni 5.863028886427366 5.3828549929960845 4.513350647708811 0.2500097005280662 1.711039329039092 2.0264926038829487
Ni 5.316437608322328 2.66140986743132 9.366455784937804 -0.2012237893736147 0.5337638444964291 -0.15456546608512736
P 0.10099715250043947 5.627250776556738 12.308532287003583 0.8332487689364876 0.270201859205225 0.8793849011729177
P 4.06637012229927 6.113509324528571 12.51860971752522 -0.20114922738193747 0.32860626728604697 0.5458056061523117
P 2.42449595537979 8.390188738936555 1.2770337735164814 0.027928350979151903 0.22258734265105537 0.8700764792877982
P 6.151387425831383 7.607630050597407 5.8004669191565625 -0.18066010628965018 -0.34571258794903037 0.13854337962525817
P 4.672095228235448 0.9435270974215689 12.581990183510515 0.08748358483496546 -0.4699351800762423 1.253699469129357
P 4.092556672581201 5.91754739111071 8.278652063341577 -0.08982868802837433 1.5912899421918854 -0.2602198082918486
P 4.527947508594019 1.1081462992283206 3.734956567366307 0.984423464172511 -0.9830440673264812 0.07642861257238451
P 0.11459793290160182 5.524731108275708 3.511764227376448 1.2047549209098543 0.09695218644703303 0.7512220934510353
Ni 1.4545479357976914 0.9830638304806212 2.5831774357852653 -0.8246970227117345 1.0125199652984112 -0.3971104828050322
Ni 1.6758130178012247 6.52155977947251 4.873040268364445 0.09210745676022201 -0.006468124222846925 -0.9805706660853242
Ni 6.133007261967405 5.63057705437224 9.139490959132802 -0.09853881420786256 0.08361458879786245 0.14041925649173234
Ni 8.57171877321453 2.261445242299047 10.206423864939785 0.06919327116620987 0.849952969065046 0.17088477207044117
Ni 2.446923541301113 5.176148010374761 7.045100583317333 -0.7033646076481241 -0.0742845696461882 0.10760863771961468
Ni 0.7729133841044958 0.2303127379477583 9.142063641215579 -1.4397372947911526 -0.8267716458525761 -0.5935185959575584
Ni 1.371814662652233 0.9894549713239563 11.435449263416162 -0.08662895014415403 0.8669363909969198 -0.01697956527713205
Ni 4.022145951668237 6.794566960828291 1.6845785260608286 0.2113138266197651 0.46399413200145895 -0.7788755935022457
Ni 5.4174879452106035 7.783661360031326 8.019666630338135 0.3401919152411173 0.07308077914607415 -0.09650172917317573
Ni 5.456817349300126 2.7308650722238412 4.771385973173627 -0.7161586740889989 0.6142203472812842 0.4559416940106276
Ni 0.7960404799404066 7.508319474192577 7.008172589553149 0.596624745686708 -0.5108954245386879 -0.35347063462789446
Ni 5.2198042799153415 4.418144283470372 7.1203285477658085 -0.21617809669060192 0.30784666614119244 -0.0736721328731699
Ni 8.198075912909532 7.246886657918379 8.877774192313378 0.04258621010164279 0.03201563367464809 0.6881912423417954
Ni 4.898065776417008 0.43871531096771615 10.518604502942791 -0.8618525487161093 -1.3061155208372281 -1.2759567378656607
Ni 8.032519223588384 7.151866889752517 4.76490829502127 0.1309406275773358 -0.6747037493783219 -0.1286963116278493
Ni 7.253259770155668 5.929590499949491 6.875605545005419 -0.10196815160438569 0.6523233248005927 -0.12956508738604783
Ni 2.271883805199727 5.07691856269714 2.5428853041328825 -0.23331269948835948 0.6459161357226683 0.9697465788866269
Ni 2.3191457959495243 5.422770326782105 11.371289961649678 0.18890820523105528 -1.2329527235003088 -0.36802950627867587
Ni 0.9267244365866228 3.154564357215778 3.8396721198637502 0.07592184813929505 0.5368910772715011 -0.4392135826226694
Ni 3.477014990652932 2.8156445921555298 2.9672489432576166 0.08940239912423313 -0.061557351887506884 -1.6426726675392354
Ni 1.0418731434029325 3.3401418135510967 8.393988267660767 0.22597605661763018 0.038026101534786125 -0.9794378380324615
Ni 3.695206195325609 2.6959707052216544 7.216415609409598 -0.25009171871891117 -0.2141602949296247 -0.05757728419383632
Ni 3.8820546683871764 6.753515824861368 5.792392807938826 1.3154303704802506 1.006759151555234 0.8101911157860755
Ni 0.551080401010511 7.401554069187695 11.117489555745086 0.6186048495022249 -0.08991970508028385 0.11631207903088354
P 0.35428644742362375 5.565701115515423 7.963488592468249 -0.5637501064458742 -0.3651179890588357 0.09273403460062739
P 8.562271783646382 1.51978444677543 7.856649270178576 -0.5958796399905674 0.8712478738880801 0.002202406967957497
P 1.8815825129081527 3.1743687809573964 10.426659513538088 -1.280080530226047 0.022843994477709045 1.0114408733016194
P 3.9582525718409314 6.07649659631597 3.7495353996454694 -1.2059741380289357 0.31774952707720117 -0.3614407973175646
P 6.86787127301165 3.892222802197165 10.401183290334373 0.5091635294492457 -0.027151106493495177 -0.5278227964216458
P 6.518756331232345 7.7187583782654405 10.179574763385661 -0.6014237097372481 -0.3277837713847516 -0.3495697569115915
P 2.404700545941194 8.585501642536757 5.678243787327772 -0.44016566212329356 -0.11047567485476457 0.6919278265660921
P 6.824196974865023 3.9677987187423303 1.5130255223687548 0.47847458500582113 0.354585464958628 -0.7466499006993206
Ni 5.210267147316966 2.942097234962731 0.31413493889840016 0.394754580978346 0.029061436142330595 1.0897340498865682
Ni 1.6521234294566762 1.2779487252733202 7.0083438613105855 -0.9208881626230269 -0.4026000451646937 0.10234507532783019
Ni 6.9303674358703855 0.7379405926660086 9.14331662933578 -0.22263413672859075 -0.6292810982691486 -0.7444215255894341
Ni 2.851079817339099 1.5139071212044082 9.33991136682586 0.5439896359894953 -0.03435662310299889 -0.38082511538144737
Ni 6.257530843927676 2.0886680962564443 2.5500093078119903 0.7984458023246895 -0.1550010109606492 0.1728642643943152
Ni 4.365852311633719 6.829037655588395 10.451582258536188 -0.6000389135745795 0.7030272789133635 -0.7128643196084433
Ni 8.058390273264507 7.292985803578205 0.29239244000682835 -0.24709664064632933 -0.603073072415213 -0.5985697852282208
Ni 7.6325185412440195 3.9130278135743413 8.209017473918896 0.3000796206012638 -0.7331032723631373 0.05973392552552293
Ni 3.011624554179437 8.3121519176661 12.3239548580457 1.2451415522570168 -0.4971567347963567 -0.40962687010448806
Ni 0.17485133716820403 4.8718702118320545 10.237097735266584 -0.5307672237619504 -0.5227260986250288 -0.5356397213629033
Ni 8.547109725961631 2.188609673872886 5.6162740597655825 0.011516485280031777 0.6205619732285957 1.2780179912700635
Ni 3.6667570549848953 2.516613117972233 11.623837379434065 -0.9897672449829276 0.9501959104482087 -1.077074452141029
Ni 1.1625115607602732 3.2820536448706283 12.578269980652907 0.3454801602232502 0.2748660974501137 0.008111316253224738
Ni 2.9119534056536867 8.331325340196106 7.848271376948963 1.0703998683343305 -0.024588745082957653 0.44032198519549975
Ni 5.580033857322056 7.761540260412787 3.5553555939352637 -0.6667544126242582 0.503099839753669 0.25934563321701143
Ni 2.961153471553437 8.487633354615614 3.543534236950849 1.1736594850566304 -1.0266474058387287 0.2751772009326293
Ni 3.372602318737063 4.2001513934642025 9.339000922220531 0.6379390310544627 -0.2634707111289785 -0.2923642542348771
Ni 7.104478698760397 5.865219362061964 11.415633121080614 0.12975149236524106 1.3185025816476714 -0.5530736005686346
Ni 0.5621968394985236 8.969078264773144 0.31932627600936875 -0.27085183408439806 0.5000111735260163 0.0560698464103744
Ni 4.678612569321105 0.5991077060869645 1.620208289603604 -0.8233795894518917 -1.306371859822408 -0.26292975102384397
Ni 5.996981429349736 5.6629384022249525 0.39616960355957326 -0.5499286271817497 0.22451438447043914 0.04895277574961891
Ni 7.941456734449637 9.05639981815733 11.212192020444537 -0.047724559769472645 0.04737771795301518 0.7358918908518681
Ni 0.1608277859552611 4.772568649730249 5.780043212797262 -0.4687059356548315 -0.4681354078633421 -0.0053962313149068354
Ni 7.917541788529512 8.671083435437495 2.6034956747991966 -0.33426063735834693 0.3677466849309344 -0.5323523088608832
P 8.25830047140646 1.5096703987835796 3.5247069636569286 0.8928731654673397 1.1407871598086419 0.0364844680792791
P 1.8080528431492175 3.0916986079330986 1.6523082226686487 -0.5526293139423644 -0.10305315713844834 -0.7304820326902065
P 4.706169293662539 0.887185900666966 8.128696428262405 -0.13965023953619174 0.2420408233899767 0.6644684448035588
P 8.461654133303213 1.7364071627220978 12.571871628367154 0.8006831762956403 -0.3064485002420851 -1.4438405183262488
P 6.162249660974146 7.908094798961367 1.3646275588519632 0.5456382273365119 -0.9252140436918904 0.28273830110933884
P 1.807683256725273 3.277582550571201 6.106275346352581 -0.31623437598425536 0.17492603201935036 -0.593365872429778
P 6.892579477597802 3.9415220254301695 5.829835518405626 1.371104267003787 0.04545556122963784 0.9108698591550763
P 2.4397030845796577 8.522906322344769 10.225566638839512 0.8521281223394938 -1.3282185233838544 -0.2751309210757261
