# total energy = -340881.6317851755 ev
CRYSTAL
PRIMVEC
9.17731266583307 0.00000000000000 0.00000000000000
0.00000000000000 9.17731266583307 0.00000000000000
0.00000000000000 0.00000000000000 13.43192474342706
PRIMCOORD
 96 1
Ni 5.3018342995558205 2.2006277302846757 9.220733893522436 -0.6382280230497911 0.6421337858621006 0.5241363487089941
Ni 5.3693242546353215 0.3172468399729715 5.307571037510702 1.2203766866075112 0.08139701232125336 0.0934194907034262
Ni 2.4080716988211237 2.0937395732529995 3.951121137654964 1.85504116067576 0.194662076995697 -3.5402799837119803
Ni 3.4647933302637566 5.0932890535364335 2.558660381838327 0.2795984699287765 -1.3030633642744653 0.04987811577736571
Ni 5.253901197110861 4.316420385133546 13.362575183404168 2.0719641059521865 0.4279076706915469 0.12210606000484131
Ni 6.94115925141074 6.18556359305331 5.331036507478444 -1.5831953381092088 1.7842867156700173 -0.4706813142136475
Ni 5.0073710552424044 2.3674345597006403 6.69127388414426 -0.8574503058833555 1.458598907582346 -0.1418498182906718
Ni 5.105825262217232 7.709291118448969 13.031894593601802 0.33307844412478765 0.4969374196966991 0.09617082819631825
Ni 5.679012660150382 5.919118683368357 11.206415202418134 -0.12794066440874738 0.4807811216518107 1.640972139908361
Ni 8.162375029555164 8.516912960562953 8.383535409141627 0.3411061995252706 0.6952460923060478 2.4702529253360357
Ni 6.757961742123685 1.2376523445773024 7.60013157660873 0.94065300395478 -0.09383163854018034 0.6550129558176139
Ni 7.918772450328856 3.036066006155249 1.0641001905783305 -0.3391598744321772 -0.0833533647166758 0.03310269609123976
Ni 1.1674826142893144 -0.028730494067430692 3.8191128412374287 -0.4876400535551731 0.20191284502083937 0.031240960292152647
Ni 1.805700447590066 6.065634475161153 0.9693499468711237 0.8885100034026375 0.802227895074941 -0.6587773079560525
Ni 8.479928391760888 3.492205962276602 3.566914791256774 -0.28599331771152686 0.1859488654924152 -0.46384500801810435
Ni 7.745881062819648 4.718524326091982 12.386624913485292 -0.8566321808574343 -0.9378823831881783 -1.5385766709585695
Ni 4.903107609545068 0.9053143321631111 11.39920392085036 -1.00242864250068 -1.9255284680630447 -0.889294446977146
Ni 0.7719744077224541 8.61489912460753 13.343542355305258 0.7006168696996579 -0.9230993113417328 0.3348003119119008
Ni 3.2987482177734915 3.8277560340160353 8.257597904848799 0.2133887068709228 -0.4037169323779563 -0.9339015441635593
Ni 8.960553417252939 5.107266100257411 1.6109174991824842 0.12660034833076908 -0.5179307341189145 0.19160734932977325
Ni 5.694026743167797 4.113399881153574 4.100430503329485 -0.023152012636431095 1.2453325852219006 -0.736453419782293
Ni 3.0993986387366523 3.763689216446006 0.3385207677496632 -1.5896254100052687 0.14199534272960063 0.5906466737264021
Ni 8.49190478438786 0.24763233708263244 6.251943093337513 1.9837554700257387 1.5689948782391108 -1.2002164096095524
Ni 5.769556023872759 0.7122466234352081 0.8729551287893933 -0.5695787973125094 -0.07766762718580818 -0.04836322179473606
P 0.07556690768562929 6.295223298417051 13.029665424430084 0.03084629595689526 0.34694568902518313 -0.06578758791877057
P 3.8505800098499647 6.023666625748785 0.0029973102160681226 0.16905980304656043 -0.5515862173898306 0.8258360214121843
P 1.9267583749022357 8.324749217102296 1.7900191739642375 0.10795882197018182 0.4331360089700218 0.9752153153106817
P 6.742754935546758 8.355309667253879 6.777614956537984 -0.7020710856476812 -1.373531645498357 -1.1143194525354163
P 4.431311158541253 2.0532309165055267 13.106320761361353 -0.05142180611540177 1.3699259304249696 1.588295892560568
P 4.263972045008534 6.2374796490615685 8.334535903000688 -1.281505949818664 2.253426653538474 -1.5004117298530741
P 4.660386052305113 2.2048217620322053 4.475987232830418 -1.034058353590819 -0.47685993222053363 -0.8501861681217745
P 8.882482021024856 5.993601750464526 4.2590484169285565 0.27485118505177825 0.309279541932977 0.27693814948779405
Ni 3.1697060287100074 0.9712074348923491 5.894841938988181 -0.7175121027930997 -0.3656322096910929 0.05325705955192763
Ni 8.934655041779134 7.065236514488636 6.603523176572372 0.44364745002430683 -0.8925013839502177 -0.08736325720701729
Ni 7.064612457248304 0.9320570203738352 10.202231848761622 0.5629749188427466 -0.7025626805721191 0.1535331681658711
Ni 8.967638302393185 2.8562090385664463 10.957588896997747 -0.6611208684875646 0.4337877836214078 0.2362491564088641
Ni 2.795482762694668 6.078767209145211 5.8337127791038945 -1.6526362065098505 -0.45048324199921774 1.3030229979548333
Ni 3.3583456842252564 5.312452449953834 10.237046900922294 -1.3070696572203813 1.6099481807230207 0.23358857885756545
Ni 2.0178890866155132 2.021734380493445 12.46786156474559 -0.5688977120850848 -0.23476665832606666 -0.49130310422905715
Ni 3.8866193154791735 7.414699391762544 2.1925333407850673 -0.9114157043562174 -1.4926583111599003 -1.734241478187168
Ni 5.680260774631048 8.458572785904211 8.780905692385893 -1.0595675536055171 0.5567824168787895 0.18797798010730205
Ni 7.1732351263156096 2.5832115278580003 5.436558162700038 0.06330415937528452 -0.10543605554832809 1.0360525012027124
Ni 7.833120594093205 8.456507890623698 4.1512572123608695 -0.3085300653614622 -0.24194260724921554 0.07060660657396874
Ni 5.097180233976154 4.848585196827185 6.353555213494671 1.138248452547188 0.6851727672304457 2.0286057935712094
Ni 1.0903564812340896 8.04603424079492 9.53709604058411 1.267871646864681 2.105262205883684 1.1112130456959506
Ni 6.6657205756151106 2.0259284122409746 12.430977028648226 0.2882695153402132 2.2443758561901155 -0.36921195662255124
Ni 1.6421423867487739 6.611390886456742 3.3611511886130456 0.1879964920500633 0.3472683624719245 0.41633950623797333
Ni 6.8104009049363405 6.404084577605661 8.158053433165861 0.2747169734667591 -0.08831919336238338 -1.1276063994523098
Ni 1.4188400224579911 4.456769023021881 4.281627358522532 -0.7176506852534931 -0.36044526617351474 0.23345616704475922
Ni 1.6764380030299941 1.467470600642146 7.733148459654391 -0.21001593374394797 -0.27468740578040435 0.9502517033868085
Ni 0.9676099284480787 2.1908630699359417 5.468324511695441 -2.0429582056381395 0.7443780739460083 1.6559035644072126
Ni 2.349658105663519 6.935643686683683 12.087388549014564 0.3621326811782667 0.4178981089743448 -0.018999423920638244
Ni 1.890232671718062 6.208956562253425 8.305899017519309 0.09403192747644451 -0.7880863134672363 -0.5124856518439431
Ni 6.46607732258282 1.8902051397809885 3.3199147709955965 0.2641631092103128 -0.7838565916566049 -1.3670938602928133
Ni 4.814867751224509 7.30255263474983 6.270022398682443 1.0597313328768911 0.13007416581198242 1.0421588712107663
Ni 8.905168337173418 7.530783215776768 2.2717546542515854 1.1733854054596373 0.4775471880955453 -1.2167246916772207
P 8.901038546612392 6.559034319455307 9.072110073081044 -1.87994255190313 -0.9323730233341748 -1.563480633289101
P -0.03798581358030485 1.3059957897060817 9.244199363490177 -0.03213210464785434 -0.21383222216624462 -0.6463110571682418
P 1.9058708119758085 3.956935882764887 11.174702999565643 0.6898943410758313 -1.276883363444988 1.0182712659598914
P 4.313281744307169 6.011800360870107 4.329068557025112 1.1031768056550357 0.23329932975192078 -0.21749398728854802
P 6.3281331405322385 3.795295880206381 10.913022032725642 1.1191466987207306 -0.6269735331818944 0.6750981566032632
P 6.045205777852618 8.040325952508349 11.022801043150034 0.40128029791200565 1.1468552203795925 -0.19681434745200943
P 1.559133596472178 8.197147866078993 5.990450261400846 -0.5209522945540576 0.5152045934370031 0.17068114070006732
P 6.381985609448001 4.245277859735629 1.9452378110659674 -0.4727510522584826 -0.5295302660310558 -0.18588047414832504
Ni 1.5216993393645788 1.2798496267986168 1.4665244197380536 -0.29504514350114996 1.1025954792302688 0.22467867796244534
Ni 1.1191732420376839 3.947327236726236 9.246617585296466 -0.3199629897887522 -0.980652427165853 -2.0814429919768993
Ni 0.13292052126590403 0.5365818521314629 11.267732497205756 1.4927228458492485 -0.8518612418313524 -0.5944881589596793
Ni 2.861320801549759 2.0026088615397217 10.118940397264405 -0.9499395714630285 -1.125847507779674 -1.3308207368933918
Ni 4.463918149348633 2.71028059476455 2.168772361359403 0.1452236198589112 0.9915199660079763 -0.4035230711995954
Ni 3.6597745086182676 7.944312910620704 9.997059265033737 -0.0012652398656687886 -0.4190535627350267 0.8855231528601717
Ni 8.279266457056877 7.298468730750594 11.352769473513433 -0.572519110887756 0.3399849414366338 -0.6753588664638176
Ni 7.873528300404741 4.4567414910848075 9.253010501084932 -0.2634591411647527 -0.054033532706635974 0.35058688532219623
Ni 3.310329985969076 0.25709965251097255 0.08113753628683366 0.16943826943190174 -1.224891286648413 0.22188208905391463
Ni 0.8500237784008772 5.805632038751399 10.652429495131278 -0.148434413486725 -0.5815742791114887 1.430664128845291
Ni 8.776603368352541 2.694945305814612 7.559177820211902 0.3056159770384608 0.3898108638198254 0.030990020623611142
Ni 4.1619386862141505 3.4343888944222574 11.312191986923278 0.9499611687295832 -0.4038467730876013 0.8474633698739726
Ni 0.6905230073529826 4.122558838886691 12.985836416071546 1.1509255337942241 -0.487885851017392 0.37323367618743464
Ni 2.941145064438187 8.304650903038644 7.702241107095682 0.4301031356809689 0.18349680440749688 -0.4462401504521476
Ni 5.5655168382210665 7.874390967766378 3.6837456484969264 0.19366166075564067 -0.9770737086756591 -0.08095966767351863
Ni 3.181342860779739 8.017180770741895 4.616713975987895 1.0379445760191028 1.1113881378212342 -1.0420907369769925
Ni 3.4059851126747653 3.8163394574428917 5.280599834222269 -0.5922155608754187 -0.8113745945712155 0.3563330437773541
Ni 5.368461587273686 4.80816831320329 9.248927514816932 1.7527482787421043 -2.5371841399409467 -1.5450820761772552
Ni 7.968063795002775 0.6586107390910912 1.750045554527226 1.7891209038338671 0.4343886504302002 0.6175841215471943
Ni 4.0715054502400685 0.42430477728326754 2.510265660581768 -0.5728009037942329 0.8778880049124171 1.4859122506853182
Ni 7.032023821065641 6.2457575848083335 0.392838526401967 -0.5775083365722312 1.3465983114426228 0.7458790839715671
Ni 7.65792570118218 9.135372040357291 12.798837664005877 -1.7176717467539449 -1.256034802130753 0.5102701322498631
Ni 8.363376524816413 4.654778714454476 5.999127410235176 2.1358207953968313 -1.251096227178555 0.7526310579834199
Ni 7.270009885128955 5.999126492503941 2.811530211083574 -2.077645986828312 0.3184802345956386 1.332534891371021
P 8.499558662894291 1.3467063473254273 4.185159121941939 0.291156349969705 -0.15261271323413073 -0.5869118892743183
P 1.5621712868626207 3.890767460664914 2.1555689620701894 0.3260315645803353 -0.8043467411901566 -0.45589515704340844
P 3.867356136840083 1.1103171356123753 8.040592094566726 -0.49759433655440755 -0.20205399858439396 0.8002484027510669
P 8.89597267019087 1.727252781555313 13.137564003552358 0.9378340464487461 -0.5944225958290665 -0.0973234537435227
P 6.782731308177476 8.050962457531076 1.8155935903118097 -0.9039895870954754 -0.33480571122853947 -0.24806903186192764
P 1.5377688133031435 4.443948317657989 6.9027063126314205 -0.4181655037031185 -0.980244135983841 -0.5554325877191143
P 6.763330469853018 3.607463828178622 7.404805331309563 -0.20188739109954265 0.5823980605643647 0.4341348825481814
P 2.453701295864267 9.086163291494591 11.498748392533297 -0.5363462605116247 0.6124372872389324 -0.44485586851011133
