# total energy = -340869.7145333526 ev
CRYSTAL
PRIMVEC
9.26850658316060 0.00000000000000 0.00000000000000

0.00000000000000 9.26850658316060 0.00000000000000

0.00000000000000 0.00000000000000 13.56539625945946

PRIMCOORD
 96 1
Ni 0.510386995083478 7.397899463701361 7.880138931320576 0.4057740720173012 0.37910093360148905 0.8321861319999282
Ni 0.7487331283156284 3.7971959010104075 5.567808752321365 0.2005275346375385 -0.7421568979249734 1.1906395645543946
Ni 4.46429665811148 1.1547632278877749 7.52361285194645 0.36875095782573264 -0.7033088147095243 0.527021383566273
Ni 5.733053247744111 6.34003847152726 2.810573576834286 1.0365605511873826 -1.441381772373111 -1.393046318492517
Ni -0.05295468517709297 3.1098063831271987 9.783132934470352 0.4090465721209859 -0.08030223659517782 0.3099341447978405
Ni 3.9519799599696 5.691113255720737 0.9571892548569109 0.482217339877705 0.1494011482753685 -0.6140650526503425
Ni 1.7887939537094217 8.906654761279462 6.338485996684406 0.24517911190864228 0.6180073251275422 0.505169063577872
Ni 5.280379389087406 0.3989378383795968 11.40244761212598 0.4513432760066679 -1.0942905589089993 1.2977087848307716
Ni 4.651223897697648 2.369039536169381 10.32637307778058 -0.7601273663604651 0.0988540314554362 -0.944783738293702
Ni 5.19253248424817 3.355848157326644 6.774721232169253 -1.035949142855629 1.7550213910469967 0.029127256383259515
Ni 7.519252019626673 1.4573521603932098 10.462149283559324 -0.38028904037231925 1.2945452995011255 1.002554369445267
Ni 2.644379059492778 6.842428599181397 5.348903311524358 -1.202861303431567 0.050836365925576964 0.1693919895749986
Ni 3.5609509382073616 7.425158141389922 8.62011702837316 -0.23630237824430272 1.5439068249222314 -1.3445442571270714
Ni 5.952540750750857 3.6649899239449026 3.679152201914343 -0.6346649882888812 -0.22271332670595836 0.2660420714005805
Ni 3.573111218767509 3.517064559813842 4.897433431865186 -0.6978565333457014 -0.05795369369664858 0.6598556286218958
Ni 0.6655112082321201 8.081924513716174 1.446789770357887 0.9159447025748226 0.5040997417730931 -1.3338165862969222
Ni 2.463689524797601 6.935271229037339 3.0237130797223997 -0.3392398357404932 -0.18450621950861773 -0.952010080838812
Ni 7.872502608795038 5.527014347704419 8.916168883226863 -0.8936586374831124 0.3996890421654859 -0.3882046956749701
Ni 4.701144073838618 4.251306378178411 11.578635433202209 0.07932187495977952 0.6891106688322712 1.495462870488231
Ni 1.6808900007511627 2.6585598744752668 1.1022376745627662 3.252902126948101 0.6218884053495031 -0.18964714027960888
Ni 2.3968172502233145 4.188160043226975 13.14919591283765 1.9707233194321283 0.5501998785652654 -0.17294396859231506
Ni 2.0730034377767685 6.554317073867235 13.02272621446016 -0.5001001336953969 0.2409542751940173 -0.44288151839255985
Ni 2.30104577230563 0.5349272198084034 1.6545989551437588 0.7052865072611854 -1.5014885078570206 0.28964094176644306
Ni 8.81581412883281 5.58028972320726 6.709594217373532 0.7247710983483583 -0.44300081757924353 -1.4337121716429952
P 3.9586625531737667 8.545831802280576 6.285905759170903 -1.0436508823752606 -0.470508536081209 -0.12479363413933345
P 5.742812985114412 0.712047452640995 9.29484669319455 0.22489439351767718 0.0873992526512753 -0.4013162933562637
P 1.1721138721016435 5.154707709121676 11.197840696344326 0.7144576322374921 0.02322965995190193 2.60078526173136
P 7.81536226607148 3.4404603533888283 11.756125479445128 -1.5041737679986675 -0.02356621735571425 -0.8705377351949329
P 8.864065973799372 3.5871622746586547 7.767450575294369 -0.8263618120086672 -0.056125639348974306 -0.7246088617388811
P 1.8881060011194668 5.624027805496388 6.921960726817502 -0.40599235867569433 -0.8947449285687558 1.1910475986260907
P 6.00660394930828 1.6893243416884602 5.829322444462162 0.44834279861744725 -0.6461519058825581 -1.1442236962940167
P 5.644223881213279 4.916432943389764 8.375641631776356 -1.1305179166721497 0.9790521725582686 -0.5744785486069719
Ni 0.4508692804363847 1.157960862638728 7.814834888050236 -0.113855647070591 1.1144220395515518 1.1011512905845746
Ni 1.9912088676980333 7.20693115527051 10.318938808697277 -1.1589754006818944 0.8787243847707835 1.0549668216087122
Ni 2.8521789757721256 0.08492917898532192 4.244083431043866 0.17020908615965527 0.3286620602246469 -0.44060737764640245
Ni 8.90183513788672 2.8847114336731297 0.8973369471242831 -3.9065526552005494 -0.5139696925886375 -0.32512370805408525
Ni 6.6097242058707115 2.0572006341524913 1.6307232823366402 -1.1856711648055258 0.5531872433283633 0.2938344110225004
Ni 4.165285369124502 5.866427056631704 6.956131856672037 -0.6602142975128952 -0.4223918830796403 0.44808903073542833
Ni 8.388925255327273 6.73755544785665 2.3627119267651024 -0.8239249204324003 -0.29347779901403004 0.5372631158989392
Ni 8.713749334984989 9.008682481101186 6.303147961858435 -1.499248048562276 -0.4846519174611265 -0.47191955749612274
Ni 7.721323998873878 1.3013724640923563 4.322885200365839 -0.5141432420520242 -0.017775578815866163 0.1571530243066455
Ni 4.0385848849345525 2.132590666222795 1.6591294011329358 0.7826908534832778 -1.6946554883644296 -2.174768123194306
Ni 6.988398308435788 2.0677667315904245 7.831940843691858 0.4910426514788188 -0.5818352460823593 1.1080734716257046
Ni 4.7021543410497895 8.955110513389561 2.3458775383646486 -0.7672056133634851 -0.17282904028100557 1.0825786697887096
Ni 6.453966953726445 8.054573150962367 0.9948833440414103 0.6620204974836985 -0.6343921942434687 0.3038866530521799
Ni 3.789818169816903 5.498912235922127 9.826623547635274 0.4012898109937024 -0.002644379601382543 0.2203849356830979
Ni 0.40385478109084544 1.7094462693531551 2.6567015389171043 0.12226006908420232 -0.7654544350003334 2.942974924128796
Ni 4.773883313042914 1.6193193119088924 3.761766107969844 0.3802399323019387 -0.5576715043519621 1.4724502116431415
Ni 2.594783281080165 2.097101554740475 6.587722625082846 -1.4162027020043222 -0.2678014772938484 -0.23381457882544246
Ni 7.50195698645195 7.2590757729773605 4.970537850226547 0.7413963656098651 0.766195684041732 -0.9193079626201005
Ni 1.2013467416799246 1.1054269676578476 11.128901544815076 -1.598203381482267 0.6116721269381337 -2.3653141211391007
Ni 6.108010679192863 5.610060166163962 5.853305631944965 1.2581940145656008 -0.41504906956132387 -0.11967122531110357
Ni 7.443583932360633 3.6562775278118704 6.099639364099932 0.4956616383080689 -1.0364633634878861 -0.8584445514758249
Ni 5.0242905538153995 7.4092348471808265 12.872258498989428 -0.938749359174164 -0.17057906790456429 -1.3598662321961226
Ni 0.49825452004290405 3.1244228179163396 12.33318362251131 1.2926054021659352 -1.3580759730649192 -1.1844146666906055
Ni 7.304435843908276 4.584147715979822 1.8119439024556718 -0.8429963352415546 1.5758460968329893 -1.4081960296497618
P 8.040336724940731 3.1474179826036304 3.0242015300162413 1.026453801770684 -1.683868939271887 1.1905917420355947
P 1.1588506392650804 5.075804913078586 1.1109667540075427 -0.050481039468687254 -0.04039331621538205 0.6294109389787934
P 6.516149363999332 8.358626507498673 3.323074718256003 1.0364001143501183 0.548301633101288 -0.5655537353135163
P 2.10548955314515 2.0481731087976263 8.99898576957525 0.9130822934253631 0.2881818407224134 0.2792382583758804
P 4.602693997535352 5.287747851774386 4.378815076137297 -0.8517555694914234 0.9877422441330989 -0.20628474883628986
P 7.654729779495327 7.114561219247317 12.986478939144137 0.1525620625018534 0.03766691842315449 -0.18698322029420056
P 7.413730072845211 7.070684109360322 7.174087275550281 0.16823807847621347 1.0662452227360089 1.3572493633985658
P 3.1312351702118493 7.664183656150319 1.0208703826348107 0.01763185414915028 1.6541912097017963 -0.15536765027144855
Ni 0.334250150793136 8.24988838895321 12.233450784905052 -0.18088739180910782 -0.2671959824993656 0.2688605146859821
Ni 8.610646468406424 4.832043191484168 13.328611954736362 -0.08104065742309914 2.079021269909284 0.5305378813599637
Ni 6.451723975147516 3.7317880504669927 9.857186447899823 1.3017369321535581 0.0009973309162627985 1.2980844230026356
Ni 5.920240005512965 7.757267267175899 9.122918677716985 -0.7575200106446052 -0.774275375726073 -0.29588203758014847
Ni 8.383679280634404 5.9205180607087 11.207377989558038 0.6944714189235522 0.08194311463271049 0.08664720497659917
Ni 6.115629391556004 8.71543620317245 6.596065207805552 -0.021287448623866563 0.6102361658225555 0.2307354256794865
Ni 4.592656204969316 7.538317337547574 4.30685068407845 0.4378329002250589 0.9791534740228234 1.7833837442397737
Ni 3.337014552068855 3.8480800018299264 8.183244119639427 -1.0955851093507067 -0.40355495287879534 0.5563067627939515
Ni 7.910568365091171 4.980487591980601 4.135315653277523 1.8013742672799236 0.6261371533235282 0.5688774003701106
Ni 7.969451187041336 0.31420515173259433 1.9175909740752144 0.553670353612369 -1.1188929308387117 0.17592927647288412
Ni 0.1414216531028175 8.669816614058847 3.807793511370524 0.30558872334495113 -0.08454558525256407 0.5600135222215775
Ni 2.508196893128262 3.424453642621012 10.955142999298921 -0.0787426054175418 -0.993566821234676 -1.859715683333294
Ni 6.036235364667115 2.508252504167409 12.859426251706255 0.3084027957549786 1.0739343638501504 -0.07458744559858767
Ni 1.1242698414221612 5.322171085006388 9.191994076292145 0.09226660804590561 -0.734246127718329 -2.6290938788680656
Ni 6.208332993814078 5.464127530935669 13.260120472072245 -0.06487201808303666 -1.1129061171276575 0.46024597781293636
Ni 7.538067087871412 8.51325300184695 11.263551627051092 -0.6865454792082564 -1.6684387207597458 -1.9283865063371306
Ni 4.391140336113581 0.1624713582706153 0.18676040646872671 0.4468654427409724 1.5612671705775498 -0.3669794677476067
Ni 3.3950632084318144 0.4058252655779547 9.882865772076608 -0.8305169718276213 -0.3502349012994162 -0.4710926907194532
Ni 1.3192792186976952 4.513873899511044 3.3598363956841375 -1.0721752150671986 0.5063432863916311 -0.5558879300889782
Ni 7.7417332502408325 9.103777358042581 8.766230399478681 0.8055039947230516 -0.3623095730757631 -1.4714644506911045
Ni 7.258399172001072 0.5679991047891334 13.066705277918924 0.8326445596935853 0.07416038536349809 0.92865623660422
Ni 2.395501122296835 0.05277858355312741 12.553905690587118 1.3780128211981624 -0.7879482452274752 1.3015268730252811
Ni 6.105007683078924 6.21138233246064 10.943395167279114 -1.0411854515539036 -0.16041395444610437 -0.310155259669711
Ni 3.408530348411917 4.015719479338604 2.487825642638058 0.42225561461209216 2.2169041331324078 0.9542181442337245
P 0.4771593991931362 0.8491027123201194 0.11322963680723805 -0.12534230755395187 -0.5037431297646228 -0.07715572054639615
P 3.965002211636526 2.1630377101557863 12.539702631188971 -1.4031479257028932 -0.06639873914020823 -0.5414488718455127
P 2.4116653976755678 2.2862532358925236 3.489332261441878 0.4319674425832174 -0.7029851128215183 -0.35479063899089863
P 0.41165608303251927 1.540991163270321 5.533785918571221 0.7592423926523505 -0.2987205354702081 0.03506110536919123
P 5.315590445373991 3.881048079537582 1.1664406192579955 0.1602910557149949 0.5565613020069189 -0.23458333867066694
P 0.41965851156577477 6.53390782250028 4.357653222040553 0.2370775658474304 -0.551734827152553 -0.4919417662543205
P 3.9332761138031542 7.795481319576423 11.002499506535214 1.006973581558885 -0.4556192776742024 -0.289840716482075
P 0.1980577890714429 8.514735962890871 9.809083825888306 0.6345734570163395 0.3109168204260839 1.693308487418232
