# total energy = -340857.3737457277 ev
CRYSTAL
PRIMVEC
9.38052614436495 0.00000000000000 0.00000000000000

0.00000000000000 9.38052614436495 0.00000000000000

0.00000000000000 0.00000000000000 13.72934821038756

PRIMCOORD
 96 1
Ni 4.299029370509575 4.340950940895349 7.06454537065584 0.24786360071934085 1.3369217075848072 -1.2692937240231883
Ni 7.043330373210222 7.7758368821124995 2.406122724308488 -0.8713879990103703 -0.7995704028474357 0.545508386626867
Ni 3.3207061795846533 8.265800512542064 4.212877682306401 0.9084977593784741 -0.3606434982272499 1.5677800319954032
Ni 1.3965257979821053 4.355547039244032 2.4704721941427614 0.28606196616593316 1.042505713027224 0.11955938232358763
Ni 3.1643046707365885 1.0921464925720408 3.844134836273167 3.606453237104944 -0.08035622976156484 -0.280267213861027
Ni 3.870498804402327 1.2797007280370565 13.354413140033863 -1.2909041032041122 0.9767201819909824 -1.8499796869924527
Ni 1.9581285049469461 2.7392073771200978 12.925783140351747 1.3151606617586318 0.4682968731418709 0.08747021509852679
Ni 7.035816571939467 8.075779198757187 8.695317909977256 0.14841821553680892 -2.2919356082469493 -0.41495008208961437
Ni 0.7553096293880192 6.220376833280953 11.209793213209888 0.40033413194865247 -1.049569818962857 -0.5685498418273627
Ni 2.1839083835809094 1.387389165725282 5.700864546168643 -3.868492615104035 -0.5503801128968715 1.393112395843762
Ni 7.4949839357374595 0.8657437470162571 8.158431950788087 2.0476913494477507 1.8505761829258711 0.5631952623836688
Ni 6.802522892034749 3.9086306423119646 5.6549403053680996 -0.7319244215636879 -1.1647022758633425 0.774433241460176
Ni 9.21064460641914 4.506507843052098 0.4006281917253988 -0.6942472187278882 -0.401690903086863 -1.1348679661107295
Ni 8.658985256941191 0.6043150556866 13.668540687991452 0.2940969206552677 -1.1137504674058238 0.28930695546579205
Ni 8.260256621716826 4.255560013345181 10.860353613437526 -1.7315811577461857 2.7621461534717655 -0.5807276148404773
Ni 5.3558581829512875 1.4845714143707538 9.437334396068414 1.6193514763147918 0.767991085379258 0.6653436483196606
Ni 2.414603657802733 8.054916909086577 10.982654096368517 0.742273883118812 -0.6652258917948737 1.5239823180841627
Ni 7.265808306716463 0.6515647648011986 2.3063795920838452 -1.340498369192472 0.40629780573125507 -0.4373461903966275
Ni 6.201803391937512 4.152233520214885 12.964664482283272 3.1775688043224246 0.19931268839383093 0.2869860206420993
Ni 1.2950754100380146 8.639342435641613 6.514109241759297 0.605596353057699 -1.0030953295504015 1.2813629964828965
Ni 6.697667373177694 6.194608528548412 5.966047323975899 -0.39413597355774055 -0.35286591116436006 1.517612924222709
Ni 8.9414610343023 1.9583348765174287 6.250285702159449 0.36444384580994654 0.8757249358228272 1.6676918152913927
Ni 0.5448322027053452 2.8510326267439074 10.637100848489382 0.6039552179098502 -0.5154527048920672 1.7963860700367125
Ni 6.156861292201947 4.178799169651562 8.698228687173655 0.8696807865112764 1.1898849457765572 -0.17428197067744822
P 1.6332339893257188 4.613914864962394 6.965530167243445 0.04340870600293814 0.6087058452209582 0.8288892064162112
P 1.5077788355241222 1.2810140016674005 0.6552334884928246 0.26053168310531255 -1.089737135210362 2.022128927597614
P 7.861875065951908 2.448504878517475 0.6497852790320823 -1.9890198037484712 1.6414076847838828 -0.11728806979090767
P 4.350838015226654 3.436808949033013 12.8727053104762 -2.109533065344896 -0.8935028286315386 0.3507655769919056
P 0.9593745285442409 4.398087724341253 12.321554385503712 -1.2792570058834871 1.1937781101833762 -1.8150612778487127
P 3.4578307076444514 8.96487482702615 6.74859237235207 0.9354781446220599 -0.41727384512678456 -0.17306943842658581
P 3.771065229533408 7.112802548255432 1.5014966973081112 2.8889658169021923 0.06265624137864048 -1.0154523084538576
P 3.826382190948693 6.215770995048817 10.199916747210759 -0.7025637090133836 0.0910695024140109 1.3101642369853048
Ni 4.018673592008879 5.820719525989415 5.089798325969481 0.17642652782427679 -0.10669152522198398 -0.8455098456920278
Ni 9.402945388005255 6.478350676910211 3.211377087911091 -1.5161563942818406 -0.5248390312029735 0.33603367009836965
Ni 9.168497903411021 7.368628251446484 12.990695441741883 -0.3227562362631732 0.24980838315053752 0.34063954430149723
Ni 2.5690727783090046 8.5730127367833 8.843800378834345 0.034696008720288635 1.2987333694405439 -1.9448703629247668
Ni 1.4642250536263495 2.5654987979292825 3.870481919455651 -0.8830497516190148 0.1871662828392841 0.26813237827070596
Ni 8.842252592055726 5.732945944852766 7.156876011289783 1.11855765898648 0.8028706708652624 -1.4228112084597755
Ni 7.005311101611758 5.968969357803414 0.7765499542536505 0.15340821255223255 0.18574292012919624 -1.137838361592963
Ni 8.478250663828033 3.7998446830898085 2.4501802404487574 -0.0763486512640685 0.6180104104513356 0.5894102302161397
Ni 5.7268673640494585 8.434696881930261 5.284728468974066 -1.0514181850255053 -1.03446407366967 -1.6512167004545046
Ni 4.444183628766335 5.731135503348077 12.658129532014257 -0.5471644341730513 0.46549565624764994 -0.4663371783123388
Ni 7.149030139401069 0.07422247337668252 10.605454706208459 0.45308211307464547 1.20541800841515 0.1021445292812499
Ni 2.3368766199382174 7.881161427266106 13.98004544089873 -1.2172821068425876 0.5569559663421763 -0.9023070571867299
Ni 4.577509043824065 2.7974510626258637 4.810159219649916 0.8437859210223855 0.6955358556323247 -0.6393089148187958
Ni 3.946678055488223 3.015773423144658 8.766243128489181 -1.6917827948023252 -0.03215575879693817 0.038205564535443874
Ni 3.2019956239274676 2.3308543222904956 2.0047872409278895 -0.5108658568523331 1.1768445676528314 -1.400999769011639
Ni 9.247575737009605 0.1600627281189458 5.119673424954625 -1.2615403053300145 0.5449779680446937 -3.0267311807108457
Ni 8.273004756457095 2.418487195538179 12.223609500100046 -0.8914145786439422 -0.10559392128243104 0.3955058573220737
Ni 7.995228622587432 7.184207111642432 10.82611281768408 -0.16267575389708758 -0.4470755018692494 -0.47529335906436204
Ni 7.9333921956500815 8.315676768917351 6.523349059801362 -0.02744524069514628 0.15182621277709338 0.8378782972886989
Ni 0.885293701109117 0.8256072907151586 9.796713601117292 -0.5879225899270197 -1.6932853474897807 -1.1051123321148515
Ni 2.7867854046422824 6.834416680200251 7.204941826160382 1.067297318149607 -0.6076555495795728 -1.4139624998198939
Ni 4.784387162707003 8.102419892401313 13.03217143714593 0.08463248853941553 0.3372893968823417 -0.20872626839824696
Ni -0.16745552060519062 1.7407348164953238 2.160793829634258 3.071973340378096 -1.7360919011323457 -0.7167171176956302
Ni 5.91110089333489 6.003986861103949 10.394530766491469 0.03358786325777441 -0.4828804273830006 -1.6586793273801372
P 1.0852049033830784 8.07561972981636 4.376518143015442 1.5886195944485737 -1.7701898712573192 -0.9446672673204956
P 7.708981873802048 7.5332001983804755 4.542381788370137 2.761667156952818 1.0813609953315249 -0.20588777050818732
P 8.6057226307048 2.1920131579853193 4.1570128981767445 -0.9298535993464307 0.8365315534528174 0.1711871338022084
P 5.890792054694209 6.541003209603561 4.03630429049625 -5.772979946226064 1.4150835007982145 0.6140869070272134
P 6.433614948745128 6.599350080894568 12.328433125168937 0.9618975151558531 -0.18527729334668736 1.830917271044363
P 3.315865828204242 4.049498000218244 3.7259936785399947 -1.2853865158199929 0.5839533208666267 -0.47646218256148265
P 9.60678421648654 8.64258809761375 11.118012271395502 -1.0016339145135267 -1.4388734041289608 -0.04298807352575177
P 5.495112090397429 6.451334762228845 7.931952284919668 -0.3443833276146456 -0.4061887909572166 0.14117978880684073
Ni 6.832915796051286 1.134612133461814 5.213156932225492 0.3379010623244116 1.0706515793338207 -0.7185135474744205
Ni 6.110831051458383 0.8448298644530255 12.820986718808058 0.40599004468284916 0.6186326174163668 -0.5944755605541892
Ni 1.4138516293767178 5.864911183650499 5.273950244679312 0.4260014548077696 0.961343442424596 -0.742927714652727
Ni 7.019447554189819 5.345727214945775 3.083817882143164 2.784179736233037 -1.270430922951425 -0.8115031497292797
Ni 9.063042030894382 4.181266247971423 5.185080080061326 0.777604440099306 -0.18842560916768195 -0.4067302652829834
Ni 1.7199850931358849 9.418798476828698 2.6161958503235345 -1.252304131443727 -0.8411785653065255 -1.266430029322148
Ni 1.4052215455201702 0.4932918410298934 12.42278057887805 0.4101588313485582 -0.4087578372359735 -0.9239179505882862
Ni 5.0268643774982005 4.530428184176225 2.4551922554537065 -1.5115518056302935 0.5038971388439838 -0.6325520557109364
Ni 6.474617227589661 2.9885136147890847 3.428149785546079 0.6197937276040036 -1.2355539085685816 0.32579090932443894
Ni 8.474732966603897 3.5079602382198765 7.89010482068875 -0.19896147570199926 -0.04403939760840157 1.1670553494765514
Ni 5.649665635637081 0.36289877837820267 7.065287370256984 -0.6846156091753952 -1.2269641100170416 1.1338302688748345
Ni 4.491170683154865 9.424239181868696 1.3052439001472513 0.4647302388365351 -1.2388927431338277 2.141563097197247
Ni 2.032619261365256 6.264746720934725 9.219353486693507 -0.6105274718107292 -1.4424480088540965 0.29712542306894635
Ni 2.330000694430772 6.719589662278512 2.864477734560853 -1.0624885839070541 -1.1907889456480654 0.18915914489959681
Ni 9.114616162463184 8.16822428180749 1.4474855051024262 0.8785091834361838 0.051829325966465584 0.5727888196093748
Ni 2.992500338309773 4.961829191218369 0.855571504696648 0.5708885172628684 0.2940133598025259 -0.5101639456893021
Ni 3.0429112846631283 4.31091449686419 11.258312107482954 -1.131783927868767 0.4313442071769216 -0.6037862964321536
Ni 1.6587959224877755 3.6907022638822733 9.056756140467998 0.7768431364532492 1.3328861040628528 -2.387866809628636
Ni 0.24407753251503064 7.7225930169279735 8.559534797125597 -0.873021163738419 0.3560749050199609 0.7354555746453979
Ni 5.5993297334911745 2.5364942117505374 1.2589716418346661 0.47451302925491173 -0.45133222026307435 -1.1783471203402869
Ni 3.9881775022070998 1.7574978163340742 6.621389626569523 1.1780108200467905 0.9339143996793657 3.005803172308927
Ni 5.220891175855627 3.403845780911373 10.698196213878182 0.3216192944452525 0.6853257478685423 1.7149093535174593
Ni 4.942702298844998 8.792592087776853 9.27678294254846 -0.9902426419574494 -2.5708069702017147 0.534339514494241
Ni 2.8160620260730274 1.8986465900182843 10.569826530669815 1.1441038828867005 -0.5419800617586343 0.5541043558259942
P 1.8485639620725145 1.756100117970351 8.032505894584753 0.5004860562799058 0.07469568904167782 -0.3575000675022617
P 5.323148289029786 0.5174832793534269 3.2710306664642905 -0.24114710793111369 0.6392991446267828 1.5378775880090159
P 6.907763012454975 8.671508259059117 0.2463720091577606 0.4259711157904664 -1.007259231120104 1.3589630036555629
P 8.148459513670808 5.588054341322076 9.055081716589308 -0.6143103358919291 0.6101868006418587 1.8150036851379
P 0.9940637134371901 6.177057564531455 0.9715532653604972 -0.1366603036699324 1.243062044020169 0.7351771241730306
P 6.165378809747322 2.5671216289153507 7.363269156982086 -0.326736818177476 -0.7889430050405767 -1.252707537529733
P 4.079168603738092 0.10215767959929013 11.289107436061933 0.6058328945485373 0.6707313949941351 0.2031505740826824
P 7.838011007983368 2.264655950795216 9.869918287430458 -0.09864551498905592 -0.576671956713865 0.6258862136549866
