# total energy = -381173.42160548334 ev
CRYSTAL
PRIMVEC
9.19380063866771 0.00000000000000 0.00000000000000

0.00000000000000 9.19380063866771 0.00000000000000

0.00000000000000 0.00000000000000 13.45605655829944

PRIMCOORD
 96 1
Ni 8.206073702532183 4.633969634105155 2.6562930556370556 -1.2280329176011882 0.40470937819821273 0.7099214349300353
Ni 4.008156830505574 1.300619369857378 12.634954471607193 1.1183306305773386 -0.7473261008307387 0.9512570047228714
Ni 0.5784251978819511 4.518688570121034 10.194335103471367 -2.727067564601078 -0.03814128695641173 1.0396379045611257
Ni 5.898963027175032 5.426732660281309 6.46387241899884 2.013009481794849 1.168108473331414 -0.7570569549652575
Ni 1.7764629003323884 5.485131680811426 6.742519962139724 0.0700954712655051 -0.264931354834905 0.5809379310790705
Ni 8.813572455612874 5.260343259532873 7.835098337638836 -0.0919786444918416 0.27341548104651625 0.6840851905932218
Ni 7.1876856192355 4.160121158330244 10.513997109850113 0.9082010540736617 -1.8019928747005287 -1.5376330760983776
Ni 3.249300540430659 3.5024518361322925 12.70022953550231 0.060888865065572555 -0.026325268158090144 -2.2811338896457554
Ni 4.955577968041556 7.896656348007453 0.4857378985314513 0.917339268929504 0.5303334786586414 -0.4228248568520009
Ni 4.6280396328076225 7.255471510036595 9.58795155838663 -2.5791615128139966 0.27247882816485974 -0.5644725864341955
Ni 5.8626750967543195 7.664301428949259 11.352659265449214 -0.04557717440916667 -0.07397218061209196 0.8705860719343651
Ni 5.7708658053478725 2.9593372676820193 12.181417859191411 0.18617023747460193 -0.189333465693932 -0.18342095686423893
Ni 5.49798461385631 2.7688876911263876 3.297702222339169 0.16677177834333212 -0.9601198544301401 -0.2296463063803658
Ni 0.6546859339482632 8.581520931969902 4.480247451632286 -0.7810103804570614 -0.19717687299775075 1.3961519540010343
Ni 2.457420119098789 7.358993703230725 5.615939235014575 0.21381293889253503 0.285889702254127 1.9476335274922005
Ni 1.24370974500199 4.844296207258096 2.125585520909294 0.6823391544363926 1.3833064654969336 1.4036927424627694
Ni 7.371092744637783 3.5611726396785546 7.067538276667219 -1.1759917327342329 -0.630727858018004 -0.01416317887425948
Ni 6.622377216471672 3.9975379909727833 0.9137157456648453 -0.3230884227916113 0.42295803999575543 0.8268487789474147
Ni 4.542013241891328 2.631982808457311 1.0041174662206682 0.9866091589699202 -0.4145932129708279 0.3695122614717894
Ni 8.314441028569414 2.1193273009352938 10.95597527632596 1.6441258550459943 -0.10535506579874761 1.9881821383385243
Ni 3.521060088265944 6.388854684754895 12.304338971358865 0.1947852328371226 -0.5440120045869986 -0.6812130112517494
Ni 5.90821199043909 9.623150942832728 4.205649777594601 -0.33595730833447945 -0.4191204114172201 -0.5883702189873996
Ni 8.810703989868951 2.7557497502672033 8.770347802744116 0.6754033465485078 0.03551953306284851 0.09155801201465523
Ni 8.196456987249674 1.6728028001313384 2.565087796920916 -0.5575815157413171 -0.1924360158786557 0.7067191259426538
P 0.27794053988541034 6.563821901333713 3.944306805681958 0.28720147908701504 -1.604899819665836 -0.5952569188049038
Ni 4.830119366946787 7.423616926673136 2.941696203356895 0.00042988844856700154 0.6883308532434532 0.07884133577893519
P 3.660796661477098 8.489821966168991 12.101098979601487 1.2939531744430812 0.5260374223864489 0.26550522506050406
Ni 7.3548289116217616 7.181020113901065 3.889163309895184 -0.5570366989814406 0.06612234555037 1.0202983236922494
P -0.023750344731651656 1.2826822651574004 6.787476727015388 4.059209591409054 0.2632745359577724 -1.051575536538976
P 0.7982186273698839 8.199555298005128 0.038205757196938646 -1.0244907645070422 -1.1523337269956608 -0.7417396078818967
P 2.7178161295639187 6.5471811224987775 8.485429168308587 -0.1662534439460169 0.5765282320471491 -0.4504747573587855
Ni 2.0447747729946895 1.3965107086686375 11.390336379119628 -0.27956890224242176 0.513840880320257 -0.37944006210846265
Ni 5.2195503668861285 5.100720495923949 11.17088128148867 -1.635725803907757 0.18360170541647736 -1.3112685257930772
Ni 6.425574723797289 6.071797282046831 9.044124470400607 0.3175371539560789 -0.7649450994640826 -1.2990539860047563
Ni 8.115937682809692 4.782440317754534 4.9983466084074335 0.6092763730124474 2.541007884562411 2.2656059692134853
Ni 4.525381656856854 7.449203273356908 7.141546531620515 -1.1833407169001362 -1.1097387751432695 0.049224027133134576
Ni 5.652247391796303 5.075419157054477 3.6116328135103473 1.2971593400852046 0.9037494460602113 -0.1358581194836112
Ni 0.40920594535153104 0.4191334110896326 9.558240872815924 0.6014177961999772 0.8771094748751798 -2.619076860951696
Ni 2.5606021416758518 5.401504871815528 10.301646981215642 1.6936429879395156 0.8715528067230086 0.36291506787024597
Ni 4.367147157117583 0.7673908950431307 2.381237530336398 0.2887942774954317 -0.6908723887183844 -0.8292599594920687
Ni 1.311642736610465 7.394913881632987 1.9129402712800145 0.3736874758954016 -2.156281120133712 1.2926866490258317
Ni 6.571581468923042 8.152666915652548 6.12327245144955 -0.6486677303258764 0.5410048423295586 -0.6609648025256746
Ni 3.2514243083372176 1.9491592481972686 4.250701238615016 0.35170197276324594 0.22873562164063835 -1.0048596205396758
Ni 3.869661420356695 4.914803462995733 5.0732696465066285 -1.3697251272680733 -0.5534428109825953 -0.9289331444146905
Ni 0.44249301930167934 7.109483152511763 9.42384130077255 0.575950248056492 -1.002546399025467 0.41623923321468315
Ni 6.6177711224405655 0.6060654395887747 11.643350687194387 0.05017687796470713 0.5552047879790244 0.4906112203683551
Ni 8.553369514957431 5.844213945428048 0.6110769802202242 1.0309534894132504 0.33734236160746417 -0.09168579584177113
Ni 7.921700260464009 7.6232694974905195 7.9508335753657455 -0.9568213861845263 -0.07276093391281017 1.6681222179605915
Ni 3.1774142146238296 6.232817503325873 1.0691066029214382 0.3523866575350963 -0.551464861320618 1.5902329616822806
Ni 1.2518554522106935 0.4838301849357335 2.617498895210594 0.49406704012743946 1.162181823434334 -1.3459912739862432
Ni 7.899469650948608 1.2524162740388323 5.123218645032773 -1.7519548363065311 -0.7385861498545797 0.07584291527224357
Ni 4.4332873576361065 0.6276855807535454 10.329245850820389 -0.343552347072918 -0.07307178028500964 -0.26126701860944035
Ni 3.0073932626931845 8.775914648923427 3.9256296000448465 0.36082167567632695 0.5683747497020792 -0.22324554506034458
Ni 7.646686107265427 0.784476653820393 7.853129219103519 -1.7407067741965374 -0.7456471704664189 0.9783726299927408
Ni -0.03671176462197895 0.8986756074902202 0.23086000710318805 -0.4236164995153608 1.1421920105759682 0.9270102163603647
Ni 8.552137545695619 6.846301420506863 6.034785799529814 1.2558687088665341 -0.09613971784806669 -1.315838918772579
P 6.546123835445728 8.899837885341162 2.0578483572506445 -2.0528273851227357 0.6024444376922785 -0.24017240272267026
Ni 6.615343959118785 1.9184611484570195 9.552616105693708 -1.4141280788634807 0.15056637222806327 0.03276279625331777
P 2.475430774202457 1.652659183320651 9.175375165785992 -0.09486213668722372 0.7641205466802581 0.5682760193406858
Ni 1.1779832655042244 4.249926201236129 4.5694080091258344 1.3022141289002929 1.1305091749214013 -0.2864923688351324
P 1.341108867088901 2.837638930975918 2.8014024858377877 -0.08104065742309914 0.3090681972531193 0.7911577533037084
P 7.398398332007816 8.62047506452439 9.88316357181862 0.12485894015963014 0.2099089758524385 0.1565768400882013
P 5.76058713643215 4.008018923498655 9.07185756949209 -1.4988875798990637 -0.03423063904809589 -1.127401225420039
Ni 2.545450758515645 0.4983554702845263 6.295873183789634 0.3147112544715096 0.6335655845771153 -1.7584543279879457
Ni 9.339062508578852 9.176727573833848 11.6135048527569 -0.9718338004329586 -1.9608238009302297 0.9358470979257044
Ni 2.750923005025026 2.865183557157944 6.262771824608803 0.21231964217646015 0.6684544260345003 0.5938762364072934
Ni 6.40314185067174 5.965480173512468 12.890201953814 -0.6352128903725511 -0.8158868806192724 1.0668201214028723
Ni 0.5757911740497913 3.350551864910851 6.706014138648078 -0.5917051968979036 0.018486488839961707 -0.7753997191385034
Ni 3.6780626187434016 3.194441133078139 10.24943814653611 0.9075305103691983 -0.1722510562903485 0.5355497327522583
Ni 0.9036568085801473 6.663308016125337 11.91021085876385 -0.6194700257159976 -0.5575221232582914 0.6412002183042377
Ni 0.7440165767503458 1.8679504087226897 4.511869528318894 1.0097601431650869 -0.1487308616812213 1.4061381186794686
Ni 8.494915331624545 8.240302221649568 2.112062359810782 -0.41331974557504303 0.8611866329973362 -0.34465509321879356
Ni 7.676998067386301 7.88929211383796 13.084979052246762 0.2819877960965595 0.8988306686023553 0.27539883002513216
Ni 2.031223111114747 3.750371859371451 8.597047422188929 0.021161464568963555 -0.686582760204095 -0.9440530307752644
Ni 4.044876869547968 4.563756579982279 7.2339359518360675 -0.879421410837808 0.15457806449061767 3.1360557726803022
Ni 5.225397623979509 2.980556559146678 5.808292847645739 0.46999174434579055 -0.7505860025289331 -0.7221984525251756
Ni 0.9367563290008852 8.418891795610135 7.4121743226190135 -1.1628292272103458 -0.22658592228748717 -0.6955708226353181
Ni 2.6936272405502635 6.462947522672435 3.631251464314695 -0.3864537744221344 -1.6946184644789075 -1.3705465947281041
Ni 5.4776295396350125 0.091399247905873 8.15840660528053 -0.16313880957643517 -0.2507926014406778 0.13213027701006277
Ni 9.030785185311322 3.199001258106939 0.9410103004743244 0.19659143280792596 -0.566151002577883 0.3148678346540319
Ni 7.747670811532241 6.175098824029892 10.897858505470005 1.845975708039382 2.490109297940331 1.24533592765601
Ni 1.4942775827740002 4.626127322311675 13.450646836133805 -0.502293798912606 1.0130663247201843 -2.0568205654425284
Ni 4.744745735863243 2.3919142908120947 8.152109771344593 -1.2204090825073435 -0.4930062029630929 -0.9205045540313632
Ni 8.073094572660079 4.127814143509269 12.554325760941722 0.5200868612299687 0.18663894958090438 -0.6619490208158147
Ni 2.2947725951380993 8.033368160866843 10.595406374174749 0.1858298234160477 0.28514459655798635 -0.5286190670706961
Ni 6.612190485560562 6.479836534119825 1.7714761829621846 0.27069191146776606 -0.06008333844514169 -0.7513128533926288
Ni 2.7323239466918356 8.751091387677944 0.8156068621823225 0.9402735091281741 1.2097839986933294 -0.5121899749803953
Ni 6.769441248650474 1.6336096287648574 0.5106852760831629 0.07936712637541815 -1.1780311317617647 0.32797480434963516
P 0.7811705631745129 3.1633109247162094 11.943850974651713 0.5604135858734736 -0.15320175296838132 0.44444114957019587
Ni 3.6504996049604523 4.100802757753998 2.6708119053255257 -1.156059769696996 0.4650048326541605 -0.2100583569461092
P 4.7355795168033366 6.8905787635284375 5.036575350105525 0.3469297481855832 -0.17912875724678828 -0.17103723848790542
Ni 2.970066432820345 8.972468908985356 8.399929582158723 0.906826028103006 -0.6904615264332108 0.6970065266405803
P 4.562009757894634 4.662874942755452 0.41415220999970537 0.7269722197647351 1.5546092989414 0.09506448250601693
P 7.307885366466412 3.1814962620286424 4.294029781428986 -1.2808477474093747 -2.4362459722629715 -1.0606178492469023
P 4.7693575396981185 0.6903045556953947 6.037557730368894 -0.2638224380414424 0.6435381224087949 0.9814834077075806
Ni 2.1802546165922654 2.2027978153233496 1.1027264924482854 0.9588602709914259 -0.5993100058283549 -1.7824159810098656
