# total energy = -340875.36046923837 ev
CRYSTAL
PRIMVEC
9.17537873094410 0.00000000000000 0.00000000000000

0.00000000000000 9.17537873094410 0.00000000000000

0.00000000000000 0.00000000000000 13.42909423423175

PRIMCOORD
 96 1
Ni 6.544834359833626 9.020580929517951 4.890675058899845 -0.2577374081896271 -0.7858329986566853 0.9041130000472171
Ni 4.934105796648177 8.10939241717769 10.22640278133048 -0.2590517561256764 -0.07658262165174554 -1.133421977692822
Ni 6.451621687170148 -0.24052521347917666 0.8546654266616682 0.43430354691556167 -0.08892520237749846 1.0631724973479562
Ni 0.26405547226896803 3.617695857444065 10.878560258802159 -0.04285129083757136 -0.7891188684968087 -1.543874171912083
Ni 0.3196683603761251 2.7340885336092096 2.056088601904172 0.05937165709009775 0.7348665349111473 0.7248058082410356
Ni 6.514711591416045 0.39118860261229815 11.920993388701078 0.6947920354877647 1.5209386461618322 -1.659653775478264
Ni 7.711648923990454 6.484019949516317 4.216627880357858 -0.899735954025444 0.8565100534572733 -1.7681304176251293
Ni 7.672323250692328 6.225210041275473 1.7589696523300713 -1.5694108827306068 0.13655154600620997 -0.7577290413316176
Ni 4.790593697708373 1.1471058506140437 -0.02363669318322539 -1.2795269717154223 0.6927999447584003 1.3936752103257675
Ni 3.141383596069275 5.802307659571331 0.8127256879592868 0.02153401741703388 -2.602763468503653 0.8236752663154395
Ni 3.1631842959657637 3.922336782512754 10.364964763437724 0.5370738827062685 -0.248399675728469 2.138262314958788
Ni 5.77847920097235 3.85438392753237 10.211348737424684 0.9213417052206777 -1.0742660361579563 1.2483538885467274
Ni 2.5812817760014166 7.617564590346267 9.702909804914556 -1.7588371652486612 2.841480112616403 0.15373242866087075
Ni 1.140490402539394 9.13985167781528 7.609716888906255 1.1642441052800012 -1.7999794438149257 -0.6688012678509578
Ni 1.2095259522116069 6.118381106555434 7.486263085439394 -0.1884621188325722 -0.9673528818434693 0.08417817461081632
Ni 0.4815440623347974 5.406078103876907 5.288820433676081 -0.05917213948478197 0.7046077360266059 -1.4708131902603507
Ni 7.610481197955656 2.171931428702625 10.33204992726825 -1.1274302788857615 -0.49955146028077835 -0.00036638220048324
Ni 3.818067778462378 0.12180315283075853 3.312380542037669 -0.5744728921800171 0.9011929981869448 -1.140641378259397
Ni 5.747521473089037 5.642867103131399 8.759731334582247 0.9708842920354956 1.0960977873210673 -1.0956087634997906
Ni 7.591836828347212 0.5118530909408874 7.333333377756428 -0.8889854003771593 -0.8670544046320228 -0.08828936856571247
Ni 2.446532163762432 1.1933130579704054 6.127924417987394 0.5902329832277512 0.04773844372654359 -0.16720243812284752
Ni -0.1912690277660798 0.804298102582635 9.25909214736275 0.6687148787847387 -0.6666027175377423 1.5120056053382604
Ni 0.35492200058752554 2.869076705695546 13.012724911055313 -0.37964523614073326 -1.357395659168443 0.7979117841980903
Ni 6.11956473041345 3.7575378048861436 2.9903238305743995 0.3484086467239548 0.9793337083544296 0.4453670038185749
P 4.652641878287623 5.6600984644132195 10.634096972765922 -0.46461351075301277 0.9896456318033987 0.30458162223667545
P 4.403411065455843 0.08882408901007338 5.347156574194551 -0.644809790032367 -0.39518369809596454 1.153406134124233
P 1.829974238280814 8.27727432206239 2.497127037234324 -1.1119144426383496 2.827945825575394 -0.5230819393025508
P 3.3572435564079885 0.17130065100483086 8.402691656580533 0.9636579494903856 -0.18833382078482402 0.293813585086894
P 5.112199898075298 5.759908234393859 2.4269197916964624 -0.2471256941120518 -0.8472507396425344 0.34327441082118304
P 7.999214469215976 8.332418348315713 3.1245476936113348 -1.3798208209411784 -1.4206108583743469 -0.45038116920371474
P 2.014215843466624 4.090136108988755 8.580237987896618 -0.5484211893982877 0.6967820693346 -1.1142916846212745
P 8.13411088751487 1.052764606365015 13.188270092267265 0.20297908150182462 -0.2281535238849232 0.21898239890861643
Ni 0.16721485484998813 2.947994138275385 4.89039245723452 0.6044933498015073 0.427927725296205 -0.6884804914474401
Ni 0.2893776825275237 2.0457149186958516 7.4781116789629465 -0.08453427239865442 2.6238128329747847 -1.7040186747468848
Ni 1.9444646142523547 4.626693907198706 12.296726065818579 -0.32190957199216175 -0.05547720713169801 2.0676017152184327
Ni 4.985790705114893 1.4728776729308861 9.70295017658103 -0.26949686271840034 0.13745734564993103 -0.554415973529142
Ni 3.805268125114061 3.465384570288465 2.4767677893385676 0.16903794866968952 -1.8581357404406835 -1.0519164648181625
Ni 8.579997592973518 8.330381414234475 10.888443976785531 0.4961758589403261 -0.04079749363233619 -0.7927335824312606
Ni 8.335216838832729 7.818441157195516 13.255872447779616 -0.13901697682756706 -0.49543409567829516 0.20151252425862715
Ni 8.180712636157237 6.023085622916997 9.897416823839503 -0.6911940337238612 -0.9621391988530138 0.2517030290700891
Ni 3.704274731275405 7.9784781132538285 0.9625596228539223 -0.00704302288971045 2.931405474123642 -0.30478062562135894
Ni 6.98701421227957 3.0083130781405 12.452221209398456 -0.5520377031049525 -1.5014777092237432 -0.8526310301178412
Ni 7.1615757928901305 2.589796527476139 1.4371414077975349 1.482796587874472 -0.0759185057051854 -2.2011993208026412
Ni 3.3323324031171784 5.892703490960304 8.800233291435394 1.207125992245192 -2.498247096556117 -0.7246669686703262
Ni 3.0956076315138965 7.548262954690468 7.129062838309656 0.012871713756345573 0.6600006388401923 -0.9634484045827408
Ni 7.072225954678007 4.650779276402528 5.1489298567266575 -0.5859204718953264 -1.7486499403030145 -0.3779984445659297
Ni 5.036291989723594 1.4480949749424958 7.033407679824442 -1.1236178471182068 0.31053578293758133 -0.32262999509795404
Ni 3.2407804740064208 6.879937542333434 3.010829884530065 -0.4076023834752916 -2.2684763487827446 0.2402726757459604
Ni 5.4156480239072256 8.281816134540824 7.141834047983866 0.21332520062283908 -1.013335262110855 0.04165907030168309
Ni 1.4819062456152905 7.20867301198469 0.5798343895953788 -1.5646911086574342 0.343118344859293 0.058999618462659685
Ni 4.298307101939734 5.4601486108171455 6.563711784062177 0.22229140867719138 -0.13726708401599585 1.312559476690359
Ni 4.56631073968238 7.086053250445688 4.792843500576479 1.0620877489242095 0.7306779507510964 2.421643391858449
Ni 6.785642174978127 2.71811419921536 7.908071761997214 -0.039154301601958375 0.44430462399233156 0.48031189532487595
Ni 2.132422247829612 3.8603387483374294 6.3504172596203725 0.03537169463107457 0.17089711336561536 0.45592678161229216
Ni 5.414216664823113 6.617971303804547 0.4378573315194986 1.5683094221363119 -1.3064109405904598 -0.8400904744486692
Ni 0.5355861256009281 6.454677088292004 2.991182646024867 0.8802734744254581 1.1930808270060356 -0.22537493269852152
P 5.5194123821266645 1.462564547222278 2.134420645320123 -0.9451570624727207 -0.2388493130358725 1.1209238452258115
P 6.712954824565678 9.321634281497614 9.393275638733213 0.739428700360533 -0.2517505944785729 0.17221171841198082
P 2.5176872259245813 6.049272153853267 5.062284920168358 0.5996169955458125 -0.5696392182367996 0.7251801608613188
P 8.006380440015285 3.9392561809172677 9.131247007628863 0.06813217689154719 0.9507273574716466 0.4837661724220636
P 0.3623797484309033 7.561769112202097 8.796056659030983 -0.00999619198076343 -0.10099756016100025 1.6573696074297781
P 5.553186951284481 3.6024739041072493 6.1928805942698855 -1.14774199385992 -1.2411175186992884 0.6739658427710328
P 1.1895144511702598 1.4348732541719404 11.10128156736587 -1.045337011828432 1.2789160776043007 -1.623600481399133
P 2.219322259917003 3.4970671530925785 0.9700091128564302 -0.44542999584602644 0.37887390519234754 -0.4713372026300915
Ni 7.28168150065319 2.149387523127847 5.6101917443471505 -0.024157056862177752 0.20262118394177364 0.5333020743686622
Ni 9.019755145430963 0.3348820558720709 1.6665368868598596 0.5713590291413837 -0.5098955225192638 -0.6335355026701283
Ni 4.352643694863557 3.5863527636534913 8.401040088406557 -0.15049798088397306 -0.21319227458940057 -2.5297446529437657
Ni 5.162224062989294 1.981056024684676 4.408113447062303 -0.5203383151191425 0.5394318414154838 -0.15571577763948666
Ni 2.7222889965440227 2.2250843977684314 12.560836590360013 -0.11381836607475236 1.142224920696433 0.0885891591943184
Ni 1.9405375521497885 4.538555218980832 3.287845579275376 -0.5103200116511921 -0.24368272986877385 0.5940467005468866
Ni 8.353741928517497 5.3560355882054225 12.288010373549355 -1.03543569355432 -1.661044485178204 -0.1452657859507563
Ni 1.0723081630904021 -0.0714762004182003 12.536328236196077 0.23839936998264746 0.1929813468591644 0.4696528729491331
Ni 7.559640424333416 1.2323175930124812 3.3878517023611434 0.25165160700686334 1.3530481808330244 -0.4400677030928486
Ni 5.627544220628396 7.828460670784307 2.8982002753678713 1.613895595406543 -0.22729708942189886 -1.1009129493215233
Ni 2.1322662663909586 1.0604627491314937 1.134500715295106 0.5315794352506006 -0.1936776015952406 0.8585913614663343
Ni 3.099727376570093 0.38865528054099324 11.111514867279402 0.7953154842258239 -0.3670761412264711 -0.20408799829528723
Ni 3.0381789359532396 6.651562365387478 11.917475548490508 0.7828317499365164 1.225112915740916 -0.12975149236524106
Ni 8.523945204224507 4.301867148892528 6.859863648716626 0.11809642462481598 -0.4296470219801568 2.44817511960039
Ni 1.280506682177614 5.635673606195858 10.228739750296656 0.9149563705196243 0.2021038779857229 -1.5559740404994105
Ni 4.406530694228909 4.659661043027023 4.370565962164824 -0.5613677222566267 -0.10422969394505276 0.32537541905357514
Ni 7.505478163605735 7.323548753863492 8.131236241354276 -0.579905376049498 0.6747777971493668 0.5750760729816546
Ni 2.36545851717768 2.019904578288098 9.016039117039517 -0.33688393391380694 -0.9516267293574644 0.04938780640450849
Ni 0.3391018125565806 4.9426939511528545 0.9902912875707347 0.7794749176491415 0.0706909387576589 0.2167725357414912
Ni 1.93343580900169 8.167096374100675 4.810032655116076 -0.4601978981838204 0.10424846299813015 0.17952393580267792
Ni 8.306406149575585 7.685150430176877 5.907431808920677 1.6989713421309642 0.7819226078586856 1.3594078045024651
Ni 6.604951441366366 7.290067796825493 11.568372573102625 -0.049507619811824416 -2.6594894604407875 0.6229893517231658
Ni 4.5089187456367 4.086970603321967 13.533975424906128 0.8524155716729256 -1.2329684072295926 -0.8471057294242378
Ni 1.2446126005298608 1.2181599836100057 3.655010287721438 0.4995715148854364 -1.1216671511497391 0.43973731633662333
P 4.804714605595872 8.341602902438769 12.459070629631086 -0.8226650798833702 -0.8249885858102245 0.2561086143369525
P 6.578682332021398 6.301595069321881 6.472501179040706 -0.955537120155464 0.5956055603935743 -0.20968991786309696
P 0.63904677878393 6.658352145658269 11.940707607471108 1.8105235378793592 2.7796839052452125 0.8664897903778046
P 4.733752226387353 2.384772689434459 11.696445262229371 0.35915971459287177 0.999895077445549 -0.8426001282444004
P 6.671289429687751 4.7802071689698105 -0.09151798020940376 -1.3094540982921576 1.8441527958980304 2.0984755219791538
P 2.792783431436581 2.667053216503257 4.565153724422722 -0.22371425716664697 0.6587955627884977 -1.4146674963067185
P -0.09083624956870129 0.5333188895132083 5.657583493099404 1.0559530967813815 1.241652565267152 -0.47520799843940736
P 8.272053531556876 4.4556281458897296 3.0908804763848265 0.9026734393872131 -0.20921477799889127 0.015317089973044587
