# total energy = -340859.4718360785 ev
CRYSTAL
PRIMVEC
9.43660185040077 0.00000000000000 0.00000000000000

0.00000000000000 9.43660185040077 0.00000000000000

0.00000000000000 0.00000000000000 13.81142067439018

PRIMCOORD
 96 1
Ni 8.835848838834556 1.796427007930103 11.160995433336524 -0.6837766582138675 -0.061652739814790594 -0.49821988595354844
Ni 0.21890368250471182 5.381797798577623 10.925621106082477 0.8483974516524678 -1.1162189835509744 0.07884750642652227
Ni 2.379618434625179 0.6251305159923518 1.0191001474260732 0.43506793588541204 1.312191808938295 -0.2558892992372948
Ni 0.31306020775961274 8.9317435861376 11.139946149402832 0.5393950746402774 0.4592797572449251 -1.8272254240150723
Ni 3.9530396692561767 6.0182965887360815 10.604063238418671 -0.9003057104859848 -0.3650909924756422 -2.275815305646319
Ni 5.971604283121492 4.331607822922401 9.37868652533164 0.45530791708137075 0.9194797123112746 -0.40844416265029654
Ni 2.098700236193346 0.3724428554498892 9.58518107649375 -2.0299090857636655 -0.5907600593758148 1.553751064706163
Ni 4.554726835442884 2.7949232790265697 6.988882222743568 -0.09095251722017239 -2.18546494078652 0.501158399756582
Ni 8.673737456831114 0.7508147277990602 1.960655019713123 1.2997237583782713 -0.4937770196908464 -0.23422724088282887
Ni 7.4789787418841565 5.699358321726807 13.287235448168838 0.6437610370528783 1.1493504759976205 1.895961810149522
Ni 3.3797849842369616 7.938739417277933 0.20369093677284447 -0.6755473283255398 0.6938751801004501 -0.12978183138254423
Ni 7.926547327776307 7.777552822249073 1.7037350432716822 -2.4592905127872617 0.23947434821438116 -1.0539453223227333
Ni 1.116585905789468 8.382193644793375 5.535313380018347 0.7771830362911711 0.4109792703673245 0.0650530237455912
Ni 6.5075277714933115 2.88113607290185 11.396259352349725 -0.3094708320081767 -0.0358666319896221 0.03096739491579183
Ni 3.5996483691428462 4.6080341989062665 8.908890967603474 0.6340911180632821 -1.6754272362624374 0.31715688779852474
Ni 0.8119780622454954 5.59442330991714 2.2441211006259465 0.6844598003238213 -1.1065413512518942 0.5668557419543915
Ni 1.332410425132894 4.665304935117856 5.838087691836185 -1.5125103128888209 -0.8510408028125859 -1.3357289728282866
Ni 6.66577014676636 1.513838530982954 2.680589411842583 0.3218229258156264 1.1294781625537258 0.20535400949190438
Ni 5.481297327761178 4.247112490571344 2.39883701781327 0.44306689493048856 -0.15191105918141581 2.6314330685242036
Ni 5.8306403257102675 8.339360909307395 5.19222401806982 1.3271913676709206 1.4069819547370028 -0.1584668580220626
Ni 3.8558143611019497 8.353864966245476 3.733903846347641 1.2970575244000178 0.25782508280742694 2.100873589897685
Ni 4.939910046957902 2.3384465410527353 9.32426941749876 -0.5000821359732679 -0.6043272565372882 0.6971487086453994
Ni 4.314499263892642 7.098372282233139 8.085951348728653 1.493513460071344 0.3905305155946694 0.6442647161621743
Ni 4.203581446553539 3.3309222602126396 0.6840366152926655 0.25581345169403685 -0.5783454877615458 -0.9234903761325645
P 4.596804642786347 0.7893858939205382 5.418813812725519 -0.07306586674773868 -0.5753174995684995 1.6377574896258054
P 2.4387104349805875 5.036890003465812 11.806002263661131 -1.9972961848246504 1.6350164365455584 0.9594793926326637
P 9.60646061351091 1.885282050304188 13.174714352187067 -2.3819938957876268 -0.9782093649419994 1.6531105750431079
P 6.930325277709168 7.485499433715135 10.483117144366428 -0.8792553175735889 0.3805854885668155 0.14014414845347478
P 0.06502479189540238 6.4017151557179695 4.390692273996384 -0.07342427852842194 0.023769848726088096 0.44535234853055555
P 5.6038882215039285 5.26676562286181 0.6139103964742139 0.614819928538496 0.1974805202810986 -0.10327812866506082
P 6.667912255370749 6.5885504343887975 6.672711711036792 -0.28623834384279734 2.396339108765705 -0.32771666559224205
P 0.11927675919710726 0.9447265141457933 5.818834193221503 -0.36907157438994503 -0.4931728104479442 -0.27182293974841576
Ni 8.97942673493924 3.1818050788622476 1.664579751499933 1.4303903063586139 -0.58977481264441 -0.2870780661352733
Ni 9.338612108546378 6.763778692868447 6.681702905214152 -0.025772995199045936 -0.7324396706372096 0.43920535509255326
Ni 0.5040872249417582 4.660973534900173 13.514696241168963 -0.5434126804401028 1.2078734119341779 -0.07402360267531767
Ni 0.37366867002129894 2.6215917775049893 4.3302668818092585 -1.7452008054121493 0.07140107745080607 -0.7015388672932951
Ni 4.789037657676161 7.653253903583881 11.592243416447666 1.4813444288089779 2.9667260038018064 1.3357202310775382
Ni 5.65738431700294 0.511596872639432 7.362867962584724 -1.0494294367302508 1.1070398881548678 -0.8100263080734372
Ni 1.4982209550346626 3.2482670652089642 11.190938714449226 -0.906268355827323 -0.3307775639057529 -0.21959072191657664
Ni 1.6807248334878069 7.095682850725428 12.572494961659885 0.16826558928003926 -0.8859496988746292 -0.3836826394349005
Ni 1.6069400441586894 3.6955619896494523 7.872399163094197 0.43687259319431854 -0.7295381807196984 0.9232427788981324
Ni 9.198393642675887 2.921902192597692 6.562095864954695 -0.5883465648383158 -0.30808809272803717 0.6858613086570382
Ni 2.1603118092243996 1.715574203866683 5.600655241733606 1.4795662538626326 -0.027492291882997812 1.0701299025023956
Ni 7.19052069862895 5.72622432699858 4.692291728892433 1.0407571057672336 -0.12384386863155444 -0.4106517118245766
Ni 5.085950896127544 9.038933945773032 9.569795640949284 0.7874273397269986 -0.3346635292237204 -0.6992986651088665
Ni 3.297988519995397 1.0836427289704438 8.017874759817131 1.358845761351408 -0.016341160362184762 -2.965886281509331
Ni 7.08479301226964 3.2975072533045435 14.091792566773405 -0.9055039668574728 1.2022720065870003 -0.1469909961719791
Ni 6.388777574675609 3.2840884055713286 5.018655657843526 -1.0714427077765483 3.3102433838717316 -0.8435997731535085
Ni 5.815126552381573 6.850519936443489 3.096258509072737 -0.3949219597941457 -0.03776307768138658 -0.4162541456130186
Ni 1.8991821647282565 7.308468784295228 9.548359456342554 -0.015477012589676572 -0.5762618657596398 -0.07588225315061126
Ni 0.5939114063187978 8.986636298700263 7.783440318100516 0.03108875098500452 -1.4937628570779886 -1.0913235058608752
Ni 4.6098271532447415 1.89215189640108 3.7366112073987376 -0.4696819264148557 0.7497581073109991 -1.2830208438012936
Ni 1.9503191097819064 2.784920481138238 13.56375430285016 1.7692326495503725 0.7603214846491421 0.7382760748133285
Ni 3.9576258577219585 0.9930607884703542 11.161270982108542 -0.7261011300136915 0.9600242093925402 -0.48043710804883066
Ni 3.855399150623566 3.871611232484088 5.246682646950538 -1.2495530510611512 1.2571005243911062 -2.0230568387285226
Ni 8.021064331219259 8.792846244516511 6.036529990698189 1.0823881510444586 -0.747966305517899 -0.38352014571510723
P 7.8596795675529885 9.156249779119955 3.7480738475826585 -0.6598903385145732 -0.009694087359312337 -0.41601297613649
P 2.5358979967276887 8.432962562377547 2.283925630600259 -0.8092894299074127 -0.600641837265901 -1.941519701284979
P 2.239116870701246 3.8691577160209127 1.6015168291148931 -0.453143048219568 0.5247343873043092 0.12098660168841742
P 9.426504617538756 1.0306656465694122 8.95352986867042 -2.027815179349114 2.4060185408369983 2.953736276410358
P 2.7603286968957925 8.627450925093127 11.300656196041729 0.03560232258464191 -1.4745253490046153 0.44740023219851976
P 7.275657719901145 8.437076920754258 13.285978492811548 0.3660276453572986 -0.9575801187274219 -0.3918106678586736
P 7.9925657938392956 3.561826469202815 3.49043574574565 -1.0662213114766088 0.604468667211159 0.452841200708433
P 4.14246057681512 5.5957444341665425 3.809244731310519 -0.3144451452943165 -0.6060619798402078 -1.6843661906232799
Ni 0.4562691327346424 8.991458402210583 -0.050012102121301694 -0.8247556438638117 -0.3860261999664126 0.016494141000281272
Ni 6.277340744238526 5.466038342680582 11.370555936417427 -0.29602884757065795 0.6969713025272706 -0.5847876438424638
Ni 4.26230541943947 5.820580908211249 12.886345012988604 -0.40963072675923 0.1824735053493051 1.3612579703373267
Ni 7.903522019429581 4.95621649483624 7.001685804040633 0.1592908965852547 -1.9368266666846838 0.9533781648309322
Ni 1.3667313458120094 0.33535417946827634 3.6746108463742884 0.8059994463022312 1.4905986004173943 -0.38590535811783216
Ni 5.348514904094467 4.8492620502453425 6.8093621977737175 1.0981461852096637 0.97091720215596 1.3571025534080563
Ni 2.4123068231961042 2.844720226627254 3.4937781900966374 0.5394225854441033 0.2823552067383073 -1.0485979419678908
Ni 2.9371894874836326 5.670067109797202 7.099180999005809 -1.2083665495205125 0.07361402594172484 -1.191999935237031
Ni 7.077290913853391 1.4023450809351823 5.384272075564718 0.9847386814200847 -2.8244349842086582 0.04430473545464628
Ni 6.167206164847283 0.4891424787004839 11.57428839423811 1.2485210102522108 -1.0595981497331366 0.07638644648053941
Ni 5.551590574431161 8.108617122547503 0.8320346156717784 0.6895847802552124 -0.06172395937235821 0.026657968907160542
Ni 8.766782350396161 7.196475194353041 9.390067067080063 0.4597721235003114 -0.16962107486666916 -0.5444472923522043
Ni 7.10745972974867 1.361994171717724 9.267035484034118 0.9459687597407386 0.7482650677052404 0.23458642399446053
Ni 4.122417234631331 3.884010927224907 11.600502330326783 1.3391256572146615 -2.886148144947739 -0.6924003953271366
Ni 8.949465524283154 3.530581880704451 9.26714589227496 -0.4306888329811099 -0.4597484693512276 -0.2675968174822101
Ni 3.431554181609968 5.87440728477261 1.3985855387854547 0.31519539319677975 -0.662745291464865 1.2770327445386587
Ni 1.7355231800326576 0.9648453491438339 12.071871913232094 0.6646129408012231 -0.026693193020470154 0.3652977091698096
Ni 7.745279644156532 5.287441217364956 1.9207400814979672 -0.4364434760767 0.24551566931245458 0.7210286005867905
Ni 8.807104949808275 7.179498747748221 11.897626948658072 -2.847606023008483 0.49545697849643056 1.7847340876200812
Ni 0.4729851291302939 8.014949413264882 2.5082780069735775 0.7248472030019323 -0.5651441585799235 1.3648634283003978
Ni 4.541223058293637 6.610877434203696 5.5438355750871695 -0.39673407330221994 -0.27041603209856013 0.9211565857930651
Ni 2.2321715317901027 6.479548247211327 4.783102035155633 0.9267302232261007 -0.039427095647370805 -1.2349401862439828
Ni 7.3074873777099585 8.798810176842386 8.230860749344698 1.0023381396694029 -2.3689095517998426 0.9608441341906742
Ni 7.221359513250711 1.0676571255526761 13.659384825303324 0.4579425264907404 0.09890082553297162 0.5107025918015915
P 8.167010814371086 4.111300917732789 12.062189959804332 0.1818153029400159 -0.5738478570015084 -0.5744507806928301
P 0.14138577351085452 6.775498952281002 0.6159298292554432 -0.12274266514757572 -0.06473729227738528 -1.3546157824304605
P 6.604347305770935 2.9904119215309817 7.780595182663411 0.8891340101398816 0.18234289330871178 -0.600739796296346
P 2.7210629968832003 8.370907469062765 7.590618459259541 -0.4528476284663362 -0.00011030032561916486 0.22057545442734913
P 2.766594600478672 2.540701227034444 9.644749625239124 0.4821083251036664 0.250799029198581 -0.6969196233537287
P 5.109325358740183 0.7858037598843016 1.4435830307200967 -0.7301709292076909 -0.3148017573027869 -0.20103352773967959
P 4.83944798439264 1.9415525067269441 12.82739833630063 1.183890161645703 0.968877546018112 0.6265629280070371
P 0.655970274274292 5.435246711067727 8.800982482572474 -0.2375424212989909 0.29954277426118736 -1.2029762317428765
