# total energy = -340866.75747417274 ev
CRYSTAL
PRIMVEC
9.30246086962695 0.00000000000000 0.00000000000000

0.00000000000000 9.30246086962695 0.00000000000000

0.00000000000000 0.00000000000000 13.61509178985534

PRIMCOORD
 96 1
Ni 7.804829603329122 3.1083707141947676 13.518424191263138 1.6508842568157507 1.2937996795843525 -0.9444214698582767
Ni 8.760155102333883 6.166284881819057 12.614205480828353 -1.2049693509135053 -0.8866498102654471 1.5397097561217483
Ni 5.701087429588882 0.44353016088210057 3.6600084912852298 1.3795282294014242 -0.39602059217496316 -0.8865076282606281
Ni 0.5030045128075605 7.515653311535264 5.969278300400375 0.49230686290322306 0.5914334312937556 0.5984700264255628
Ni 0.7422228699218283 3.877749327248701 0.43089462857998395 1.4616148115905343 0.406409648718771 -0.9628223409629676
Ni 2.567014016615679 3.9811554798440985 7.001397472570441 0.9846317235285753 1.737428874776214 -1.1266298944716533
Ni 8.359907430368287 7.988943904531721 1.5857495363319505 -0.38167872163099426 0.6321044266505566 0.2998927014014383
Ni 4.75382716396845 3.3371554314429863 11.750341774943234 -1.6733330727375697 -2.034340639172458 -1.1565523930626984
Ni 5.214633854771401 3.789859679019004 9.240862547207303 -0.36982825005031145 -0.19263347660144242 0.09205860580015758
Ni 4.117650484974745 5.3795757845724985 12.702989095526602 -1.4598651758892793 1.4725674539472962 0.1318572258543342
Ni 6.905495614982124 8.90163622637341 9.801054867112333 0.4388430866571282 -0.19042644164779465 0.5110574040378488
Ni 4.822925841683331 6.560904565090859 8.955149561513775 1.219459059889248 -1.6519805752037227 -1.2377753416999329
Ni 6.202043540561115 8.854937873905897 0.5988710210454039 -1.4617713917730568 -2.5119639319215774 -0.7710267868817883
Ni 0.003156324898850154 0.59014345246273 10.029952144134427 0.5214192068881471 -0.2034969016785076 -0.8148275861168224
Ni 8.32353480922327 8.969953497393616 7.882226075944605 -0.2066693858692183 0.43425623861739404 -0.8456751676252984
Ni 6.014180347716201 1.8603432908094581 13.177380169618061 -1.3494134122939148 -1.7026279650469451 -2.423685876209774
Ni 0.6936500716331572 2.9869270903972764 5.226724262879375 -1.1761925358911292 -0.019535241819450228 -0.2283234738038842
Ni 7.563514471584141 3.494878651778985 6.336027811562083 -0.5015489503267814 -0.6703662983452325 -1.7068738848074925
Ni 2.629089336539131 8.760164404794534 0.8236259123396533 0.04113533658772916 0.010207279550305003 1.2241898897060142
Ni 5.7489206822558065 5.187107873705391 7.3188337095756655 1.0292349640602467 1.0910519973670436 -1.3138028621791566
Ni 2.654857152542122 2.1584871546707824 0.4742254902918732 -0.06929200152760324 0.35709948962973337 -2.895406944541846
Ni 7.656418146104674 1.0652433740557878 1.0723792916210928 2.715731827873284 -0.4325749942602292 0.8366572803974043
Ni 7.062121144961317 6.887830242206066 10.902162017715531 -0.9110920024682116 -0.5282817383359354 1.6583484264032795
Ni 6.313273062563918 7.677823108062393 5.2759845130101475 3.0123301747941666 0.9893026466416832 -0.8911818938078457
P 2.113751621400608 8.7324151646729 10.471285063810784 -0.23581438286429066 -1.3084032884301402 -0.48459972406695245
P 5.88549010707166 1.643698284710663 5.514302391933408 1.1323904511045142 0.65292984803634 -2.2523005103538307
P 4.144218312593713 4.739733936082338 5.5192717664131195 0.8280021758255676 0.17732795659262363 -0.2128541745236915
P 7.810550616629425 8.529193609293353 3.7502088707406105 0.5216058689776566 -0.021820181198885003 -0.2021802397496131
P 6.254490813710884 8.104517675658496 7.838085900156087 -0.8141225896299978 -0.7151400030164974 0.10693115203661584
P 3.3763001858619712 2.6414523067441755 8.326295779544457 2.0775829948008604 -0.9106705986600768 0.7942538757305289
P 7.5998033705833 6.004245319741041 1.3633332836453371 1.2669745889717081 0.8256902398629393 -1.5703323661036115
P 7.884440061579519 6.495591988860895 6.448298278911722 -0.230916431342041 -0.34879302664656703 -0.8457659275668917
Ni 2.58915387296482 6.53847633246154 9.879082976806012 0.27307763809112323 0.9784898722968954 1.7413464646630654
Ni 2.3076149013653504 3.8896285694998993 10.152242291851149 1.1412898104766733 0.16895438781694772 -0.8798230171516009
Ni 8.243412715637074 8.744685110271437 12.783794919970639 0.3839834585047709 0.07928896483931507 -0.21932255585685453
Ni 0.7319445811486495 8.766071467307855 3.3754806390786265 -0.13731182121100224 0.0031321178710784765 -0.3863265048156508
Ni 8.088889541764985 3.7000072115919673 8.478607758519829 -0.26036918938551934 -0.03513798135371368 1.9800947333446992
Ni 2.6804110119501425 6.399078959607814 7.379338774141245 -0.7602340671416585 0.20028765071259055 -0.5861261601482293
Ni 5.255936780061394 0.6971924486490196 7.223826748701965 -0.24330040682869064 -1.4328469954292227 2.0036218699323625
Ni 4.96700235224446 6.335571060744123 1.213631575128609 -0.8326520158927531 -0.4723551023716446 -3.6630679002751942
Ni 4.0183095076837905 0.4123715689319131 5.243920791638628 -0.13098279366918086 -0.15917211161920328 0.6205830562745183
Ni 1.5741158790419356 0.8116610874504665 5.286059077895072 -0.10632977100719107 -0.8981544684709372 -0.43701914607451187
Ni 3.137273459437112 7.6513203976679804 12.42722881248347 1.1245524431173342 -0.5592802435999787 -1.5090205545680075
Ni 0.19314978123281873 4.802525545475908 6.807259770016497 0.4606822940194066 1.5319077435788262 0.5968754282449333
Ni 0.9755025361565617 6.674887615446329 1.5094368003822973 0.5922276450602768 -0.7161193362106312 -0.07544310873066362
Ni 3.1179894585077976 2.658466507274671 5.086420830358251 0.368661740546036 0.3607391432648497 -0.5349015576452982
Ni 1.5320873618211726 4.349402687170601 2.7916107660788634 -0.5180803723229014 1.19221385102005 -0.5174018581986379
Ni 6.465982256609082 5.293462906327123 4.778393102055345 -0.15967630494913146 -0.27254541973673707 0.07350115451294437
Ni 3.6635601707617433 8.533956469146613 8.804825518379502 -0.3763362263721583 0.7005785602625547 -0.9646416535598934
Ni 6.987385176091991 3.3789699920687792 10.932959674192466 1.2747732590805207 -0.791195034299547 -0.44162707716016847
Ni 3.00795995392896 0.3826455559219642 3.2317464590694502 -0.0464210104667007 -0.7100093666581514 -1.013151685345139
Ni 4.539731032088001 7.35393933558003 6.361977955793831 -0.9496647205350871 0.019014336318973705 2.310961514530149
Ni 0.13899085532328265 2.861715970036171 10.615291805917032 0.010456933667265862 1.3594543414696847 0.6348904740361259
Ni 6.440251650448694 4.456678663396772 2.0182060480552204 0.37531678396870843 2.19633865027623 2.148924936878957
Ni 4.124571515699014 5.088985518759704 2.8535325954015747 -1.6751804103589534 -0.6490037735090565 0.7848816904870095
Ni 5.081720296991351 3.1453572977427435 3.7335444427305893 -0.2767494305157556 -0.6079779659159981 0.3857906869168388
P 4.55554521519453 8.300557731415548 2.0820609287011886 -2.109434849204135 1.6426492705004678 -0.44047419450264785
P 6.363813331280254 2.5368089268822085 1.603326535731825 -0.5548965127099863 -1.897279757629997 1.7385365060180962
P 1.3101306506907135 5.408487832275493 8.762332808372259 -1.7164892964100698 -1.3890086580880336 -1.5180222438459856
P 4.112310872561128 5.109664888786653 10.609274044121966 0.2928363087752892 0.6198171246427713 -0.7500558410570759
P 8.384614765857076 1.359349969994622 11.799505279483236 -0.6476356895169363 0.6338836300381663 1.2142548899804895
P 2.0660486031827956 2.5464555785771914 11.786924631698962 -0.09222649883658955 -0.3700797039394852 1.7453872103913426
P 8.774034373625025 1.7436532244045766 7.13678548488363 0.9174570254542908 1.1096675555857018 2.092274278264448
P 2.6618246955696456 8.440745813424602 6.274310636373691 -1.4641494050869301 -0.5629373807365918 1.3128988623076485
Ni 7.893742522230418 6.430046851114657 8.586384207129017 0.2087064709039051 -0.025751397932491135 0.4264164308580011
Ni 6.145419462579089 7.178504230164719 2.750752498407983 4.018868725698162 0.3623085446344986 2.6805393391325514
Ni 5.0018307649214275 7.873156176809977 10.671522389813525 -1.2760888925681508 1.6902578735173663 2.478335188123538
Ni 9.174477397264289 6.516606247471276 3.930704514750011 -0.16648021524484233 0.0017231533386938066 -0.923799422732551
Ni 8.69177271408912 3.250986738433706 2.143314841349166 -0.29069560828320257 -0.1519102878504674 1.0198866900761274
Ni 0.7547588658949801 1.1634587536079832 1.3534066278847625 -0.575682339107086 -1.0318515757474873 -1.1864170418326148
Ni 1.4276021237902705 0.21338077265639466 12.470375485474472 -0.3680948122989725 1.5540662819537365 -0.8831929620650982
Ni 1.6072047315771847 5.333323950216226 11.920598200514188 0.2528014043405904 0.3001217866931089 0.6994938118388082
Ni 3.017746142533706 2.630233539199191 2.597160500847049 0.34949108115485616 0.4065729137695127 0.8521828868368292
Ni 1.9466608231891533 5.099739163272143 4.9870584574078 0.46886123028577315 0.8866966043429826 0.29369454301052644
Ni 3.9808764060245716 0.5857685052186122 12.44480674212941 0.08612064304916782 0.6227628375346564 -0.1727753042249347
Ni 6.315914961388773 4.826209610293098 12.550037107258447 1.9421961585267131 2.1181262063305457 0.9890355090232257
Ni 4.603648239220331 1.1183139120691687 1.4654873250371234 -0.18511968472290055 0.5463630213176784 0.01431281707824632
Ni 6.593714343806582 1.7319693338270468 9.118095183259188 0.1731745965458824 0.9687998987026413 -0.5301900111022418
Ni 0.06747632857736362 7.5894683368001505 10.692258504850443 0.8824612261053962 -0.3540789576358547 -0.33297071490232977
Ni 1.2405110351793827 2.8140687665822646 8.309371812882276 -4.0580924470854765 0.5976575578265966 0.892207763969199
Ni 2.124523870834349 0.9394741060556284 7.623008358676968 1.4406729192315446 -0.9419215862545585 -0.7511984393019514
Ni 5.2109128705110415 3.0447976981065215 6.904049082350909 -1.286082513445753 0.28116607152621254 0.34461601245074197
Ni 4.817521112045158 3.70407238689641 0.54478744506714 -1.201453110230131 -0.7878474579835527 0.5330007410781594
Ni 8.473230006017543 0.9016707664625037 5.290783797659664 -0.7589192049849769 -1.4141992984210483 -1.3381851476782631
Ni 2.99379230635764 1.306558505800768 10.063308907536422 0.4437479801579132 1.2749282966011461 0.3908868704928236
Ni 1.2158502119938486 8.312725349946925 8.41160771592779 -0.0963628896024663 -1.3524915369986061 0.34691817822135734
Ni 7.277063800760997 2.5688372989032553 3.973550718261988 0.7440134915177381 0.24442834978554678 0.043334401121576986
Ni 4.24109413781218 7.205862766939013 4.047643887100336 -1.2157903527884093 0.48198388371066025 0.23375544345273291
P 0.9739676301491633 1.9276745010006677 3.1981171335703844 0.6205702007587119 0.10195735297110828 2.0537092735070566
P 5.535847821046957 1.0783226337309524 10.95960378198877 -0.03705113921602651 0.1573826238189483 0.11786811066409378
P 5.538880423219149 7.13507104138567 12.776142715839208 0.4460591447895931 0.4933430174772213 -0.9673487680784113
P 8.293115762894828 5.242206348140667 10.585896960506256 0.43071017313734855 -1.5140768860449925 -0.03857606050098518
P 2.2368138733513554 6.573974522305372 3.4035005808052006 -1.1227346731823051 0.28360990508101475 -0.6491917211501465
P 1.144444524037545 7.478917894424863 12.981022899952812 -1.3109880184381808 -1.063376385828646 1.0837919733705206
P 2.873111484333523 4.662132809332535 0.7685544150402639 -1.16290198942981 -0.4810834833835779 0.8204886410573416
P 8.570998867458496 4.53030763944864 4.369286696811898 -0.2802800693768334 -1.4748652488425373 -0.008907072681642725
