# total energy = -381171.94408706843 ev
CRYSTAL
PRIMVEC
9.22914662806457 0.00000000000000 0.00000000000000
0.00000000000000 9.22914662806457 0.00000000000000
0.00000000000000 0.00000000000000 13.50778898660583
PRIMCOORD
 96 1
Ni 4.653704742285295 7.372906581942999 9.733631765923057 -0.33980727820818896 -0.06393870763548988 -1.4585420862024816
Ni 8.07506926339986 6.6290189299564855 11.330414362955102 1.1325514021624108 -0.2612613621824855 -0.3581202175847639
Ni 0.07229744064169062 2.7969204808499635 3.5898029019253426 -0.5615839520324909 0.5506634484652452 -0.093377067501265
Ni 6.871625499368777 6.187810360803521 2.229487646171032 0.053291512334288874 -0.6766415898309831 0.5900159821209388
Ni 4.563785169653045 2.0624096415283755 11.218124262548725 -0.6130427820334152 0.11297658689974736 0.45135767418437106
Ni 6.976376310143285 3.7276337418680505 7.33275702669081 -0.4634174335623825 -0.5082901257053568 -0.31849360433207724
Ni 7.301288406470737 0.06925643692801657 10.93536536914035 0.08525238151160155 -0.5277670034830458 0.4379907659591618
Ni 7.601724806747614 1.6792524027517683 2.289367270434124 0.8298333154970353 -0.47459607588702135 -0.512305417512337
Ni 2.520415256990556 6.3662282175341645 8.498951956159258 0.8435540075172376 -0.12019907279011557 -0.2762352098834984
Ni 2.320521176764558 8.815579047831882 8.638798441659072 0.4006758315587874 -0.32985196676768996 -0.2043929311302157
Ni 4.953642768660691 7.158088972111504 3.5383790215240665 -0.8939381163967444 1.06925495609661 -0.4224155372287241
Ni 8.822445532696749 4.917602952266466 2.5043842298262105 -0.10345450634192505 -1.4693152655585857 0.7022317795952615
Ni 2.7889188109872762 3.890712757408629 11.067160347387329 1.2045926843003771 1.5225610122566036 -0.9082203373473713
Ni 4.802137102610089 4.981699373484877 3.1097765433347058 -0.08544829957249155 -1.5507906965262581 -0.7174077160047515
Ni 4.775492557173437 8.7680120276793 7.450842108073866 0.8840427116599032 0.23251180085361894 0.7548805161392289
Ni 6.6349994167742725 5.9412352584720205 4.537846653910159 1.4845426240313013 -0.0851258832360663 0.7153377208496003
Ni 3.4096250469907616 7.77369149019796 13.14479346577672 -1.1669157385748936 0.08866526384789246 1.791843959191985
Ni 5.4126543610721605 6.025257406603397 7.7678162156482635 -0.20717640741262386 -0.5874327947747947 -0.5698047972803864
Ni 0.5472450000103706 0.2095025444636491 6.921066959139713 -0.40606692066737166 0.3793199915908306 0.0554880057649754
Ni 5.494166181403478 7.3854674500896165 0.8399861380825102 -0.6032363374659546 0.9543916936971113 -0.015385224206818664
Ni 0.3642873262030774 4.369520868684531 7.39370446318356 -0.9092683189959114 1.1885222611010757 -0.19437308500036848
Ni 0.8322031989876959 1.9960336211679994 1.4620425981931595 0.41018145705637743 0.13413573747586577 -0.3193515814569984
Ni 4.3458573375104494 5.588211182442442 12.368865909412694 -0.15921813436579033 -0.8319297930147478 -0.2552480661088701
Ni 9.626922530298648 7.017298344942772 8.230471475028347 -1.9335451677199345 0.6430028187306152 0.09156366844161005
P 6.983768856348606 3.9499823350997207 3.7289867347191117 0.8291293474514753 -0.16868570753659337 -0.26409317520432585
Ni 5.824966473085477 7.094417091623987 11.630907983939188 0.7782137915485308 1.273266335517691 0.7247039925558486
P 1.8796725443182196 0.8433178599053822 13.333254479536864 -2.126597991246982 -0.13187470935583095 -2.1416813679426663
Ni 5.37679912760441 0.45411183862819265 9.528556442950908 1.2447653998645207 0.13255373770072656 0.4328578156079707
P 6.020947395270207 1.5760336302670017 7.483031524621825 -0.44096090433107926 1.0521722895827104 1.6072796327519223
P 3.437783172424508 8.88183508929005 10.6924948461432 0.41924125326580053 2.3424148479434237 -0.310217223255898
P 0.46709263293254033 3.4189280264850965 9.956658701409522 -0.7705691305190794 0.28017799658133036 0.3535253991252299
Ni 0.7471289281754123 3.9901660381933075 12.21753836588614 -0.29627104548845107 -0.7816228172300796 -0.6718719363564817
Ni 3.957042632037386 2.620976035334084 2.3847052748730446 0.1857894570964155 -0.2967312729543212 0.6253807347734779
Ni 5.912468009380907 4.995173927117545 10.282074709126249 0.3189636019899604 0.4863059081247818 -0.0030516423421302285
Ni 2.022668937458328 4.103924495779792 2.794477525818068 -0.3716275080425793 -0.2792981650795383 0.0019193285098999203
Ni 3.766922217768234 4.7113499902234075 1.0229816513897305 0.3224235355141028 1.6827901043854117 0.401770864395179
Ni 8.916407471418799 7.092562033212913 3.588222872074717 0.6354507174149701 0.2705314746305018 -0.22915136902181824
Ni 8.081668103021338 0.39048333512839595 13.171863474858899 -0.08107253910229908 0.01238037594222384 1.8582835788724577
Ni 3.4372201944987597 1.6856574303004475 9.273718485915758 -0.7663360662743383 -0.9167057491105632 -0.42877824622195826
Ni 3.0390102180681247 2.9378310869209057 -0.09642981244901966 -0.9935866187290178 -1.5121734983746924 -0.32995686777667044
Ni 0.835483237591155 7.933604908549493 12.528284645521277 -0.39501451950795197 0.45405399006961156 2.070687553232608
Ni 2.782698366365072 5.9312954678813465 4.313536867084693 -0.040837602841652255 -0.6355281076201248 -0.4839507776290439
Ni 2.1424263401552466 1.7040880355089667 11.322647113409037 0.48718496829562546 -1.5395207800393937 1.128214979570586
Ni 4.86906687174989 0.4008670476572417 5.199714882517548 0.8944741914058725 -0.7653703599269593 -2.1752805440543503
Ni 8.95953527218966 0.4174066007840255 4.007922915720194 -0.981078458959678 0.07096450413401972 -0.6176908223283879
Ni 1.9126205966939902 1.4260507733598178 3.912895933512383 1.2794873767267383 0.24797801481001808 -0.2014670157326724
Ni 1.511032752708864 6.393777219310544 1.895048302093579 1.245395577249352 -0.18968236439291847 1.043419740201061
Ni 7.794863151864631 5.876797358839632 6.700065821271309 -0.6423425594387969 -0.7646242257895541 1.1618115845791088
Ni 0.21734270426567068 4.869417579310192 4.887185531812666 -0.13269771947775857 0.2748452715145073 0.2742662590825857
Ni 0.9262002084657763 5.554404819458562 10.23112336101675 0.6203362303710349 0.22295706728564826 0.45256249312574964
Ni 7.988952099052994 0.01519578942204652 8.73120526922557 -0.5335424725142424 -0.8102181123692691 -0.9045889112423711
Ni 8.253320995496676 2.273904758683321 5.53840978596488 -1.8321336599499674 0.8389545610720133 0.32380293236013263
Ni 4.005975565845883 7.173095564033915 6.023595237350491 0.037129814972761854 -0.9745162323611282 -0.6595666366265672
Ni 0.4628379964772938 1.2236279070411138 9.843544438236435 1.5511827897583546 -2.3389873103191134 0.6306314416494558
Ni 2.783547447826856 4.7072522492556645 6.696243108864014 1.006327463334454 -0.6644005676801009 -1.242054428691261
Ni 6.213818095143837 3.5696030693665612 1.6637003682816254 -0.31843858272442577 0.07363099522258933 -0.44524076265335577
P 6.272164758202553 7.660819030658556 5.880993851673038 -0.7633571861516724 -0.79754720176982 0.5279017292886973
Ni 6.814801645453477 8.48568321248961 3.7757914273853532 -0.40716760993071816 0.8796774927126723 1.5144232136408176
P 3.963881429463281 5.259755093926673 9.570335865443871 -0.8168029646756384 -0.3688558588347131 0.2751682020715648
Ni 8.143023467781596 3.0828025173742954 0.2378784777506362 0.5120123117519505 0.6071207601220254 0.6671940712648381
P 2.087097607944394 1.5449683237412752 7.5610796463378405 0.24270185401274327 0.18158981719277112 -0.021615521387246643
P 0.9215154937918433 4.359793348459304 0.7516788973130187 0.38117298563916935 -1.0604196171931672 1.605715373588596
P 4.775344890832256 0.2416199736702825 2.711499194135907 0.7036440865617558 0.5292441022492047 2.5907559025198155
Ni 3.1169319004795053 0.5718619019996962 1.3592216019149461 1.2658188781007103 -0.5379282602867639 1.48438398696625
Ni 0.8946199155751848 8.054497496244233 10.4343343964315 -1.3583443962349573 0.6916249506136927 -2.4697443611307337
Ni 9.033146943267854 1.8525942290043511 11.83482228030381 -0.4707340218284538 0.7825867238052457 0.06532967444574554
Ni 6.532768162946148 2.0670795895681904 12.225926736979792 1.1669445349302998 0.20113405787328587 0.44831374515172473
Ni 1.9519090725941735 5.788566719984627 12.948822695652948 0.20045014443238382 -0.04679484886635167 0.7500656112490889
Ni 4.065891183779637 2.3128609853158495 6.49115394217238 -0.38496561991238215 0.054740843186305725 -0.6204429311522283
Ni 1.5739847597831302 6.5221454155275165 6.241800866797431 -1.2374873781458688 1.427891194085844 -0.3593684881695682
Ni 7.714486516531134 8.333734547415467 1.8095033448187847 1.144032920439449 0.5870887811718147 -1.665251581281016
Ni 7.763114888510947 4.183368987334591 11.497208109890988 -0.04773792950591133 -0.5735071858326382 -0.06916010393542928
Ni 2.992430716572182 8.353734107499024 3.745223571846477 -0.45225910295271793 0.2798890045860018 -0.9983575577551
Ni 2.883249915562276 9.372659549079467 5.9723605544488505 -2.060435022266664 -0.004004493173702781 1.3655283155779063
Ni 5.058624308093293 -0.06711712081017243 12.650638207079062 0.24456487536341104 0.8024654650070437 -3.0348332409926897
Ni 5.9559003719804515 2.0156363279596343 3.894578846803646 -0.18524412611590677 0.2761830164893243 0.09899467079835855
Ni 4.573429627561358 3.5024056549833724 8.454294885842552 1.3427737954902101 1.312636095564565 -0.12911488722250666
Ni 2.7598654583601263 6.9804925094036765 11.174642062559034 -0.1899559297692793 -1.4050703395365867 -1.749057203043762
Ni 1.0879040812041165 2.764784593350682 5.983504748634774 2.7164643351639346 -0.3910758465751781 -0.22325891479678323
Ni 5.794787164606831 0.7117249999628932 0.9759213113703213 1.2375035760957849 1.1475977549725718 1.0323472844369834
Ni 4.8089297543043665 4.729402200432653 5.3831238615800725 0.14713677772122402 -0.5554575274197788 1.5496509264948601
Ni 8.16678851956524 4.99597686284771 9.1493788120691 -1.0626515918474795 -0.1391362760142507 -0.22969644289201088
Ni 6.670540859267016 5.598667805227245 13.514813014761478 -0.4241772571148372 -2.4043437242377363 -1.3655360288873903
Ni 2.2040308918662457 3.560743088895766 8.555144536466013 -0.6472281696658725 -0.11922822423641402 1.2425308541070472
Ni 6.952620487505966 7.170197612088259 9.200289551934775 0.463390436979189 0.108411079016252 0.25342669662941514
Ni 0.9256556888326752 8.65759452106201 1.3281950578037796 -0.5395285148943483 0.34965948841192035 0.5902828626290801
Ni 8.92629188713153 6.181589916181317 0.5568433121870656 -0.6608686432674424 1.0268615787320639 -0.9794002999263068
Ni 6.640112363837628 2.7619327871366446 9.478793808887906 0.34380122985893047 -1.0528831996068062 0.6753984614525013
P 5.057719851753565 3.6078394225858377 12.793833949779764 0.4678176195126072 0.1628719290682937 0.3665125554135172
Ni 6.994871519376071 0.4698724518052524 6.0207729644046895 1.4941379810292204 -0.6641629977479981 0.37275365122722254
P 1.1891939621072203 8.477663084334274 4.927249256004044 0.3530263480016243 -0.7387345025069857 0.12901769952301007
Ni 8.761034793058547 2.0914260775702305 8.222960795750083 -1.3029494644044206 2.8766144944256906 -3.229365477278742
P 7.49456518878261 7.598725334192397 13.196664036860067 -0.23483890632489876 0.1676089295326468 -0.684345386233144
P 3.5350768329694304 7.097970312958629 1.7759092522003521 -0.3276498169100486 -0.5939919360495511 0.28019753696535615
P 3.257630236185001 3.4280279647603096 4.568576942424333 -0.2848926284481803 -0.07511683573949644 -0.30694240915936816
Ni 8.621351663448664 7.718851902742266 5.922760353361148 -0.5829055963284027 0.7398578174781516 -0.6999165011985237
