# total energy = -381157.3802801329 ev
CRYSTAL
PRIMVEC
9.34979806124247 0.00000000000000 0.00000000000000
0.00000000000000 9.34979806124247 0.00000000000000
0.00000000000000 0.00000000000000 13.68437455470574
PRIMCOORD
 96 1
Ni 6.213258795757997 9.045078924999245 0.19544818153251026 3.0959972140965197 -3.1301962285757314 -1.0302896305770064
Ni 2.4795571323306635 4.415834890564119 9.314515799592384 0.45095452520868146 -0.01970930550346928 -2.107701411452796
Ni 1.0575182749912029 8.673976084719545 6.25078982070488 -0.5060054434362382 3.301967259905868 0.5539380054514589
Ni 1.002438613806357 7.583883112806256 3.9294817627958754 0.03220152443320906 0.6866892038749722 0.0134358137899317
Ni 8.055356036742268 1.78266992363732 9.801296213138277 -0.9477595330925743 -0.4803543185270373 1.1866841794510725
Ni 6.6244909699038255 1.6229753704142393 0.9135061382857497 1.5686580637249823 0.5257543439283913 4.100259824482145
Ni 9.094754402825604 2.8617114340804863 7.6383718667449845 -0.4486387325913112 0.26265644275779926 -0.5926274516018568
Ni 1.568082705193355 9.186092581422576 9.116859195725489 0.6814387541093102 0.9983053643609258 -1.0638276144334515
Ni 5.343288122821932 8.074467024259127 6.3835008563283235 1.1195871286922592 -0.5762276700875948 1.2297072199798176
Ni 5.532911380077044 1.8791317916468353 9.8699788957215 -0.135433887461999 -0.82919079681703 1.3535163787186948
Ni 7.058031762550255 2.0647907344659635 12.545274053328814 0.7221025503772596 0.09394039620390274 -2.9573085671426487
Ni 7.481456073546371 8.317412180637847 5.012709177892319 1.7597254813908856 1.27344836962151 1.3103508990748143
Ni 4.5526130884037235 1.3497929666629533 7.1765105353565914 1.8078071673894605 0.06601615898980888 0.6701122733528976
Ni 1.8929227439889924 0.7337908621811361 3.450446722077264 -1.3100171698844794 -1.215755642895732 0.30331946769480017
Ni 7.803883864406905 7.700353548959647 7.522684008700772 1.8330921672084948 -0.39969701258528584 -2.4710908478562987
Ni 5.9120643966052855 7.018893507293123 4.330994821714808 -1.613499388409389 -1.6959564665640403 -1.7753323346902072
Ni 8.370210491062362 7.986326476645897 0.4314024937985306 1.625038756507556 -0.40773582372936235 -2.6998447243293824
Ni 8.489981405979673 8.523360185546792 9.457271323420017 -0.1806552211936437 -1.928777314017646 4.103726442874507
Ni 8.981490947454153 0.2879719145409974 12.053936548141179 -1.0515827356278278 -0.6672902305230701 -1.1472671111060306
Ni 1.4310520628024026 4.945931049202045 3.2526115370647855 1.7797474330387673 0.16024914673346594 0.4486119931184338
Ni 8.611351136388853 4.7228448641960314 2.621132711625699 -0.5349036145278272 -0.3127854982037065 0.40546194009352104
Ni 9.218115640250975 9.192254098435106 2.4302902406855593 -0.3747377715367869 -1.1525921228633698 1.1740688046799068
Ni 7.819619574774261 5.632870072612638 0.6670295631276184 0.025652410460781625 0.5915365325305232 -1.8863751949023513
Ni 5.632636327657687 0.14258816243988684 2.6969717297497255 0.7777193684106154 1.022027390568214 -0.2798239556760213
P 3.229467046605277 2.5855651443004106 12.425590091534746 -0.3090409435596097 0.29468236084509253 -0.5241494613351166
Ni 4.994316254877071 2.9670275609835763 4.933408864475365 -1.6160424665462165 -1.4777808798274354 1.9818826784830579
P 0.6829868637122689 1.5849777905372724 6.096635022914158 0.9023533370436332 0.2694593246122456 -0.22306942449379646
Ni 6.515818265447628 4.0385331340790955 1.5989510639442919 0.9286585505970653 -1.6216595556226783 -0.8643629738427888
P 7.293786924114658 3.479181456879401 6.426250938629371 -0.23011373293508755 1.5399802361743158 -2.332966815156647
P 3.308678536939348 6.09357202902447 2.4871491684674982 -2.0077425769689548 -0.2629361787817472 1.6332254060834066
P 0.9889655546029344 8.460155549727821 13.144608272562927 0.19661534406732592 -0.45442037227009485 -2.257697512999686
Ni 8.842833440176737 0.5924658574778089 7.962937956453418 1.990364233591508 0.18273935741618205 -2.5649523111931503
Ni 3.572557891483552 8.60147774949169 7.599645002608567 -1.6881559966830155 0.09588260753193809 0.5034381969296943
Ni 1.855925592519219 8.618513081808578 1.2586997527787713 1.070074623784428 0.6320661172134534 1.4909755241408387
Ni 3.1743312866312423 6.8677446696230815 9.1362086030964 -0.8996181975006571 0.1028973482868744 -0.631903366383344
Ni 5.689342853728998 6.667172798678028 13.384344578200068 -0.48307094612725193 -0.9622518131714783 0.7888812985647059
Ni 1.546045230840498 7.596402492593476 10.629215233698691 -0.7930210317646924 -1.3903456317319023 1.0989838506196106
Ni 3.1974346379786796 0.5731744188557257 5.380244135179636 0.6122256854487585 -0.15912788864482919 -0.18092981501126906
Ni 9.036636057226385 3.1775476172113795 4.47312110412371 0.754958677675332 -0.4441200187853513 0.40072468251885174
Ni 0.37488202871136167 6.610382124422934 1.8779340824976622 0.4442241484633833 0.5895544691034879 -0.8944649354344917
Ni 3.4989843294629184 7.362208747328152 5.049397786021556 -0.3371508144219484 0.9794357811499325 0.010465418307698105
Ni 1.9055917205473807 4.461265560008553 11.378598754334751 -0.513937039578489 0.06183683080113867 2.4504813991360637
Ni 2.5298590466362945 2.5688944541132472 6.813600923237862 -1.2284892884123164 -0.463326416510473 -0.05995529750770966
Ni 0.3756767615581979 2.426693373318761 11.371017937955754 1.0038939141922967 -0.753029064752787 0.8538566749948262
Ni 6.987207041199855 7.6972868151506795 1.9767352700163352 -2.155823977991636 -0.6098438154801432 1.36626725062646
Ni 4.575417246208822 4.018898557863143 10.942163264166199 -1.3519757737044522 -0.2560708191204816 0.24764094318557353
Ni 8.423766135140923 3.099308505889908 0.406766710526429 0.5205825699194646 1.38483884298106 1.0166270454882491
Ni 0.9121812718810827 2.7024282719781207 2.111362079290563 0.09803847753267632 0.0203569663897972 0.43502988355862493
Ni 5.340137240829183 5.736353639068907 2.2975651803648196 0.10150843835914776 1.154652347826508 0.06946272277751264
Ni 6.321763203846631 5.76776896101443 6.380846448619891 -1.1864556083800342 -0.3624823512082015 0.023795302647384824
Ni 7.091616237677732 1.6133544280684227 4.19612211274797 -3.2268902762653715 0.07061149166997516 1.4870728466523229
Ni 0.9764742242103094 4.671860414621941 7.14324395336785 0.7041523936567421 1.2078387020415005 0.5742317227034885
Ni 8.968391880178654 0.66556631970962 4.547399640928478 2.497569096652486 -0.7853560590202668 0.44504844413689154
Ni 1.333533667596505 1.8910995333403682 13.483405690108647 1.2210222906113102 0.6069585235125483 0.2890773559534892
Ni 4.174432450888082 9.265070326801697 10.004536516489063 -0.3327100050417754 -1.6997460155134598 -0.7806722803913523
Ni 8.768455795511068 0.8856633742317092 0.5884445092728179 -0.07254033326157185 0.05977532028641964 -0.6217277114019228
P 5.405595178013889 9.289809892833796 4.819951868281214 -0.7726560949550952 1.6870586498537785 -2.105372763319619
Ni 4.407139578239911 3.7243144660364687 7.2365025805147045 0.2727865892132657 1.5371468804905783 0.07063026072305255
P 5.182041503097972 3.2448568144393044 2.901936135888234 -3.30570615812301 -1.1983770424079685 -0.8040937446390861
Ni 3.3598780318719936 3.8339034507160785 1.6513622927234077 -0.5200704061697365 1.0426962317714752 1.3788435446295737
P 8.160363620304821 2.0348152814429428 2.5224409167459436 1.7190328887675297 0.28996721475761034 -1.2240505359146727
P 6.410604986324715 -0.37630413301728854 10.230315443376119 -0.15492542052770739 0.1374624878562536 0.34814870819434884
P 0.8842917588360519 1.9368200465289434 9.266880447732843 1.2962226872035483 0.17770153788195847 0.7614360578695596
Ni 8.49891981305703 5.318427009413258 5.637647819491854 0.45193848638850553 0.5230302601290089 -0.9218839508773929
Ni 4.846804488706079 2.5052036287879766 14.001441544050879 -2.7479490360357772 2.064087788527903 -1.3862256960262578
Ni 3.2218189116792533 1.9340431564641158 9.385277877294858 -1.2921539164508136 0.690541744851843 -0.5304491783008993
Ni 3.8422434707087585 5.147718393912848 4.53463249148901 0.21946525208230588 -0.7814868058728476 -0.22276731987234538
Ni 5.91446729474219 7.343041661022103 8.420638627643667 -0.22685665945037062 2.7065306209899904 2.236972878857825
Ni 4.719114294715 6.57344107174235 10.813597929063782 0.7347428648490895 0.321944024774523 1.4271859404887033
Ni 3.4487572135428723 1.5514026652079933 2.1482965871124096 0.6517905922255743 0.5552040166480761 0.3604830613899856
Ni 3.56839723128541 6.97578158780181 0.5965180600168536 3.2979131444411522 1.6481714858702776 1.9465058416456604
Ni 7.02886039217227 7.780378471736951 12.056522702322765 0.38796789707381574 0.9599244505898823 -1.6278926810165835
Ni 1.4912647631979903 6.692566850583993 6.005306194115384 0.4049531187779026 -3.5161275548354927 0.4645962843618321
Ni 0.6936138443441983 4.767854792721553 13.858029664389742 0.22314578625768663 -1.0144079263497434 0.5929015311988499
Ni 3.5721184509682424 4.822710058749645 13.248787464005131 0.8123073907981301 -1.09592758029179 -1.0000125768600197
Ni -0.11499784293719431 3.962874567060292 9.814037183142792 0.24065011369003717 1.9473026265153432 -1.098633409258727
Ni 6.748703038965221 4.021273406605453 3.996371154084707 1.8304405885182604 2.029983647755343 1.494073189229556
Ni 1.9993701964740493 0.6254603603389874 11.534874086356798 0.5864143808126094 0.4707749023687183 -0.431582805550289
Ni 1.9588949200745929 6.43237131652983 13.212975866946874 -2.748256539973867 0.8729124060746966 -2.683102214763721
Ni 4.351302583401021 0.34439140180762706 0.4488940962674849 -4.642493654122798 -1.3809791029153378 0.5558185103036234
Ni 6.018334202924579 4.239535095741261 13.074023841026218 0.6782567568369028 1.0688343236194238 -1.5994277408076714
Ni 5.231015746059477 0.722352319065614 11.991233996485445 -0.4668670826738798 -0.024809859954828237 -0.4899422193257885
Ni 6.49785730310913 3.049763925238321 8.335987424717958 0.39246552783385313 0.6332971614070771 -0.8116185922612216
Ni 8.486512630848189 4.200593186246288 12.067018785779922 -1.3352139808650811 1.1351441025902516 -0.3208857587133377
Ni 7.855204906716126 5.114367663740323 8.102025554447946 0.2611160948538729 0.4044946910842453 -0.09567100574176426
Ni 3.4185760649594936 8.221763745071563 12.067442331638293 0.48729938238630266 -0.6112041861627796 0.7757632731255092
Ni 9.153957325015801 6.564250220113643 12.090828981871132 -0.12360989824387744 0.298042535566577 0.30201386150949927
Ni 7.451630217294519 6.2324539314586405 10.270232536823151 -0.047267417627396016 -0.48695048368731625 -0.15422633757815374
P 6.585287266059306 4.161623227356722 10.368609243503633 1.2982615720104478 -0.06673555365433669 -0.20619784554943846
Ni 3.7607319300179616 8.329660416277322 2.830106311231541 -1.1770525698985792 -0.785384598265357 0.14114842134827305
P 0.40312963902737875 6.180973942580053 8.792142574266066 -0.11758966019172652 -0.14727818839509477 0.5752660775052738
Ni 5.0155963955758835 5.548394645893052 8.770836254132297 -0.7018815953446944 -4.059065095411389 -0.18617975055629873
P 8.138213948373586 6.887837385950739 3.482166847444045 1.3447820841694906 -1.2842963680796076 0.9185798262048244
P 6.934782722703262 0.6692753846547954 7.2795266119029565 -2.282784794985617 -0.47614362287979933 -0.6834246741910875
P 3.5415165614659507 6.158497027711886 6.971956585358979 0.3085979424849202 -0.23666618934162467 -0.0027539085960533215
Ni 2.4728907262154376 2.88177610101355 4.274848348555562 -0.027168589994991922 0.2461928978851373 0.16400501423147237
