# total energy = -381174.48277462285 ev
CRYSTAL
PRIMVEC
9.16451102016467 0.00000000000000 0.00000000000000

0.00000000000000 9.16451102016467 0.00000000000000

0.00000000000000 0.00000000000000 13.41318824098481

PRIMCOORD
 96 1
Ni 6.6325949111345945 7.300037085083053 0.041032265243507796 1.0390072129556622 -0.05043270272925508 0.3332141983717035
Ni 7.2640388857494145 4.3513831540748775 8.602159222491723 1.0168697576266745 -0.8370321472383196 -0.6778332961462391
Ni 8.173818224916658 3.033563125719519 10.454051212198161 -0.4349326958591284 1.4921723726624172 0.2588494103068832
Ni 3.9890000588481147 5.309102050450438 7.830713595096781 1.2350494581283376 1.517919142609218 -0.08850919788600241
Ni 2.53783639497737 6.489875980833488 4.900052348597702 1.9471578734073627 0.673838316054233 -1.4272641020248065
Ni 7.636118033648018 8.857050851373227 8.86729769115809 0.11735209025962369 -0.6968977689768578 0.4496702591796191
Ni 2.0219202464317574 4.121720507613325 7.593299605204376 -0.8082792434753435 0.3304312363099277 0.6639475393030825
Ni 0.21012024313694622 1.1183269522111026 9.928294211706401 0.009116360478971396 -0.38569375632765834 -0.23646127241967016
Ni 8.637707444333692 6.399128992594769 12.067631089931059 0.033325353625007124 0.8513719608997595 -0.0012256448769849858
Ni 1.120572257413939 1.3290465543695407 3.8061662308578015 -2.0962281207058737 0.4403867769951641 1.0122625978719664
Ni 6.866995609799684 8.325949108047615 5.24395337442626 -0.4067354074893059 -0.15486371405183652 -2.08070842780372
Ni 8.888521782257065 1.6693890005643786 0.2050825114226639 0.8733875459389022 -0.18821966380446295 1.409715551618082
Ni 7.8637003361053095 3.392509529309287 6.037503802430352 1.0398973288700994 -0.7686271763013601 1.690063498118373
Ni 3.13009292041942 1.4157519932431535 5.223511016118314 -2.325836117649136 -0.9289848235882323 1.9955727743756408
Ni 8.222802536382622 3.7538753638114994 3.7298854232830716 -0.07309414888251282 -0.0431492816939644 -0.832472038671463
Ni 3.9865806279356706 3.095863471714955 8.159912912327828 1.0988298415402495 -2.027757329527985 0.9870706719873709
Ni 5.942626369069518 4.508426215118978 0.3451043261270577 0.3756307156647014 0.738640914351915 1.5456001534642543
Ni 6.503182850851931 4.797328260891283 5.063478491575581 -1.5299359645644361 0.4358541792321332 -0.736503299183622
Ni 6.794238556716752 8.949777373994856 2.7701054283764184 0.012673995923242688 1.2192492578712872 -0.14469088728389276
Ni 5.0291079094012225 1.4357947788701053 6.229057662667599 2.4623280140620047 0.3707019109045164 1.8096362501783998
Ni 1.9288546369019466 6.0749985664155135 11.809547461857115 0.3882951985062474 -0.3606445266685144 0.2736612785087351
Ni 1.0165642217119377 5.180542289693747 2.9108090827015918 -0.5008334123169955 1.0916140405181005 0.031193651993984984
Ni 1.151731594922689 0.4515693672367342 12.194251640153379 0.3300010907510445 -1.5043002662742029 0.32681549393421133
Ni 3.1100776283255644 1.8346434634931377 3.153708948897743 1.2293614066046248 0.20262066972114134 -2.9826177353313987
P 4.797374083446442 0.8728362787462091 1.802021470023683 0.119594092216265 0.44324455815893343 -0.6026167016040848
Ni 8.652526458672412 3.796554491687455 1.3204273317439583 -0.16936807831559866 1.0145976737630462 -0.8690192416678776
P 5.89361456407046 3.5590012012273644 7.116729451872386 0.06704614291622 0.032947915680930355 -0.5345248910321698
Ni 6.098138956771276 6.824325646434759 3.3836373661792223 -0.07297716368867431 -0.5031620604501722 1.1194084370225497
P 2.830587535383109 4.74676765352782 0.02354362884117024 0.2731735402390392 -0.9593634358800897 0.03509890058566213
P 1.2890068056707968 7.423418897106671 1.9941921018533826 -0.22488488043598043 -3.0551827511833185 0.7312273954966632
P 8.674237185307184 4.346892543669205 12.289793500564032 0.18999783875080825 -0.18283628800536253 0.439510802148114
Ni 4.042419993653557 6.405516656784063 10.677702855873832 1.3948412056094106 0.7605094322902322 -0.12802653925433433
Ni 7.4899440826878525 1.495309113511818 4.570342568102173 -0.4420749633308645 -0.18871023028763628 -0.8116499597197893
Ni 9.66480168922138 7.882872493184222 10.57314678241212 -0.9107181640685607 0.43484322146911564 -0.26120428369230503
Ni 7.748594077543573 6.448580694123362 9.430477055997857 -0.05964213714266502 0.6076702048675922 0.15727052372111625
Ni 7.148071163150672 2.909521468901598 12.657261066511342 0.7353892401838367 0.45707092251906445 -0.6798562401135388
Ni 0.8463041028575083 8.389789091896425 7.986547857135762 -0.24416378327025046 0.16135677797534792 0.3795125672176109
Ni 4.789016049385272 8.874866660819407 12.854609647074113 -0.3367214401940136 -0.28701327433560897 0.4505264365323273
Ni 2.376330217060693 -0.07795058148475738 9.647717207755553 -1.080384233240552 0.2257163751983403 0.641816768842314
Ni 6.860168049080854 1.0894404134382847 11.177008328173972 -0.10520105671938658 -0.4951137362243989 -0.6623465133645497
Ni 6.459239020453562 6.0976165796424535 7.123838363079897 1.2869584882928027 -0.9592233107577995 0.14930627456871706
Ni 4.978107405508224 6.613056173614402 5.4304365107095105 -0.9888758435169098 0.9269814200049582 0.7828520616514905
Ni 2.878151347639112 4.448976032054489 9.935564418308076 0.5161759562113368 -0.6476524016874846 0.6964768793893553
Ni 1.1434377124387423 2.9797857749838292 5.889194520399734 0.7139837779248672 -1.0218646397381048 -1.6149582323431027
Ni 1.1856769437851624 8.381815967298598 5.491224712384669 3.943134053869009 -0.15896873735914557 0.8036368596073256
Ni 1.9870034593998935 6.438288948234443 7.085450059269117 0.05482620381126042 1.0237898817852757 -0.3529319885156051
Ni 9.212441424682586 8.357603329152093 3.6873391808170797 -1.111449587186789 -0.04263583239265561 -1.826790393360183
Ni 9.232511703842633 2.7588935655798874 8.068488666723846 -0.2336574844222879 0.029320860451304342 0.46771426116552356
Ni 6.657824810005651 7.747760107039662 11.055297206511485 -0.6029753704950841 0.8878983379605676 0.03492483690164308
Ni 4.34613188925355 5.300221639260444 3.7113758603517715 -0.5587097158084894 -2.0547425998675775 0.4288080710186292
Ni 1.9289462820122665 6.53170280918347 9.393550491696677 0.4406919669404088 0.6657807358570792 -0.6409181682874445
Ni 6.54934449292004 5.540606763629418 11.706413720507564 -0.6430472988153054 -1.504284325434603 -0.3925020374987434
Ni 8.607189622597181 7.391462247138138 6.370178302244728 -0.5550834319098117 -0.7090829981891401 1.6748955321286831
Ni 7.73671687124612 6.211769729056862 1.9450199179112655 1.050146003181301 -1.0448197058723814 -0.6187999962321666
Ni 0.02438584740500969 5.510867925330626 7.83833205311767 -0.17813296899242226 -0.1286999111722751 -0.9050252274488414
Ni 0.9279892225877998 5.146734408496754 5.391001619738877 -2.062729731838112 -0.40484693221734147 0.12324685847750386
P 3.76500108020433 8.39479291491989 5.680190514706483 -0.6307911071557717 0.4751185240493946 -0.14673131475268925
Ni 7.013371180002553 2.0076144447108284 8.845528311652712 -1.5084744522565505 -0.8734394822227602 -1.1531469669255754
P 5.502537384802552 6.634757735738144 9.013501885004661 0.7393677652156105 0.3589797373715818 0.4350252555729347
Ni 1.3774993241956468 0.20236431745057706 1.6258658212223773 -0.5041658191243382 2.872479646321711 0.7967007946091247
P 8.326059082179999 8.63834896010593 12.270397729415938 -0.4707147385547442 0.36618628242235 0.21232684126531173
P 2.803689695504232 8.074933150881538 11.522022842092918 0.14869640889886004 0.5668320878053077 0.14687992451541157
P 8.539876289067248 1.4014645205442884 2.516407935282382 -0.22756217015782743 -0.14324746996914683 -0.39141214686867426
Ni 0.54802309649507 4.959604257734646 10.07669788820065 -1.6894580033238904 -1.4653627086687409 1.02852148293299
Ni 4.427485253684483 4.04321730611334 12.016580181227384 -1.0253430852050083 -0.03363414311467756 -0.6035780370760895
Ni 2.8035613923497835 1.2092755596925246 0.32791995149098213 1.7285058612549713 1.688779232089311 -0.23231434013083213
Ni 1.7693371578792105 3.1990008788689175 1.5161464622452427 0.2021974661407937 0.34960523813521727 -0.3873096946645265
Ni 4.6153027427739906 6.3107556127133355 13.123892307629145 -1.0645611501653665 0.1429816179022699 -0.98797261497635
Ni 4.920554276227357 0.4428383375765618 4.04095092253513 1.0100234241288024 -0.8011981682588459 -0.1369258986264932
Ni 5.660166974552698 8.248435673739083 7.207523179117368 -1.2774680323038645 0.8486208805171835 0.8749911429805962
Ni 0.8641547374456093 5.713009545163127 0.5176574056416898 0.04532932006441871 0.010505784627330294 0.7529547598714259
Ni 4.645417326025094 9.193654177067016 10.588330544289912 0.7957536002045069 -2.237398139320702 2.263268065108928
Ni 4.250720164899551 0.7565496311635539 8.704112574820353 0.9465524001583504 1.8980899122361181 -4.00254530594779
Ni 4.131013321799759 3.5076799394482463 1.9207412952853302 0.6022516049551822 0.6845456751694081 -1.616410648518913
Ni 3.4622972808178556 5.868384665199405 1.7163378741301363 -1.6055068571222155 1.0915412782986362 0.11404205204978424
Ni 6.741615934371092 2.5480181667339052 1.7162443961176101 -0.5558547628581976 -0.9047048679949451 0.9488478810607466
Ni 6.842077304303715 0.5778700760240397 0.14325597064758144 -0.5097937068340769 -0.1052211113240446 0.19247149710228142
Ni 4.033493759908403 3.6892563965249714 5.852053506540407 -0.4219607090794927 0.6389006236367836 -0.8415099805040153
Ni 2.7638332370261276 7.973427026691268 0.28130008387127287 -0.5551466810475794 -1.1292637325500745 0.24724113664399353
Ni 5.1301374790178285 2.198098806510643 13.317820692674777 -1.7195234552507033 -0.9001151917417336 0.34874494701745096
Ni 4.90713743207653 7.8064862937326245 1.7407768756991313 -0.38099686507262126 0.7837555473023664 -0.9535617415966481
Ni 5.400215619130436 4.436237361720029 9.881052990238725 -0.6756352600536558 -0.5123326712058467 -0.20187607824563295
Ni 5.305775332945827 2.8399261721247018 3.8327653076770356 0.8374252689116803 0.13612294310922363 0.8102268541200176
Ni 2.988033834912616 1.678553511596364 11.256482051392247 0.3042676905406825 0.8185279177865452 0.24789342551601182
Ni 8.437701155571643 8.458807024478306 1.2802207889444324 0.964380943699339 -0.8325512286488307 -1.072507915816269
Ni 3.077222856275897 8.322714035653325 3.248795333110107 -1.1079428595851113 -0.2464564359591691 -0.023695543844726934
Ni 3.669626013894459 7.656481577161089 8.371291442829465 0.3440825085447751 0.1427389057638445 -0.8327083230519853
Ni 2.1534309797407465 1.365521308276842 7.509346268993668 -0.17220297666123247 0.16731273844846667 0.7490289424544584
P 2.404895997947391 3.9248118235800895 3.9208894128583998 0.7232842293901867 -0.4555675985006606 0.41708975414043653
Ni 0.0131565720375181 0.9543921788709494 6.130336633379951 0.11786965332599054 0.8497462523708785 0.6715870581262112
P 7.345813817687819 0.4040953671888439 6.882722827181674 -0.6324921490072783 0.900783678563668 0.7089755260769983
Ni 8.214774424718602 6.368134616284594 4.411262236255663 0.2722289169375828 -0.9711293181667661 -0.4597584966535566
P 1.7798213584998015 2.695658439459189 9.554938447421044 -0.7599291343067299 -0.8194645706682016 -0.5857201829590623
P 4.91147224579466 2.179146597696497 10.382330665312947 1.2315573858146789 1.1150871839393761 -0.07260538217155238
P 6.168623211118275 4.652593138163138 2.5108285809661095 0.3863416743243024 -0.24098435710100433 0.952565953342282
Ni 0.8804794809468848 2.727541773339466 11.779917681239603 0.857839056681342 1.0231064825650058 -0.01114290399069694
