# total energy = -340866.05896910554 ev
CRYSTAL
PRIMVEC
9.37679162677560 0.00000000000000 0.00000000000000
0.00000000000000 9.37679162677560 0.00000000000000
0.00000000000000 0.00000000000000 13.72388236640730
PRIMCOORD
 96 1
Ni 0.08205724033604922 8.792776820765283 5.796872236476173 1.7962400313771518 -0.7330353952396795 -0.8180759178507911
Ni 3.11056305340787 5.908785181035689 8.3210370027723 -0.16686279539524163 -2.3033862732860526 -1.9411101245513862
Ni 2.537491062414968 7.224039598219428 0.2711552443539407 -0.1311090348344 0.6359572247377435 1.4582399815810303
Ni 1.1971162207291348 5.309111232479352 11.922636373457536 0.8558191980378358 0.4728461830754501 1.2134105397023232
Ni 6.895054867478117 8.493554026332164 1.6323184328561764 -0.7160622577204506 -1.506752070248805 -1.2118079711018936
Ni 0.3618719516656092 7.619215100353155 11.524451858922642 -0.7457811249411221 -0.0012618974315591169 0.31182544828328235
Ni 9.295185310807165 7.600489647672795 2.0581841736593147 1.7475088847200355 0.5426416066020332 -1.541072697907546
Ni 4.491361243368629 2.858646172230841 2.7222147931852945 1.2830470690535385 -0.1613243820755157 -0.25968450461366893
Ni 1.9802470955204365 8.375284554796176 3.2275413407505256 -0.13206728498261125 -0.5077787332865772 -0.7225216401925493
Ni 3.8693048934362197 5.179073887576388 1.5849159386473533 -0.8102204263621143 0.4133454566066559 0.09147290850001664
Ni 5.462224861331422 3.9486606801332047 4.73328434013568 0.6877281866624478 0.1954346934956634 -0.32028746300770644
Ni 7.431051024771399 1.3416875924996787 10.218953993323236 1.2221286363016113 -1.1313887493128774 0.6907623455030814
Ni 4.660837373436135 0.6345668651883606 8.424240783361101 0.49320803456125384 0.1916430876637151 0.4615778092504825
Ni 0.7062599378490964 2.044459363900556 4.667299858156868 -0.6715158385686436 -0.5225072977460035 0.23639082419305096
Ni 2.632853032249345 1.4516773571169106 3.4160523576187973 0.2919847594082713 -1.5861176539623265 -0.47115285453342726
Ni 3.5414078705120957 5.412612257359575 12.927663393671514 0.635816328284505 0.058888289695775996 -1.4762431030266705
Ni 4.021799654047476 9.311491551273438 1.6471543924109406 -0.5438240569459085 -0.47947551546650974 -0.4361133464307908
Ni 6.249669060225361 0.26740359006379966 3.554059975320112 -1.6308635907194493 1.7287696564393193 0.27866155993680397
Ni 7.67781067060832 6.118956586332419 2.3000678879019505 -0.8115918527883442 -1.05877771071437 -0.0181365616997107
Ni 8.953119955885033 0.04785445556044694 0.005185365714691321 1.9836860502403837 -1.1974411608572604 1.6424286698492294
Ni 2.1285316767358586 3.3538157792135155 13.240829477105983 -1.2937490288520752 1.3242896206430934 1.8457841608538665
Ni 3.968323811966311 9.36279197772023 10.857004336564053 1.2570719851460157 1.8000421787320613 1.4910128051366773
Ni 5.970446962120337 7.139198388478872 5.665410556940186 -1.2409025744750048 0.5440737110628694 -0.6180176095401873
Ni 0.6354210908965132 1.7335249568496263 9.488129674709626 0.5159964932106791 0.22459691688191644 0.4074995393488401
P 9.008049200652955 6.913480262829596 13.453425720691715 -0.15428830116434072 -0.039781136552679876 1.6519710621220258
P 2.8008945132131484 2.690989139719664 1.3514478948006232 1.2714020286154426 -0.9986059263204802 0.26220392860141295
P 9.18532682127132 3.5925770218775033 13.559648828152364 1.93250875603562 0.1457285845197877 -0.4448116455357372
P 4.779435032675585 7.520674398190964 0.29246119006265975 -0.26384429241831336 0.386386925739941 0.18840658300428845
P 5.18666908871364 8.07626804977666 7.6046501300735345 -0.4662263637660874 -0.35063265095846713 -0.5219480828084238
P 5.772184082063495 0.626809445557684 12.046878861196522 0.05022932846919737 0.3885037149726277 0.1242526740341989
P 0.26373632689740584 6.9041128480936536 6.706257858468257 0.5253967034786565 -0.7041647349519163 0.7631635820836276
P 5.722787144296779 5.036574786733416 12.041183398022737 -0.6771478400434402 0.04938677796324398 1.6917128607963379
Ni 8.701643783909795 5.2959743475493655 10.42220438879354 -0.43255031166988084 -1.9131920579848791 -0.22900738724478625
Ni 7.131762592797588 8.345213184367578 12.833449143120099 -0.061330837698997595 -0.6414773832250242 -0.25923944665645027
Ni 7.9893358155254806 3.1945415983278975 9.117639513951117 0.15950558369922208 1.8913569643876587 -0.6932393462886641
Ni 6.101196943179389 6.626775485085652 8.940875741508462 -0.26505296801443384 -0.6628769319467229 -0.22951569433977248
Ni 1.9114214457088012 5.555111358202547 6.052904591454609 0.7215327939167187 -1.5457343650492734 0.9256274770802252
Ni 1.8275179151209928 9.067694971559197 10.197214839845948 -0.48275495754872993 -0.56535293215662 -1.6436412021000917
Ni 1.0820536118955413 6.689553104362068 9.36270664891733 0.24155308512028073 -0.4311596019699413 -0.19346162892969263
Ni 2.1220241834157942 9.036095184111621 12.527090610334577 -0.06950540308998997 0.826243541263248 0.8567154845998599
Ni 7.398391659881219 8.450242626266776 6.996558635762987 -0.09113943641999789 -0.20156574609406575 1.3341827113870894
Ni 7.894320786977619 8.18797376724342 4.051359051658675 0.1432335860120759 -2.824726547307148 0.7958654431920229
Ni 4.071609170641401 8.423331234582935 4.080233943488369 1.0670479211429624 -0.25368483538680825 0.020968374721550984
Ni 2.713005846226165 2.827177659864649 5.500902251023934 1.3659618035708991 1.0181427108018273 0.0666890166871174
Ni 5.225573396761115 7.5040212164381765 11.770740789824883 -0.831512245861355 -1.154389838193741 0.8158298021290917
Ni 0.6490558834566084 4.25293756519963 7.869026891832267 0.04042468367394973 -0.11554871850229777 0.3202599522038807
Ni 5.079220434600352 2.916350947290896 6.973172917693475 -0.0939005441049028 -0.014860462051600212 -0.9026559558857163
Ni 8.882156397605135 8.704738125113861 9.179891095222843 -0.8024019587589599 0.05551911611322696 0.5485929390894617
Ni 9.335974353951663 4.307632390179367 3.1024896359027174 0.5170462746314322 1.3153961748082057 -1.2090484060788853
Ni 6.48215722935747 5.121162823102729 6.720077373821444 -1.502790771608212 0.1442766825646096 0.9837012412945058
Ni 9.2602098784097 1.5542313260528582 7.360241245872552 -0.7351200456828502 -0.6859698092104444 -1.0359807674245125
Ni 5.011360594316047 3.5274833350938013 0.0573372048321781 0.22180367040749543 0.7078696946073293 -0.37545690909099855
Ni 0.5707774901061299 2.3025274203196058 1.6156024266001543 -0.5118737292915572 -0.46287930167072544 -0.31030952585938815
Ni 2.240021727997486 1.770094443806762 7.524474811797049 0.6648937052664355 0.283976287281498 0.03862979655705605
Ni 7.851431342530968 2.739514035874325 3.4383813112831634 -1.8708475315803974 -2.063379449606969 0.07094162131588427
Ni 4.626237012699768 0.36500473771493713 6.081148425214504 -0.5456369417849313 -0.041352337694541684 -0.7597568703949238
P 2.9108842778303803 1.4925976753427928 9.504707842130195 -0.6264014627285083 -1.2091214254086662 1.1858043479492804
P 2.8005194415520496 7.120651094837536 11.302522894729616 -0.4854263337333059 -0.32598837004722564 0.747610464840377
P 6.022806966009734 7.238751784126029 3.4128961295906506 -0.5680667315433572 0.4983191305355741 0.33500651438543594
P 5.915180152857424 4.622983266039736 2.1873532276668355 -0.3817635680353167 -0.8825553284810994 1.3922618749180087
P 1.9412677731407404 0.5181408708666728 5.790627293318877 1.4074604370353179 -0.0913788061243136 -0.49099020097432855
P 1.2705271215977034 4.323732341232034 10.02627030422524 0.7409235397385047 -0.319096785133715 -1.52522107558727
P 1.5545220065902097 0.010643596062832042 1.1091984856884165 0.7109971844927174 -0.52233683360641 0.8731651455154511
P 5.9773764110591365 4.288747532043041 8.980400793155056 0.804087316881183 0.4863766134617171 -0.5065389473422051
Ni 0.6352410564991857 6.204941764639325 4.387223534343692 -2.0292148879101184 1.4025966811851134 -0.27457350591035934
Ni 7.819925322998666 0.7199669317039531 5.382369291646023 -2.0871901788733216 2.887495660114569 -0.42228106853338887
Ni 2.2194959313438525 3.7621375430687567 3.0953529598711595 0.17477305138125385 1.4524094909421825 0.5955716218318452
Ni 7.571646636934296 3.1374088075510183 6.715219258131061 0.36962667556246664 -0.7693794810863523 -0.7227000747519424
Ni 7.3709551678718395 3.8933563637041826 12.395863350586776 1.1214252103422622 1.2878473186556596 0.16990569598662353
Ni 7.935100453330589 1.6029812652041784 12.476202762714992 -1.0129753076682748 -0.09027014644116711 0.6163132252545709
Ni -0.01717546904086816 0.28209233399158257 3.336440584513112 0.8400174551188888 0.9469684046498466 -0.26555844689594266
Ni 4.590830247892039 5.466388156769619 10.461646924674692 -1.54069320308094 -0.3632220575877035 -1.5996000047194774
Ni 4.268474908760649 5.783980085805054 3.932990186132496 -0.6702991925527231 1.2096888678763618 0.14643615210977362
Ni 2.449752424092424 2.7232734329487456 11.232256969739364 0.7702639405738347 -0.05501595122456331 -2.3288815893436796
Ni 0.7900968932170596 5.342276944112016 1.0107018544464055 0.17592336293561314 0.20837248460325403 -0.6121876331219714
Ni 8.165807032072479 6.134381408395108 8.051939026479484 1.3002426069962187 -0.1743645030889255 0.14699382438545652
Ni 7.377987761517442 3.5494344040596104 0.9370874772016909 -0.08193462999227824 -0.8583337369295734 1.8775663383614696
Ni 6.2948089346386045 8.771941589991243 10.018872953389218 -0.1518246701151966 -0.6953859603180218 -0.21875279939631356
Ni 1.5137798474033493 8.502021269081471 7.699770178686504 0.2694647239288843 0.27931899101514474 0.19733679561438272
Ni 6.209301972699599 5.787955845412701 0.41623014982950984 -0.4192908755568134 1.1124237781746003 -1.631812842006596
Ni 3.211860532279136 7.479482153010785 6.316210523620904 1.358986914914963 0.6290232166220716 -0.08754477709020407
Ni 4.325288888625595 2.9346263139779363 9.095256174895892 -0.47995836864019914 1.1404130642986745 0.6979511499420367
Ni 5.76971798589177 1.394694595004471 0.7978608766018053 1.583015875108551 -0.5972518377477456 0.20393373210561005
Ni 9.36442353944601 3.1251158338585046 11.331919136168239 0.1302230326850209 -0.45465999908472665 0.6511097641084657
Ni 7.45955647101491 5.539977216677209 4.552842990055949 0.43353890083539526 -0.690020068020418 0.4042206114872522
Ni 5.987184534996873 2.867160298937784 11.003081621053909 -1.8518897595309718 0.12987979041298925 -0.5428575792675812
Ni 3.8708895712043625 1.5950109924058284 13.086051467757787 -0.2534866033330731 -0.5796148413922728 -0.33950388803515724
Ni 3.764519248116734 7.642122602054766 9.425398001711693 0.6925297218161492 0.6549939296542204 -0.4490899611961169
P 7.0943679481860356 1.071767271589906 8.154346717467606 0.2679493157256224 -0.032565335530531016 -0.847623806711237
P 0.1937910881773906 0.49526525025625523 11.33334628383872 -1.012478056316882 0.7142061783483183 0.4168951216311272
P 9.008058577444483 3.7594651574834272 5.083929459305447 -0.8997287549365923 1.50942550331591 1.7980287478464585
P 7.779698887345816 7.045964950321231 10.575225187409488 -1.5665564440009472 3.063978495098078 -0.8221871118056872
P 7.939591936472248 0.937539438553315 1.9215352530503311 -1.1287181444592496 1.592185200312645 -0.7119168680935094
P 2.0509293500545107 6.123401185516439 2.8361503116772853 0.7118875575174708 -0.11035123346175833 -1.1492010949039497
P 4.110869796766921 4.988743773151787 6.131212990537976 -0.2743202522489727 0.040828861090903876 0.5664464223311148
P 5.753336731093279 1.9132592968481854 5.019166773262666 0.7185785963844011 -0.9105734109605803 -0.42001952619272176
