# total energy = -381169.96079719235 ev
CRYSTAL
PRIMVEC
9.18874772445693 0.00000000000000 0.00000000000000

0.00000000000000 9.18874772445693 0.00000000000000

0.00000000000000 0.00000000000000 13.44866110759409

PRIMCOORD
 96 1
Ni 2.2307982659127465 5.377714695192813 9.30742882601359 -0.3187082914460447 0.046003720423623995 -1.4574722501770705
Ni 6.3717901955511875 4.870146639946233 7.6164345806505835 -0.008418820191314534 0.6600741723906052 -0.13112471856368385
Ni 9.278797606502694 5.688891642057749 3.5041694335009614 -0.8124264328744976 0.3565485022222698 1.190624652156059
Ni 4.24383239588124 5.251452110610764 0.8430134041302672 0.7691421682645657 -0.6381519183962171 1.1926231706433268
Ni 8.21243422659356 7.788428644543194 2.082377015824576 -0.8189382658510863 -0.11690317564766319 0.016567931661010178
Ni 8.455550117931297 6.746020330350192 5.6214728800071745 -1.6590809336939298 0.1717239801422849 -0.6359518254211047
Ni 2.306587058404759 7.837900863114603 8.939204456827191 -0.14024622124897781 0.6472842197147884 0.41484132442589206
Ni 3.312359834810944 2.352301079094352 1.4227471285808377 -0.30771271166648945 0.7410400107117109 -0.48872171665512604
Ni 1.7146295426530096 3.252283801189123 8.40821060774221 -0.47417004409319624 0.6545509285795308 0.051287080309750384
Ni 2.1268183949331623 3.177459827224228 11.108136721031618 -2.2914779518842407 -0.5737640390384506 -1.1326131086382818
Ni 1.9865705360818544 5.6976117637933115 11.505505041860465 -0.4357711326000237 0.11323086900239855 -0.6395909648355887
Ni 3.8446456218474743 6.644438722566585 10.397133463280655 1.1336670038240928 0.9404504010256706 0.43176098299936616
Ni 6.420490559300904 7.617995748914939 9.728223859555627 0.6914609142320027 -0.2403760340930441 -0.049828750596669025
Ni 3.9571985945965844 3.229780557637603 10.050628537451841 1.4993375229522885 -1.4954343312431408 -3.7819161154643703
Ni 6.186627737075613 2.0053155817515567 4.411389213423899 0.4649282137799542 -0.677483369005988 -0.0703708364140788
Ni 8.719809318134715 1.3004007883440958 3.804760942811243 -0.4266717414019168 0.6404024049932906 0.2818181032879147
Ni 8.977866113520951 4.4569378366517 6.3217179517433895 -0.021149894604737773 1.0762316445247595 0.9112994904933274
Ni 8.426651505857174 0.7852428273508624 6.448995892965881 0.4264953637250526 -0.6618202085474344 -0.7320002691069458
Ni 6.43827078644349 5.9452301415909306 1.4787203862754417 -0.4011466005476188 0.47089985798235673 0.9653528206943053
Ni 8.134293114644956 3.4313081760826587 8.353783816315357 2.793928073869053 0.877697743278482 0.25298343844440946
Ni 5.51158556301727 6.1833105990919055 12.199751698982375 0.6834820097915841 -1.2001996974390041 -0.37099835909901263
Ni 0.8808489923898587 3.273730338734753 2.9987019260191343 -1.73644491359639 1.6751534137757604 -0.7322280688470357
Ni 1.564531346077231 6.460443235071427 5.407155443391698 0.11223302386550348 2.026933290964793 -4.287201392905132
Ni 3.3285044648313686 6.993978691819271 13.063922195100137 -0.613632335988298 0.05485140062224102 -1.1235144887711233
P 0.8395676236762778 1.4006867826770035 7.9390809226159735 -1.9107004019112772 -0.9732378798693369 -1.436216683232404
Ni 4.8278967772063845 6.852177934576699 7.929371172734025 -0.3558039107467614 0.5161746706597562 0.8775162233952951
P 0.4076091803381035 4.312527475011973 9.984017466339681 -0.523342134942473 0.041050233073090595 -0.9965917241039287
Ni 5.023019838380958 8.416277409503696 11.954447966775051 -1.3087470449228042 1.7669921902556278 -1.5861492785312101
P 2.3638513351761246 8.09671113582678 3.4382576261022644 2.4686339016753744 1.2203095808150015 2.8126765581211495
P 7.89580835223738 7.655439896514956 7.66550800756412 -2.529037599574412 1.1623857119150238 -0.272051510819454
P 5.084823356603712 3.4133257964867725 0.1766821630596103 0.5798848072242078 -0.5102719320220761 0.8064802425933917
Ni 3.6854965086125495 9.1925152639348 7.180213477172128 -0.6079483982296433 -1.6774262689703368 -0.029351456578923643
Ni 4.900625716655254 3.957961260670401 3.2527606972039553 0.08540587637033033 0.18824691749797257 -0.49276683325877724
Ni 8.869025394914273 8.589191267058824 9.366912185397323 1.1842987099380313 -1.0651633025257399 0.5729258594078714
Ni 4.159847240282671 4.426642534900225 7.842304111097408 -1.1513055428414622 -0.7340134428822327 1.1245506433451216
Ni 4.691756288656232 9.105883748947567 5.092671466165719 0.29120417248850494 0.3377115720214249 -0.8412914367353059
Ni 6.163582357399331 3.072386495247244 9.1998396148678 -0.5889374043447793 -0.04150943209769625 0.9093829901969047
Ni 9.022753146901588 5.429337080767512 1.2484485267206002 1.5749611231248748 -0.23868321977165347 -0.14742885504034609
Ni 4.164616200430992 1.9195845640563003 12.236707924070108 -0.5877881212316844 -1.7014557991157149 -0.4612466511633088
Ni 5.778932182507462 8.214602771092604 2.556469543679345 1.5859230214530171 0.6053384714106219 -0.11505506669533089
Ni 6.100749699414319 7.100503845960868 5.8594072364169 -0.464416050030226 0.24663898428362038 0.047876511966304644
Ni 4.833602989638191 3.4871298194372873 5.80036769355564 1.7026163950827193 1.4510496344801784 -1.0525224738332777
Ni 6.656099243622885 4.886199382487884 5.369794913397363 0.6728013901492864 -0.5149436264661326 -2.07578193703638
Ni 3.8616080504289796 4.249759138262101 11.903127891005514 1.4553513471793258 2.9646909756496487 2.6842594682966157
Ni 4.6070360332274785 6.147208008681973 3.4361056213493995 0.33472497858927514 0.4296285100373956 1.2494175539245516
Ni 3.0728183663974775 2.6122231902996815 6.438264354319976 -2.274307353642225 -2.0937063827252844 1.2788618273275976
Ni 4.814940642699384 1.8296359110853604 7.716236327970357 0.26011105062812623 0.7324766945227321 1.029751498685349
Ni 2.0723199312728657 1.5741243988611373 3.502610102986183 -0.1236266104144258 -1.653023157535624 1.651947150862626
Ni 3.8313219374253817 7.442564174441429 1.7861841601231603 -1.0710238750715748 -0.08544007204237543 -0.29762781662666166
Ni 4.0155471436174714 5.847039181774047 5.886021525768728 1.449585391229826 -0.606825854589426 -1.5801336684647498
Ni 7.749146747367714 6.492732495112278 13.12968606365801 0.0604324942544443 1.61932370840065 0.1397829084593141
Ni 4.498884470711597 9.011441798264626 9.69141465443393 -0.46811741014121316 0.10316037214027395 -1.06405618550449
Ni 2.186480934900504 5.1887389063481555 2.638506684727925 1.2144862892650052 1.0141541584677243 -1.172757027847019
Ni 6.752636228821853 2.505201843772709 6.580833290885091 1.2321479682108265 0.43310207040829285 0.8203737127460322
Ni -0.04931876648185969 8.721435726508998 13.325753728114371 0.956007117813347 -0.49596271448825546 -0.19311812954734484
Ni 1.46002771646864 8.992016785252002 6.06685240849494 0.38758814513689377 -0.1367351227719258 0.4901540782262785
P 2.777096893462167 7.0260566106589435 7.029534551730503 0.09182540674342894 1.5527755881667709 1.1201057201998903
Ni 1.3744620962351748 7.453076102013066 1.9011023165758887 -1.8962263766648182 -1.695355342644932 -3.143242263126412
P 8.290823434734849 3.3077654608722917 4.79159662871709 -0.8345523182392595 -1.268439603553009 -1.62178296857442
Ni 2.0341866275820495 4.893247152109779 6.686310927768677 0.5343510844584668 -2.9007669233021787 2.3446838464832584
P 6.8390288363642755 6.5883965492629 3.7361991005247317 0.470328558859919 0.1443533014388159 0.00523682291890711
P 6.131927120962015 7.972038204627504 0.11548050782281963 1.4232390400258133 -0.22787455919192368 2.35666724409738
P 5.998414614304773 1.1757002909011882 10.36559584281617 1.131201830113052 0.13226577414666252 0.6454721062067142
Ni 9.495560168928321 8.166931547105145 4.056317617949074 0.42107393559916517 0.6749122658447022 -0.3503153768283644
Ni 7.475239361893126 4.208244375352437 0.09574583400673145 -1.6082867338601978 -1.5679792924904028 0.47353986670836506
Ni 3.8767327294350236 0.40960589525184193 2.759692486107763 0.7588312732568608 0.13236938960406236 0.2411797609412621
Ni 7.595860055278511 4.824083446837302 11.312717760396302 -2.6678871975861798 -1.0055206511624426 -2.085963505555072
Ni 0.5416619853705322 6.75236975513341 7.465956888787472 1.9751523017377597 -0.31095847229729673 1.6547753643400405
Ni 8.35147835947294 2.430809740958047 1.5941770033537803 0.11891712075389842 -0.600669862290359 -0.16014733104827902
Ni 2.629396960082365 9.09435187036155 0.49074989000674785 0.8054263474075807 -0.3271289114095721 0.1519509112804157
Ni 2.137376266244186 4.848240665006737 0.1901960545627629 -1.4865198023623303 -0.9392162715082534 1.123906067782587
Ni 0.01022799526222831 1.9454325118351592 10.28154177160852 0.8004165528978151 0.4057025953494174 0.030807215188843717
Ni 7.465398212916532 4.09332989439886 2.728249509746413 -0.5942709007425506 0.6179085947661488 1.541648625015674
Ni 0.7940778084348911 0.6446926586943912 1.7735018503029036 -0.38998467039352835 0.4562527974931433 0.33244852385027257
Ni 8.510544773976969 6.739349299391269 11.064912851016775 2.0228372665185486 2.066328504932964 -1.0774470049890992
Ni 1.8965943168672827 1.5833131467384425 12.658619390479236 -0.7175293291842804 -1.0844871996653322 -0.2824760485868877
Ni 1.5568679303475583 8.01538152836475 11.331303840727728 -0.466557521853261 0.6798050751606293 -0.21993087886481474
Ni 7.287614318986432 0.8813249695299031 0.35191526057896955 -0.3407418742073164 -1.2475059387241354 0.3365329783322914
Ni 0.9778114166155453 2.2918023630701754 5.6468108522788425 -0.9075554500698628 0.31838690355088395 0.12432286515050203
Ni 6.115047391111406 -0.0925940934848158 7.145394554840656 0.8930163759134234 -0.12329956609231021 0.27272513984771096
Ni 6.111289193229588 3.014653592334136 11.737090892361762 1.0706412949211754 -0.244354816235134 -0.3150025604596833
Ni 2.630040172433776 1.1764353907313725 8.967782381600397 0.7041536792083228 0.2025067698510964 0.4619223370740948
Ni 7.801724762721654 1.2118855800420156 8.582047934459005 -2.0719322242729863 -0.37356097761986634 0.4788306827936592
Ni 5.080302492648078 0.7198400765845677 0.5866289608577002 -1.6731330409116216 -1.6478547259608072 -0.30135797309305523
Ni 8.763832609214884 2.1695185063189992 12.662546661321997 -0.9552057049579743 -1.0676572725921871 -0.27804835183283727
Ni 7.301480139533286 8.860727955581067 4.759535249623597 -1.210576412687638 -0.5012198491221368 -0.7455962626238256
Ni 2.552027702955456 3.9961496968484806 4.514271947906932 0.30858842940322334 0.3690378929385322 0.6545429581597308
Ni 0.3368962521735144 4.179446839504963 12.085290223299149 0.08843849254906705 0.8021697881434959 2.0157837021058764
P 3.9070555974301304 2.333050652291398 4.174975594787867 0.924539643332685 -1.340343845892479 0.13464404457085197
Ni 5.81453858053202 2.0950437047734414 2.166848256185854 0.5497928729348338 0.6188815002023793 -0.9989383699592345
P 5.17921017479939 5.067695530560415 9.874074097987727 0.9088407445401897 -0.11480541257837001 -0.17885699164264035
Ni 7.631549152033964 -0.13552024806843432 11.53718968229099 -0.7968362917457243 0.7386997926143084 -0.8009477428109367
P 2.7825366322055314 0.49372244994505604 10.99744079422851 0.9554967538358319 0.1260539889089958 -0.1697930816681592
P 1.103541053820711 2.81149037676692 0.6587450108231538 -0.030908002432766125 1.514121880350315 1.5915758488634202
P 0.9147867137998973 6.791394367368325 13.026427509386794 -0.35697659089862394 -0.7690290397254691 0.8986447778437942
Ni 8.062758712420138 5.801968373435867 8.849528709668208 0.40883111367607006 -0.04748467584452467 0.9804619084216016
