# total energy = -381164.7320631147 ev
CRYSTAL
PRIMVEC
9.31254734062710 0.00000000000000 0.00000000000000
0.00000000000000 9.31254734062710 0.00000000000000
0.00000000000000 0.00000000000000 13.62985435972952
PRIMCOORD
 96 1
Ni 0.8624610803694476 8.568921770854422 5.9456833601406 -0.08874419671494395 -0.4528347729505298 -0.20472126100391194
Ni 2.574882077615954 4.5424556957618 2.187645873374872 0.5289273423397342 -0.07260872460566205 3.1116590890034925
Ni 6.180802829293198 7.1413734579530335 9.114024276885567 -0.4694420424899076 0.28402231002808503 -1.323842762913662
Ni 6.717941244875377 3.4010633362231473 9.474725308856675 -0.8742779189636556 1.493645614773834 -0.34054518481547796
Ni 1.437400987942321 7.103322389694764 3.8785790989867395 -0.9312839040350542 0.9194177487250874 -1.7021890777373136
Ni 5.524119244050855 0.05769774929216034 10.137354024293849 -1.0939406317687483 0.6621138285284532 0.06801930546276673
Ni 3.534353825694666 8.1521387165473 4.60231116226283 -0.6256558428117355 1.7279661867014176 0.43563692101500456
Ni 2.480657724058151 4.772242800331753 0.09972527524653507 0.8413030066995317 0.5096073018548837 -1.8247625642968768
Ni 2.24415627288658 4.220437122755746 9.423585455371533 -2.086447387170026 -1.8931150847293459 3.552317117382173
Ni 1.6014508211380372 6.322316298028557 9.185444995875573 -0.36761478733876046 -0.6112301543047086 -2.083616088368818
Ni 7.231993855706639 4.553127874964927 0.7542967747617659 -0.16672421293484835 0.8320022981238961 -0.5929640090056691
Ni 2.4313570986642974 2.1152985559287507 3.0949450064731305 -0.7856355379338986 1.8627390435406501 -0.5061494252132702
Ni 0.7658918274020922 2.5148720228297825 8.049968897635129 -0.821836413334488 1.5506546851690264 0.5841973185566326
Ni 5.666973719597079 3.2892010180835616 12.828991232399583 -1.1686885142046002 0.07321447651046101 0.7736577967467321
Ni 6.711124460253485 0.9044168997096304 3.4105165029850095 -0.7540281954412626 0.01109868101632282 0.21836764814275295
Ni 1.52433361696605 1.4603843546729651 10.101712112021485 0.5314315968188268 0.7607775983499543 0.8672616355468226
Ni 4.482166264556699 5.523709491969758 12.58299936427696 1.0937675965259939 -0.44632139731204423 1.116656071088393
Ni 0.5508977042144847 1.6774318945397086 1.9581604953373635 -2.262284875260052 0.8549743335390372 -0.3607810522463787
Ni 8.965887724512108 5.251401296438654 3.371467129656429 0.23218475653150333 0.529020930494805 -0.11934186699614285
Ni 4.184285814146199 1.3180420692281132 12.249123124796782 0.16671804228726128 -0.24335979931171636 -0.30596564706839563
Ni 6.859184649739105 7.019434963637372 6.637085052963377 0.20149169832302072 1.0404614289036855 -0.4152542435935945
Ni 2.842049747038745 2.178558689721808 0.5872734452139048 1.8117499540872928 0.26904229167948507 1.403404007577757
Ni 4.84428466622651 5.734908752133565 1.573839118400452 -1.0536905259994498 -1.227390656031499 -0.1618200907650116
Ni 7.393529301131984 2.7968280173612703 7.3035980318784075 -0.669695240420137 1.3018801425996418 0.38216748834195474
P 8.720250664441524 8.750116003625145 9.860245210630797 -0.07531866733765738 0.4161340750953866 -0.17834251390006706
Ni 3.6966715250930156 1.4983609225528547 4.894249276242688 1.4467785179086503 -1.8488131774881773 1.08753832778683
P 0.5288362796663096 3.4248196443794976 3.60213892621966 0.9484082224201664 -2.1992522243785992 -0.30657654117951716
Ni 7.778584506795953 2.536151193404953 4.919763793328838 -0.13337314827822835 -0.39822094226039156 -0.6653544469529379
P 7.172430803190757 4.73799125137093 5.781620489378667 0.5753596656603446 0.034265348940773245 0.8962497952490563
P 3.7364081644121643 2.3353540485726407 6.881958484155551 -1.2213575624635415 -3.1240332942981293 0.15803671246317944
P 1.3168035004375234 6.350123564259392 0.7216656090307381 -0.5721295887588211 1.1090736307554445 0.7019445873721459
Ni 4.051740328458494 2.166303377478077 9.937404321265623 -0.8275530041032908 0.3225240656477091 1.0784085975714202
Ni 5.401091181701366 3.107010342751989 6.003174370882751 1.2086617121634282 1.1238993829143675 -1.1514531241629202
Ni 4.4264306689801565 3.532761380106765 3.5575010932577493 -1.359489308472678 -0.346329652707739 0.2498045264957956
Ni 7.750199862632661 2.956538203516273 2.3682282717881376 0.4115297435541558 -1.0152453346493742 0.4007982160692646
Ni 9.012999901291009 7.133597480959482 12.95621273479721 0.06443313077340516 1.2787358432726945 0.24336134197361314
Ni 6.204726763300905 0.2957953710705518 12.881411561138155 1.703485427951234 -0.95856845078262 -0.9565709607366171
Ni 6.0949411432087 5.255387066682055 7.797980680307535 1.1139538416658816 -2.1501652370439617 0.7414022791471361
Ni 0.9534930927136098 2.5312993562628683 13.171414527789558 -4.8153915999685255 0.24990865617382765 0.9219394867056767
Ni 2.586364448433978 3.2403380824126984 12.142155481516852 2.8979081136971447 0.47936650069247116 -4.006967603385202
Ni 6.202892191483264 7.238149449470398 0.20945315754549512 -0.16008896700651784 0.3676453834663797 -0.15660795043645287
Ni 6.535163879064052 0.16285503337742502 5.692344823454845 0.589664769429107 -0.06171907427635177 -0.1461908688681869
Ni 1.080329986907845 7.708889402820207 10.718926328052122 -1.4711165804333826 0.342640633891926 2.8146323962959396
Ni 8.43708403876134 5.920656820532847 10.103756216153323 -0.2335214730650559 0.4318509716100111 1.449777195525658
Ni 7.16418919883232 9.083458634145163 8.393768587515698 0.30111294696178464 1.0102077722254668 -1.229630086884979
Ni 2.684285883268955 7.539158915772914 7.269510383750024 -0.3836350740264167 -0.987282530887861 -0.7692779225114816
Ni 6.861205472502699 6.293028336777391 2.443587267030325 -0.058194606062861066 0.6317807247625506 -3.129398415264785
Ni 0.35390100993435 4.238242713188886 1.3726219776850144 0.025615129464942984 -0.10727362297769914 -0.907681691235082
Ni 1.9583076335846668 0.5913029844296057 12.614635018701867 -0.8274185354079556 -0.6871658864010747 -1.0880587190666746
Ni 1.3552829458714866 8.85351321627115 8.655134539972043 -1.0241323527263588 -0.12312704507018794 0.0685918901367851
Ni 7.054208015246863 7.8782660130701885 11.063107832371895 1.5242918789047812 -0.1957887344009725 1.8327880057045145
Ni 3.9782084549961083 6.1627085498938285 8.885983274933928 0.38716622710812676 -0.16456217228652303 1.1288302445570817
Ni 6.630021485838096 1.967135928422856 11.143046738375077 -0.9329116694464643 -1.0405372764469436 1.2061446021685291
Ni 3.518541120383226 4.092752786757422 7.804345806385491 1.186623501416466 -0.14844752611284756 -1.29941702577113
Ni 4.322456078401696 5.6568137304953225 6.525088634142705 -0.4855464042509379 1.8764545933545294 -2.1704221875207845
Ni 7.714616619408273 4.077172895128424 11.825738405710345 0.5522583037561909 -1.7339517148608914 -0.5960539607849026
P 4.14131772091476 8.342729309541369 8.677283502464816 1.2801653766303693 0.02660551840267031 -0.6499849064754031
Ni 4.453669869825835 8.933759436335153 6.593264861654201 0.4842271712188822 0.8220613848611003 0.7704536879871376
P 4.353522736186716 8.833416739202784 0.20665846210146502 0.6449673986561538 0.992787262756174 1.3690818372571196
Ni 3.992559090381815 6.1255980489126225 4.106865952187038 0.9490162883178106 -2.2926442042782003 -1.0924900153651507
P 7.231891417686365 5.940241107499842 12.5985243118769 0.3854356175702653 0.15281608749418843 -0.3993242026268994
P 1.715818214500695 9.243504072002882 3.673763589995483 0.22298997740611276 0.15153182146512614 -0.28184047188541783
P 4.546339027984927 4.178474784632455 10.477105549864124 -1.2024285867695228 -0.034028807449934945 0.21396514819968313
Ni 0.1768806608624425 3.959294671434545 5.80759877132024 -1.202920953024909 -1.1674746964021572 -0.7849961045776869
Ni 9.260024530908945 6.331759220988392 5.768508422783551 -1.1358280160311536 0.480129861221057 1.4023624536871204
Ni 1.9707957595108394 5.62081142264254 5.3165015895777294 1.9419441904169072 -1.11320282243247 1.96369212361696
Ni 8.413979608915826 1.6586205489984196 9.77270074724961 0.0019085298766225195 -0.2498191817838149 -1.0946685110737082
Ni 8.630319395187946 1.130487366653084 6.812078060488582 0.9050154572568284 -2.0668113581066536 -0.2421380110894733
Ni 8.949935330991202 7.256150603396789 8.258069873313001 -0.9399685762932457 -0.05421222437634535 -1.3705267972337623
Ni 5.537436186686519 8.3525912971296 2.2159141106969424 0.3676327850608894 0.19617774230927504 -1.2710523585855076
Ni 1.9460150711517454 0.9898027146272166 7.130935023687078 2.2420942592447903 -0.1938868893925693 -1.413434909451198
Ni 6.49859350582611 4.447551526251267 3.725748091520524 0.42623568230576275 0.26535198731209136 1.0875195587337527
Ni 2.7874502822325185 5.897915580031942 11.196489584806931 -0.3228688505816375 0.06715875723468433 -0.31889263954270886
Ni 7.910310488321463 0.24995994452616072 1.456009319952521 -0.414579329013757 -0.27544253877887404 0.03202540386666097
Ni 5.687908325922235 1.422305348772802 1.1326683652301976 -1.1236654125266907 0.8316055769061098 1.1194989398538269
Ni 9.062300526684862 7.500595657413271 1.9664067559694485 0.6153500900103531 -1.9074173602846314 -1.5489672701642743
Ni 6.074760853214654 5.585842807539796 10.790428066203615 0.06165145426320995 -0.13042126473875604 -0.3235717901859331
Ni 0.9380901394832674 1.4799872667345562 5.0207341561490715 -0.6983100759433523 0.5996563334241802 -0.640762873656503
Ni 3.853532071774932 0.49211876818106515 2.8298167849085285 1.10676478011661 -0.7693879657267846 -0.9921676268943043
Ni 1.99471038097125 0.08015588835521598 1.366501771600987 -0.08444119846421586 -0.47459324767354394 -0.2483143151035143
Ni 0.5625700509973816 5.079081921242609 12.146735392277845 0.7920416985705585 -0.4475401002104938 -0.39731308573414154
Ni 2.5610436323316192 3.3750161414315705 5.087669952360518 -0.7137132978722999 1.7207359875015655 0.9130000181242018
Ni 2.823098713287991 7.735905102530741 12.982422899166497 -3.3556423808318208 -1.7546691499139004 1.0244786803221841
Ni 8.702016696832692 4.533897464795243 8.369139693677555 -0.7378844958018648 0.08744090452248812 -0.02545186441420133
Ni 2.9787858790104007 8.820807550161742 10.315673473713781 1.2707394553307794 0.7538081090106565 1.4792952595894329
Ni 4.650555744793127 7.8801378350770195 11.865660364720716 1.9076505593413597 -0.36368434193610266 -1.4907832056243744
Ni 7.630691943161691 6.767670247444923 4.294072365493134 -0.021613464504717614 1.6787874109839216 2.991756464407873
Ni 5.37639430626795 1.63589793359211 8.211101109762485 0.963214948415696 -0.46503234345798616 -1.410149810942023
P 1.2474529607117912 4.633467220501907 7.4163580795774875 2.3123956758735145 1.3906343666169148 0.7454540806190064
Ni 3.0929949590689985 7.457571688898046 1.932604071788374 0.010553092925497953 -1.3466255651361325 -0.024490014721564278
P 5.582927980235627 3.539485039255681 1.8340875651810762 0.4218709775791638 -0.1292958928850612 -1.4049685238513998
Ni 8.793000283930905 8.862034197048516 3.633350859742524 -0.015922584767527417 1.4443547389585059 1.7009161245621611
P 5.74878444760709 7.796492535249368 4.203092503413838 -0.3231547572531725 0.4847172234814233 1.6735197348270792
P 8.704680085359824 0.0615531438733948 13.106617823692385 0.1774876220989395 0.625075030607601 -0.014840664557258312
P 0.2928563311434079 3.2188354107023835 10.799451924535056 0.7385025890018379 0.3318427719454736 0.5076244670968999
Ni 7.761654295808793 2.1408149355243604 13.550078532243136 0.5194307157032088 0.013130880955003192 -0.34715009172650535
