# total energy = -381167.955164185 ev
CRYSTAL
PRIMVEC
9.26625640458204 0.00000000000000 0.00000000000000
0.00000000000000 9.26625640458204 0.00000000000000
0.00000000000000 0.00000000000000 13.56210289565905
PRIMCOORD
 96 1
Ni 7.261001499390858 2.1385500628422256 10.288767477941875 -0.08720410592133368 1.0093796198972165 0.3099061197733824
Ni 6.952898471995687 4.046713191244568 1.04339901024815 -0.22120666025344485 -2.1577088537191744 -0.18739485391032243
Ni 5.200148996990993 8.792926816625497 8.33414241300834 -0.14245634152641917 -0.3759806428049525 -1.4524377730769567
Ni 8.718676303587378 2.472987791105278 12.741188812827497 3.0785353098663304 0.5662224792457667 0.07872846435015475
Ni 6.477632178007769 7.5889991794121165 6.431434329785773 0.7189804598085102 0.5956004181872516 -0.41769010672859674
Ni 3.3774207531776277 3.6424727530456416 9.812981346966382 0.12001292492123848 -0.16746134821118902 0.3559599767086515
Ni 7.679233984848934 5.892662673754244 -0.11664270973075691 -1.279446496186474 0.8648789942472589 0.9844892844134399
Ni 4.540984577238126 3.1825050484781565 7.672176803926703 0.4493992649064196 1.1496759776578394 -0.5654768593289939
Ni 4.785548884066419 2.7332862014077666 1.1420142180301158 -0.3760786018353975 0.39837160890564294 -0.6867974473180624
Ni 8.263480721098345 6.297514684879729 4.718703036567892 0.8372278081888935 -0.43842811060689657 0.6156023152304753
Ni 6.756982011598212 1.8203653484152975 1.991337046414344 -1.5466355367073041 0.46840563080559333 -0.17152600519886588
Ni 8.321570882864972 0.2691606579837136 2.192937428526232 1.4752655696047496 -1.3078188766815797 -0.6776474053876781
Ni 6.624187290226777 2.07793947931766 12.769845637565009 -2.2340549338800817 -0.20296956842012787 1.471716933021543
Ni 2.0981028533811754 2.9221325081239646 7.854315267589326 0.500994363374892 1.4575833218336383 -2.0248548111692095
Ni 1.909265812921441 3.7018045931783115 11.854850996376117 -0.3306371816731467 0.5905248034365572 0.4087758349581024
Ni 8.895893458442494 8.659316664685319 5.288853943485767 -1.5516666713733083 0.4226744473170656 1.4355448539763598
Ni 2.5484707162529796 6.511787599330433 2.60452044834645 -1.26755360140363 -0.3004177206669729 0.15997018204046642
Ni 1.1968018859933245 2.0106571911397255 5.6809203739435885 -1.895849967162006 -0.3313920575613003 1.1277586087594578
Ni 7.060859626046248 4.112911327416331 3.721847505907808 -0.4030106503395511 -1.8105271374237852 2.0944381186849865
Ni 1.0471333116027441 7.480611777564258 8.64433498123592 -1.4678350814686334 -1.06779919748669 1.2810117837910648
Ni 4.816776168346771 9.082969910174256 10.735055408093013 -0.5504662448527745 -0.6438651667309105 1.128605015920153
Ni 8.662559854447373 8.797856465063822 7.716212834515879 -2.4140678935040363 -0.15771146791327678 -1.9625271567745812
Ni 1.412029224859719 7.092670684483771 6.2533906248541555 -0.4151706827408527 0.9691534253873182 -1.4145024314837638
Ni 4.2773873796348045 8.58085927121299 5.590258394083826 0.1775552421120813 -0.5899650742783452 0.7882657764678941
P 1.8385272110828024 6.067331608082033 13.18903625394136 0.8441481894578108 0.204779367935357 -0.783662730478244
Ni 6.640690492987402 4.1983647445182335 8.067403027838411 -0.10416438792475609 -0.23527213720757545 -1.8239279842107232
P 6.437889204037908 -0.03227529788631935 12.8428507657345 -2.1899962529979704 0.6305885042266623 1.455349804517429
Ni 3.510261805831377 6.447229590552625 4.871439668473376 0.10338431522562196 2.9514060856152846 -0.6378729537032176
P 0.6327694882179762 0.41050164769098435 0.1571371770997685 -0.02659626243128968 0.19653384009711314 0.5389728995011943
P 9.238216770955571 3.4577128654296323 10.551004389096425 -0.31962720371588826 0.38013811661675173 0.2696912381173936
P 5.613229443855634 4.727208533375291 13.219890108086254 -0.9264664280417527 0.8910152863229945 0.35884192624213684
Ni 1.70481513032153 2.613816356830145 0.9409837106907029 0.17678313983274715 -1.3422063530225143 -0.7254655533122216
Ni 1.6912771296290683 5.265791157774975 4.574849964733498 -1.1545417903905728 -0.5588115314936764 0.3937094275432832
Ni 1.1418900501935114 1.90504966623077 3.3791609561413813 0.4702110594454483 -0.8671220246451647 -0.8519298902857585
Ni 6.921189342379259 8.946672543859805 9.836932766671975 0.4550590342953582 -0.340063360083053 -0.8165875062307227
Ni 0.23733848003843552 4.5183656452119125 6.585581285924928 0.21101557865305592 -0.33590280094746017 -0.6921443134522725
Ni 3.724701512898416 1.2929670955664696 8.52851511507908 -0.33421255772923086 -0.7647106148557733 0.13294017450586784
Ni 4.275645323419759 4.481319151872787 4.953951049148271 2.7683756793212453 -0.30206914022746684 -0.6320735734126212
Ni 0.2425878143247322 5.652286714847233 11.49256631419042 0.874624503669797 -0.4720314004836387 0.024782092040686352
Ni 2.7405138814489165 8.283894284086362 12.837656102361336 0.09878409744944922 -0.45641477699230426 -0.667945861829198
Ni 2.497886222221393 9.03453518764209 10.114521084908798 0.29951294946451645 0.1638836581622597 -1.4802887338509538
Ni 7.620689776515619 2.8953993582281727 6.023201061676935 -0.4099495435512294 1.1059615674890244 0.4844511143042301
Ni 1.0233653637751168 4.944177928456733 9.146716194885906 1.6489595289892116 -0.08928567104071075 -0.4746374706479181
Ni 1.5808789501287357 2.157638551156032 9.832700867345318 -1.723904100816902 -0.7043416268494128 0.984781361732562
Ni 1.147264478942059 4.488537565657474 2.4234939354593887 0.37066565834994225 0.5651521289997236 -0.2618043791701491
Ni 5.260555722873373 1.468173472769113 5.697480100868638 0.8195270484750208 0.6095504526094406 -0.10914898562354106
Ni 8.636252952348881 6.543876645461847 7.360139324037338 -1.2417021875581649 -1.0918960905348936 0.10425720474887851
Ni 7.350476471797708 6.430012886044347 11.378428273581616 -2.286038011815592 1.6397698920701436 -1.6220418786627613
Ni 3.2227576665534836 0.5699146173780687 3.699158150332475 0.273880850718709 0.07847521068876807 0.3986582869081263
Ni 2.5669290991273006 8.993800724230686 1.5197828147655081 -0.8759452793637494 0.45048992686743705 -0.022371682826980828
Ni 8.06295893123875 5.43970952532926 2.3184553586972627 0.36917698961955775 1.7048699670035863 0.4094024127985078
Ni 8.194558305526456 8.151155160253705 0.0005485623826103487 0.5987803585771301 0.44126558005569166 0.10789403017051742
Ni 4.017413288308522 5.545817428087218 12.05988267325626 -1.2606211359498547 0.620528548887499 0.09575713769766733
Ni 0.3241058523067934 6.556506553020933 1.232774420208386 2.0806541775270166 2.6271267278393657 0.35793124150240935
Ni 0.8583314829175689 8.363296835717916 3.5936998121525745 1.6701217648891236 -0.21228776049726023 -1.8274483386591558
Ni 7.127836127760904 4.22917504725775 11.742285439489086 0.8160365188232591 -1.3594831378250911 -0.30844779006030104
P 2.3044716510689303 0.14181912854076226 5.697100184353654 -0.8539489775983164 -0.7840016018749014 0.21075229768934026
Ni 8.84408581855779 7.650693914942855 10.388449231842733 0.8989132010138325 0.3252288661733818 -0.36976731490538894
P 4.806323831056493 6.799032283427363 10.30813395394957 -0.6872476474816035 1.3893225897840267 0.32538210392179445
Ni 5.816317986755482 0.07386966989749053 3.569437046229822 -0.04602094681480461 -0.5036711388761068 0.2594536195497854
P 5.29164401330678 2.529169104040524 3.597266394265188 -0.11612618827232259 -0.09217276278051868 0.040848915695561906
P 7.313837693742957 0.6592246504198772 6.150820578813776 -0.14697531244269524 -0.2910177675093117 -0.3635825262509158
P 3.492192605728502 1.4040324455321391 0.05698469737058888 -0.44439075594823463 -0.5452559042964287 -0.19610677986202354
Ni 5.40126382726422 4.7985957731663405 10.060611858058284 1.2126114408397954 -0.4884034140837589 0.11840315723195735
Ni 2.5334315820135096 5.205579023278319 6.906636686604097 -0.9267973290186102 -1.5825052540207196 -1.5564674351960615
Ni 5.058078752900084 9.229932737677638 1.1514454138581702 -0.4054246590976824 1.225849279686308 -0.9233379097151001
Ni 5.7279734976371195 7.358223062200787 12.942721551267203 -0.08256480737710943 -0.9553188334970709 -2.403844416003815
Ni 7.0557075874528135 1.5893575747923923 8.091218233574 -1.7325643475950612 -0.8738423740881337 -0.8175334150837597
Ni 8.091341474784958 5.161545772566083 9.437406073135785 -0.20386045566551345 -0.007011655431142763 0.9995405223196075
Ni 2.976933148846221 4.640708029293068 0.9577778739042669 0.3644412747067852 0.1961111507373977 -0.9555543465466446
Ni 3.590136936542546 5.671421534443354 8.692169250349284 -0.8364204817962497 0.03602989704036376 4.4675231420187576
Ni 7.992776304787893 0.4112142228129901 11.726404929162776 1.3784558222728516 0.07917737896211526 -1.2756890860265708
Ni 4.711048182103797 3.19251260545821 11.960527091582899 0.8086996188422138 1.1186563893478734 0.3769404356150605
Ni 3.2118327501835915 1.7594675109403783 11.355087500176932 -0.9599748442118435 -2.5455309692437447 1.2635815041297593
Ni 9.131256372603016 0.5436262477925019 9.47992336429067 -0.1663408614535006 1.6746242807451674 2.338515769999334
Ni 1.4775601905661446 0.5993488810328284 7.912212691221522 0.5807715807045354 0.35470887791036976 -1.4957122674948757
Ni 4.563269924031671 6.218844167508752 6.984361119190201 2.7096398560429336 0.9869475161459456 -2.8025474401069475
Ni 8.80459303351243 2.9028679609373613 1.9985387809373971 -0.5736393405351282 -0.05849002581609281 -0.5898434610988165
Ni 5.948621596534378 6.394467526252231 4.154804072885611 -0.6327968247318908 1.281032095506039 -0.12101719781603673
Ni 5.153743584624226 4.867907371509675 2.562409945850289 -1.003108442176524 -0.30634565611563375 -0.9988784632555764
Ni 0.9129162198642374 9.387366434984221 11.57056224809089 0.7627432067167573 0.21063145584075982 1.238065619246842
Ni 4.222040029781231 6.738403167389871 0.8223367096869962 -1.918655652202612 -1.2842382611481624 -0.5274008783928787
Ni 9.017967121086222 2.6946829769828557 8.043574849343775 0.6352609700016673 0.36546740197845445 1.0961816052841251
Ni 3.2509641512268943 2.827357237020271 5.664958320560403 -0.7037189056637493 -1.5533358315456152 0.579999221314885
Ni 8.034011146048298 1.7258309999796424 4.035892056947063 0.1357467907167275 -0.580267130264291 0.8828443204764279
Ni 6.374313418445178 7.287892175646522 1.6397530371921327 0.7821640344455304 -0.5059254821279222 1.1238878129501417
Ni 0.15490030278959724 4.644340401826569 0.10048884483878695 1.370380244353569 -2.8467290197201685 0.456868062479639
Ni 2.3518500203643136 6.82867503785254 10.621337128901983 0.18386755748335432 -0.8654780612838385 0.6217652495080777
P 6.334542645705929 5.099841770778882 5.914242858430954 0.4590157049502611 0.1014385043531608 0.4955276838333659
Ni 2.8834180886214975 7.9528109406629195 7.869179269581646 3.67258381018543 0.6969934140144577 -1.2563677599901395
P 4.998987835435452 1.973165917490376 10.088102061107103 1.219702800468938 0.4423189610208704 -0.3135167199427762
Ni 3.2166048722620433 3.0605796459378363 2.992613508032931 0.3100333893798661 0.33775039567916026 0.4264213159540075
P 4.260624721693215 7.680596124548997 2.6549576089002747 0.8766142804063161 1.662496901354014 2.0611472178423402
P 9.439350133741724 3.7257671323916624 4.199397005488213 -1.2114601008441719 -0.5467031782659165 0.9694323900803176
P 7.52776775670453 7.856330678370032 3.3426380062924173 1.5365982070759598 -0.15782511067300561 0.9022201538998784
Ni 6.313193190815146 6.687929868435841 8.663390111026459 0.48322649786850963 -0.1807765772628564 0.6523279527862831
