# total energy = -381174.1010570035 ev
CRYSTAL
PRIMVEC
9.17218879083418 0.00000000000000 0.00000000000000
0.00000000000000 9.17218879083418 0.00000000000000
0.00000000000000 0.00000000000000 13.42442543443753
PRIMCOORD
 96 1
Ni 5.914548406182766 8.274965349414915 10.772188241211797 0.5544630247169935 -0.06052788218172801 1.094304185755754
Ni 5.2188470530295445 5.371674063883201 11.063901453064561 0.2160109749851183 0.15080805592522414 -1.2356079017349688
Ni 8.690034412082092 0.8363348561309395 1.75791511834595 -0.7413809389908974 -0.08026778381281659 1.0981880941911928
Ni 3.276287517879258 4.7519551232801955 9.516534847312942 -1.7314384615207343 1.122238707382493 -0.15859952694518492
Ni 7.640304913152289 5.126262978635307 2.230092063318794 -0.9063418893777359 0.17872817937425994 0.782905026376613
Ni 1.492104167845408 4.31152495840378 3.9154212306509053 -1.0190829632279095 0.6320522332563825 -1.273102299136001
Ni 6.9796504936488 2.4717214550980193 2.722406548942772 0.7275432617768567 -0.36530799358245475 0.46465104885916747
Ni 4.721916204750265 0.6304760837028227 12.512357008543482 0.1976476419865822 0.017766579954801662 0.2041080528999452
Ni 2.0058659826903145 5.349073790522056 5.910251235699933 -0.3931998348967164 -0.019572779925605 -1.2217332006354056
Ni 3.2093213669824543 1.8214224368221013 9.121615249142422 -0.14502795890833733 -1.7181304315579184 -0.4318198612617596
Ni 8.29649247667896 8.561853072706276 10.40762125043036 0.6099777699548463 -0.13789057653260767 1.5324268493070898
Ni 1.0288444248862434 0.17823305678833012 5.717704060970286 -1.1964785398336748 1.1091890732873866 2.3802861690679005
Ni 1.2312471165503667 4.832734590606336 7.963248510868432 -0.3743253665897166 -0.3422418557916106 0.7609454913863862
Ni 1.7443301894193297 8.263142397969089 11.448833454780958 -0.5926732172381276 -0.4619076817860755 -0.8355686753189158
Ni 1.9941072365665362 5.504560736146301 11.600905594491099 -0.56720052688832 0.8786289968434997 -0.692469043781543
Ni 4.798696597731656 1.7156579270301489 1.737805094261408 -0.34581286097232056 -1.9700900567235036 -0.02716627600214676
Ni 6.568406233737955 0.41225778678032926 7.020531856634986 0.4281066740762305 0.06891379225257808 -0.5754630240074283
Ni 6.1604914783847775 4.888776664565995 13.199002659631175 0.357036754712598 -1.410517735804403 0.5111666759222036
Ni 8.254859911424806 7.639708720876123 5.688331960570775 1.878518417862094 1.0795668795455793 -0.38325069410380447
Ni -0.13961630723269083 4.286044617739306 6.048576098740559 1.8645935802508857 0.20235636031616117 -3.3656635125132484
Ni 7.135843697815582 6.616358437119477 11.879569533246906 0.4824227710202918 0.7499008035364504 0.3565862974387407
Ni 4.836632770873579 3.2812038111104163 9.609271180042324 -0.08946204871757496 0.7641254317762647 0.6036400006622765
Ni 1.6630370795168 2.7508678509880786 5.689808682977895 -0.6052875635680285 -0.6856959867237675 1.5221750896720947
Ni 3.1449876342896474 3.581886506453385 7.36920436133382 0.7764471865664111 -0.24711078171371637 0.9335025089529279
P 8.06452782030584 3.810961923334315 4.020374001728385 0.7684086325326509 0.453900752321199 -0.2438668208551219
Ni 8.595239840171605 5.201961053330734 0.10805388813243183 0.8106181760211651 1.3374061034203935 -0.6149613392123667
P 3.9064627537873378 1.5079995711468954 6.492723751763595 -0.037614725028980375 0.3538717267210551 -0.12043510006032161
Ni 0.9612270485800886 8.53654700363022 3.655404351855816 1.6343569485846885 2.1006262497735695 -2.153776351433988
P 0.10044188859411417 6.852936704491241 11.750977279809979 0.454220854664779 -0.27951130953160896 -0.09543060759618403
P 8.263490941145925 3.362496921012946 12.579022311645543 -0.7791599575118839 -1.0285585068185126 -0.2692430948363814
P 3.8893566215557893 -0.011002040542489515 10.606182629398198 -0.6836157071559711 0.5137022978598637 -1.0567110579933285
Ni 0.24443699879052697 3.4489356288682367 1.6656759182530019 -1.5582304406337553 1.3435680092567313 1.3788209189217542
Ni 5.471128107736651 6.307200639266077 2.8794720282705297 -0.1319616126426824 0.5137413786279151 -1.274320230703502
Ni 4.161522981720267 7.781547449470585 0.7857273040732606 1.4594774535325572 0.6906685002376944 0.9789596128444623
Ni 5.596236763842993 1.5002032106124095 4.679634248524531 -0.24732289772452248 -0.5110301503443392 0.7673948465561559
Ni 4.793239145357517 8.887401572059824 3.4419289937949498 -0.808882167166665 -1.7734508013967778 -0.7695201204292746
Ni 8.120340589543895 0.8182931606352523 4.343714755222344 -0.24687706843635543 0.09185034644409341 0.25179250346010185
Ni 0.6539302878472161 6.636152020688207 9.251764940248474 -0.17699294185070807 0.42406721389953417 0.9318204932648145
Ni 5.479988442179374 3.0491107440931966 11.840718892875232 -0.18540147762937748 -0.6557459773288965 0.6818753274260966
Ni 6.989822451099089 5.839483212518959 4.747923946274424 1.130718205608414 -0.37553918439215966 -0.31674448285145446
Ni 4.002192888961964 7.3106197566210325 11.816837264729772 -0.3464576936451711 0.027123852799985543 1.7281664756376816
Ni 7.352114739042226 1.5400196824714731 11.430414782322957 -0.5902676931204286 0.18014357166454784 0.02150316417909845
Ni 1.610902358013248 8.932060959639132 9.063608492328074 -1.6094761261826087 0.5737995202620763 1.494225398536704
Ni 3.269279965587084 2.388016059524231 -0.021673882285871384 1.8502792205107426 0.7523317815754462 1.5140537461165409
Ni 2.2457737546197483 6.7404673246396305 0.35704396147509865 -1.2914062396515114 -0.019962816275172074 -0.3526481387265991
Ni 0.6695523599205534 6.132094381661519 2.0465400542081715 0.5605819931305378 -0.10500051067280626 0.846232325680349
Ni 3.59902932744039 6.294322886100879 7.134961333246855 1.1908678785151168 0.35964153932529674 2.1083326172788914
Ni 5.863697791120187 4.514551358910662 7.008919865533034 0.12687442792776213 1.0489393844677097 -0.5137316084359024
Ni 2.541393401709733 7.639717893064987 5.465378979756633 0.1826948773314918 -1.5200847828019692 -0.8877348157995097
Ni 3.776391943505517 5.086694155875573 13.1589843996171 1.2682933077831318 -0.04313385507499668 -0.48856179403849403
Ni 2.9592966707359163 8.876734316410873 7.345550203472189 0.6462143836893774 0.7805486103292945 0.5716626764247316
Ni 3.2406077031979037 7.056485919763377 9.67411121756043 -0.8279947196263999 0.804983089222575 -0.7985954405286763
Ni 6.836628552690869 8.817105916605351 13.404853177089313 -0.18879096292690067 -0.2912663931850081 -0.6875348397047191
Ni 3.076865787595967 0.571583293444201 4.596429654462722 -0.1866320076023689 1.471779410828362 0.7370180340365113
Ni 1.0123895180640456 2.2960648661616156 8.194014362157017 -0.48993733422978203 -1.447433634994146 -2.4335098042787315
Ni 2.682287394851193 4.456711535933639 1.5585089807837287 -1.4589961430207645 0.27437887340105005 -0.23907351323153664
P 2.821246056142328 0.3941583064947982 2.3989584808391036 0.4459637568623094 -0.5558380506876492 -0.49992658423201003
Ni 7.391958727467882 2.7968296893860902 5.863681281180232 -1.201727704047756 -1.8830348176752085 -0.1640204408504401
P 3.6504119294570856 4.827625681409033 3.384592723986566 1.2131544578274591 1.2331118747859924 0.13363668635226017
Ni 1.344807986876805 3.4073764411249936 9.955392899018051 -0.25940862524446295 0.6616235191555959 2.3822137251079165
P 6.609020686028195 8.360661109972213 4.5762526733994715 -1.0921611712708224 -0.053163985617489085 -0.46463690779178046
P 0.19681040811368092 1.3186947651807088 10.623862023433754 1.3404788288084464 0.08198322384202655 -0.7817601141388923
P 8.671561623709792 1.2083349887678416 6.823165613876141 -0.10463772801674884 0.37412404921218795 -0.21525661331759702
Ni 6.996105400470998 3.5567822255323396 9.898486804867392 0.5799922793363496 0.10542037181904425 0.2478363470258312
Ni 1.4678162117332676 1.7263251826790988 1.3118844149491136 2.1013608139467492 0.06037438732299924 0.2655841579275555
Ni 8.0870730605338 3.6629594838231765 7.847422109892561 -0.3717612054069662 -0.02124991051771179 2.270985231247528
Ni 3.1348523655948157 2.7337525465676653 3.0538692756758925 0.5621855901722318 -1.087987499509107 -0.3652087490004291
Ni 6.6226046977359285 0.02411827061815438 2.2764336303357795 -0.9627007277834388 1.3066809064223948 -0.5793330484857957
Ni 8.187811210828224 5.920409434866925 7.190753006450524 0.313852248905324 0.9188443927201208 1.8648514618979624
Ni 8.654235358945504 4.817040975459858 10.8590442836604 0.6837023533325064 0.364872705817249 0.5867355115974541
Ni 8.20023952673908 7.8127695803639865 2.878612594173963 -0.6859723803136057 -2.1466680225239805 0.1359149408634756
Ni 2.404746132012352 1.6942592104102006 11.46694302447424 -1.0680223692410897 -1.3323513146053052 -1.2954896656922656
Ni 2.155253422719932 9.232908754381656 13.421445666744473 1.3107355361077424 -0.5217809611029401 0.8149561412748868
Ni 3.823536994266998 3.4360670478919024 5.1939106231647125 -1.0147020605513943 -0.2809727245684838 0.6252079566410395
Ni 7.235820556434286 6.546530563297073 9.483564497222043 -0.7884763498168034 -1.0805809226323906 -0.5223849132355262
Ni 6.681013196422526 2.147713883473641 0.43035726706586036 0.8914032657900325 0.13846341831694217 -1.1467102101612963
Ni 4.782727816919255 8.546865716102333 6.04197120553952 -0.8180872307047007 0.3823711197123286 -1.504065010334945
Ni 5.770214842217266 3.77610760565073 4.396204440434936 1.6695651210547053 1.1899175987867057 -1.4492550044736008
Ni 1.3061196942480258 3.5734022317540917 12.936864253551818 -0.4628499910946867 0.1324974305414944 -0.5090339458499169
Ni 9.11293652403921 8.011732701204071 0.42161433664059905 0.24539174214008064 -1.1381309531327173 -0.5091977251212908
Ni 2.920369901196671 7.171367585286246 3.2404545276438728 0.5318756263347808 -0.8498418974084784 -1.3951268551706295
Ni 4.66501194503738 5.801831377231824 5.073975998796611 -1.0344784718473732 0.7690938315251336 0.29020169936591955
Ni 9.043218716483176 1.1824143830378915 12.9487578308519 0.9918475245507239 0.4739198757556031 -0.44484944075220806
Ni 5.788889418744577 1.22483575653436 9.77691494478705 -1.3549952772570664 -0.9386182329129383 -0.05229932362434864
Ni 5.337727792897161 3.9556073417211928 1.8186872901028261 -1.1669669035278032 0.8489540954868864 0.21385304810185105
Ni 8.1787215716639 8.364485912728544 8.161460429440547 1.015787066085457 -0.7830058136205355 -1.4616868024790506
Ni 6.247205351905991 7.061796617115692 6.685391082167362 -0.15273638329618855 -1.172572936860671 0.6281297582735247
Ni 5.200970456933412 7.859400988549077 8.64749104847373 0.12997646389185358 0.855517864747333 -1.0613907228571848
P 5.13163788130967 5.6584792374747845 8.68038160052151 0.3137866857747112 0.25699435937601545 0.5485011507066038
Ni 7.839955948157182 1.5390474304518784 8.827942857748287 0.8812510078473791 -0.1434834972393529 0.8205806865505157
P 6.696394957147623 6.682911839517395 0.6547539504072124 0.03532670032575207 1.3160590052031849 1.7323391189581328
Ni 5.476769003888074 2.3532259471626946 7.680650620308811 0.3828362322742052 -0.2907601429725508 -1.0048508787889274
P 0.6177515060916549 6.670740344894733 4.294406902326708 0.31458064243091627 -2.744002135572887 -0.036769346309549575
P 3.4208320421886302 3.6750117399906057 11.556926783325506 -0.8252564947596304 0.19949523671828226 -0.7782490156618403
P 1.2397497356273888 7.372128455143695 7.200794718818942 -0.5999044448792442 -0.3023496475823632 1.2104254889320702
Ni 1.1659961649711503 1.7548323456687256 3.7588253673929906 -1.6128532701849578 0.15470739097963032 -1.2703527614153218
