# total energy = -381168.745180728 ev
CRYSTAL
PRIMVEC
9.30169395458318 0.00000000000000 0.00000000000000

0.00000000000000 9.30169395458318 0.00000000000000

0.00000000000000 0.00000000000000 13.61396933216505

PRIMCOORD
 96 1
Ni 6.124514296881337 3.6231585906839463 6.4585762608101165 0.18905141567713893 -0.9245095614256982 0.14703187671224355
Ni 6.619857400706834 8.616214844838424 0.9209253639413347 0.18362947333061921 0.2619463040646521 0.027153677596656465
Ni 8.480158968556234 2.030317928462368 6.356375759717936 2.7266435896897816 1.3287551126136148 1.8484861331660616
Ni 0.8657988752022626 7.752171199270021 11.721097005452686 3.242706931582654 -0.38637844109950875 0.11947453591926523
Ni 1.0954790908256138 3.141637803953913 4.801851565067919 -1.1520532196407642 1.3366499419806592 1.082619036108342
Ni 7.091192832645796 7.900877379219661 4.955552754627427 0.7043992195602256 -0.8360780108551665 0.956455003984043
Ni 7.945013916647636 6.28010373029709 1.1030850859056676 1.4360138231929784 -0.5019027341217742 0.202505998520148
Ni 0.9629113497458439 4.793934893412503 2.127019268136757 -2.7542220135286826 0.32204584045970985 0.5255255157470369
Ni 5.4097907430582 0.15426115153067063 4.186254302511895 -0.8184623546559323 0.6928727069778648 -1.7467923182689853
Ni 5.859527641823767 6.3938262395899095 0.09694783456202699 -0.08905041510145309 0.425694465090312 -0.18871820070743628
Ni 5.01434783143006 2.761821738032622 8.825677828828539 -0.12196696332381575 -0.15701906983194247 -0.10518614432105111
Ni 2.744353156938894 1.8045100079983987 4.3954056797572605 0.8702844815335463 -1.013403139234313 -0.3500623802772939
Ni 8.558051353049777 5.906826755168606 6.2971007155114505 0.5279644642058327 0.3021046214510926 0.4119154090283487
Ni 0.6227316617567108 0.8514314788458346 10.889460461338247 -0.41159016447844604 -0.06459973825825649 -0.9819135532664637
Ni 8.382453976112933 8.084418402724152 10.592225763791943 -0.5248971381344185 0.03549587891376468 -0.9193832959427264
Ni 2.7475994481006145 3.564827668405583 2.6548876049284083 0.9312548505693315 -0.5273360865932144 1.2345339519444996
Ni 3.429543832714861 6.566781935466786 13.727373775930577 0.9893023895313672 0.2543348102659813 -0.7546077220938164
Ni 4.388250816830053 0.3206126447576284 8.039743297220923 1.2666107778743863 2.4740067359515137 0.7209087871794746
Ni 3.528560363994271 2.6182407914070724 6.628287525864047 0.39507931130761637 -0.40478368307957385 0.18671891088922035
Ni 7.076617078346611 0.12307443231285896 12.06001631392201 -0.45562467699084114 1.450784810854566 -0.7686328327283151
Ni 4.094410307378051 2.7415347436953375 11.088836688492346 -0.40595584901080417 0.9755007077615845 1.2144343529811472
Ni 4.939478497445281 5.49975672619906 1.905302232638188 -0.5112348101559776 -0.9693627131846467 0.19063058723880072
Ni -0.20484748349027068 8.73513700100632 -0.16626498747393775 -0.17986717807470962 0.06804630204596022 1.4816989839349193
Ni 4.393478368786749 4.993214382950321 7.783419309667395 -1.2429234615597755 -0.6330459646282194 -0.5648430823997369
P 7.794986896168012 4.114250820409425 2.2791689351582285 1.6232394985152883 0.31520439205784423 1.168958222926219
Ni 5.017696441224385 8.365366764468003 6.147374139743928 -0.4059568774520686 -0.5006297809466217 0.6244857337630342
P 6.788348283524611 1.5976310345662375 10.118174237242027 -0.5876719073687944 -0.5759214517010857 0.36557513120091234
Ni 0.7494560787453839 6.362572548176212 9.628724686654541 -0.46767132374273007 0.20913918756594946 -0.11958406491393599
P 3.2434076366197675 4.819123880420923 11.92406740711936 -0.9480364409030446 -0.45548275209633815 -0.11843015381515087
P 0.32319386480742046 3.7748506143668603 7.589842688643189 1.4276124865031607 -0.9784703319128696 -1.9187662096385472
P 5.297500694621842 6.590650081945223 4.639450501228877 -1.170701430869571 1.0677675729178062 -1.5478282714638247
Ni 2.7771509295355306 6.2058017996385715 2.4937255267132663 -0.07971088286808208 0.21937783457482218 0.6347902010128358
Ni 6.239166975561469 4.8027808042858435 3.706212485107687 0.17603957679850327 0.35745455897630696 0.2391503892160591
Ni 1.7956082869618184 2.97845818833769 11.966066415295291 -0.5575344645534657 0.9257722301882056 -0.5501106612855686
Ni 2.993452518861167 8.799532627689961 4.236081616251448 0.47796627791083496 -0.3114693504954442 -0.43141979760986343
Ni 0.6915409421831491 7.335166961243977 2.3302212819808723 -0.6997280393368014 0.5096001027660321 -0.15521492674366819
Ni 6.856687828410456 3.3545907834852238 0.6185831062892974 -0.17638950393875427 1.8048971928315174 -0.7993552015128362
Ni 6.413192366233755 8.735741611108073 9.422418697564966 0.585427848529624 0.6530949128592946 -0.22496869839903835
Ni 1.1522845353087847 7.432927763850516 7.484129867944517 -0.6835100348160422 0.17383537005833288 -0.6719632105187072
Ni 3.902265217040919 4.79928336738955 4.581454439929947 -0.7256511869604664 0.9141356743905417 0.2987524171494081
Ni 7.6738509368583125 5.082715281397525 12.526962276522246 -0.5254560959616821 0.778646251100259 -0.7696044526129648
Ni 0.21417894278378916 2.5377625360167997 2.814715820242144 -0.939303431905421 0.42444670872614 -1.3996810502002155
Ni 4.950770753807254 2.734446852964016 4.2830905167474445 0.32380627479424234 -0.5461753307869045 -0.28215594624330764
Ni 6.026297711275015 5.952209719575579 6.4330086948610585 1.227074410342661 0.6683844920285135 1.1284085836386308
Ni 4.529887709436118 7.517229015422643 8.734028239096645 0.1312815558565223 -1.967604828407805 -0.39532022367382885
Ni 2.1482820101613322 0.6717190325395209 12.631707721058111 1.520800577922071 -1.191239917142555 0.33302445095840066
Ni 8.946676123068917 0.22076919289289784 8.695188086160025 -0.29125199500730486 -0.10770608252942743 -0.2505259780428524
Ni 2.575825067345625 4.555355747260734 0.4262817474950969 0.46920858632286294 -1.7224254593888468 -0.37733021485431145
Ni -0.16263546652464458 3.8227078293440853 0.12470222874065574 1.3374721807716385 -0.7552453556778155 0.4869689956300775
Ni 7.99039688105461 1.4434647603130728 1.0123321794631415 1.6290131677742719 -0.8293424919035458 -0.7697227233583841
Ni 7.5092202569978825 5.9490006351893525 10.120529426130703 1.68237512833518 1.8550277909393211 2.667223081639619
Ni 1.4232614812206466 1.6617569121275577 7.90369858297138 -0.7417516920667548 1.6541590709122804 0.9406296069160123
Ni 8.120601991890608 2.737042025554618 8.784304824650269 0.027939406722745433 -1.3978792211047861 1.035124332961488
Ni 6.754425005969325 1.4415021029058435 7.736859680985471 -1.8118016332608347 -2.408118875009453 -0.6303992710339917
Ni 3.163180526964069 6.758406130947022 6.1920148289798265 0.28411949772758166 0.1535388245928259 -0.048651442459116206
Ni 0.4252613516772152 0.6583087804826373 4.287406502704574 1.1450441353127827 2.3366380933606465 -0.11110225269516993
P 6.028371989008722 5.4629964320124715 8.906598844847174 -1.6247813890811116 0.07740408911177636 -0.6905065207385334
Ni 5.2011537494840185 7.187911845538545 11.594704658935283 0.6715191810027532 -0.3761109977352297 -1.4149850275471372
P 3.0211715666030776 1.715976485714 9.478031664893603 -0.12599048266091203 -0.2736016289153933 -0.8302040685728928
Ni 1.0065828024801633 6.227846814117877 0.21623461712974967 -0.5485314897239069 1.1704278654932099 0.03372824549038062
P 4.260501353176561 1.6719143618370096 13.329545909993367 -1.853714985665169 -0.8094642649223801 0.6114574398241663
P 1.5343051026780063 5.328828799586524 4.276801641519825 0.5416144508890995 0.16075616827687153 0.0611194930191399
P 2.407269072670737 5.710858668649619 8.33019705993372 -0.2891346915539859 2.5270491083894737 -1.121148816752424
Ni 6.4449483491166015 3.9153806054020244 10.557973206273548 0.4298421687100984 -0.8414022512815573 -1.1264121220338923
Ni 0.7459270160899205 5.3384095442758435 11.740047346380402 0.26382320937239084 -0.868670085858575 -0.06788098011268955
Ni 7.5268562685813265 3.0602758876456932 4.49248745871106 0.7055886118826364 0.7558752759523305 -0.9842062059553824
Ni 4.72250718616078 3.1474513626246154 1.2664730594646478 -1.84514369905639 0.2911244682905051 -0.28403747953673664
Ni 6.079456891759922 2.1835912401037127 12.467741182140223 0.08475872970463467 -0.7522870443804399 -1.0953539671765071
Ni 3.2149444533680063 6.323570545766201 10.369855749383479 -0.8421345014618917 0.30110420521103626 0.18667545924579462
Ni 2.718187492073795 4.036479357936232 9.478222349618001 0.7712515012980847 -1.7315580178177343 0.699383511513189
Ni 6.808198098249858 7.2162820118515745 2.9250292587304636 -1.1421400742921102 -0.9269292266107841 -1.359293390411788
Ni 2.010877388267538 2.2452335654009086 0.8009400241637404 -0.40620473179681654 0.41227587769156093 -0.2699290651598126
Ni 7.465483692406452 0.8653998325351057 4.891581285184401 -1.067473438716155 -1.1376056767568665 -0.9313252987959508
Ni 8.211256300378079 9.118627236007496 2.844325902348461 -0.714327534417531 -0.21162184477848717 -0.9274588738620091
Ni 5.270860643369214 4.351695159908673 12.379685766920904 -0.5678756985784736 1.7076040781052981 1.9680678840871526
Ni 2.573853108244523 0.0560380547386383 6.873584355330986 -0.7796266127356574 -1.2399497236434323 -2.784588541635682
Ni 4.575010226414645 7.774132498504467 2.1767786795110364 -0.2857110105844176 1.1223991442197574 -0.08518913237383394
Ni 2.118572399930573 4.52536708621378 6.488567712365231 -0.5292533582205854 0.4366759038024802 -0.09784281658210245
Ni 1.1963559608796486 0.49252469058194004 2.1585631723992966 -0.2877028442034658 -0.004140761641250934 0.2014760145937369
Ni 4.3772841197536385 8.676266580483317 13.142966953269912 0.32798663142417706 1.7936036221955691 1.030940633897444
Ni 8.006228364026668 4.91652191696641 8.223449890876356 -0.7021654451337005 0.9168924112000726 -0.2625065474434963
Ni 6.1880820728102695 1.7917573856983449 2.3543591775816304 0.15343083826005188 -0.7946012317676185 1.2458627466937575
Ni 0.4279318679881892 3.903474437244425 9.77918609623804 0.2744696333426434 0.7061614536669709 1.1100146545124754
Ni 7.784466680397509 8.084641643377108 7.094035430293424 -0.0732018781049707 -0.0858236806340393 1.1670507214908612
Ni 2.279333575139783 8.777636440312627 9.171350167049752 0.061714960511293715 0.29331916194897867 1.4616868024790506
Ni 2.329665040687259 8.370752445220543 0.9389976249674282 0.48346561046250924 -0.34066705510532297 -0.17285012332692812
Ni 0.9332296445967038 7.782606341622883 4.683995383017883 1.291701402294427 -1.5383763820223053 0.7131610249132556
Ni 4.567633983173257 0.5451192582487476 10.687278843312015 0.5675211434525322 -0.8994533897880187 -0.21649922747544648
P 0.18467489998762568 1.6415536330351312 12.984554455763668 0.30140810960470027 -0.10267211964994576 0.6443937855408709
Ni 8.33481070009479 2.647708557597131 11.499052550329782 0.056362437950128734 0.4832221269931356 -0.34504410112709605
P 7.415598708164885 7.454144927575112 12.524293620550045 0.21951924524869293 -1.8481452048868754 0.6587713944187816
Ni 8.752828822753003 6.199141786825415 4.16079649655054 -0.784286737215488 -1.327517897772404 -2.3253990301117176
P 5.325470888098327 1.4778903293375063 6.0616878659540925 -0.13271931674431336 -0.5614947347527943 0.023546676971688482
P 3.176584267835241 8.287065105444043 11.367011285123233 -0.8398385063388634 -0.5534335550112146 -0.22253232104340387
P 0.08764986136645178 9.110255711521685 6.082340416860591 -0.5643095784937701 0.03591445450842202 3.1591789889613273
Ni 3.6324044743938324 1.091014277766514 2.118850520577379 0.7489034726201876 -0.749509995855935 0.3177677819096463
