# total energy = -381162.3321636863 ev
CRYSTAL
PRIMVEC
9.36747702874864 0.00000000000000 0.00000000000000

0.00000000000000 9.36747702874864 0.00000000000000

0.00000000000000 0.00000000000000 13.71024951066739

PRIMCOORD
 96 1
Ni 5.909397894249171 3.1120257225040224 10.245395016531276 -0.11234769506649685 0.5186084769122293 0.761630947489185
Ni 4.8744977757395285 5.907889730460181 2.467090859190173 -1.1808218071330243 0.04817296016080091 -0.6980943603881202
Ni 3.3750832102209234 6.468711207994656 8.713138076825098 0.38145015055995596 -0.37782849464696866 0.8182186140762424
Ni 2.503486317384977 1.4847544640914647 6.843676322350015 -1.558742604383483 -1.2938500732063136 1.0102499383173118
Ni 7.599206428781593 4.785253822834503 7.820106523231591 -0.9775704458064196 -6.196358618699006e-05 0.6363009812304073
Ni 6.433283410168814 6.311768499170179 11.869854158363372 -1.432227359567353 -1.1660081391589598 1.7820179742404987
Ni 9.29147860975193 1.4756773789266733 3.9412169839338853 -0.22553048443977933 0.5500139878067044 -0.5312539335903818
Ni 2.7912177393888347 5.5352795998101145 6.58004179805298 1.961104822505758 1.1372277245921574 0.29397170793131305
Ni 5.160177720291282 7.267475967542414 0.1578092004423749 1.5329097024807794 1.1251625658975073 -0.15058128462639875
Ni 3.859259991348459 8.505172594548004 2.73448174174426 0.04919240256425077 -0.5423539001582853 -2.518749587384843
Ni 8.369063154460882 3.8602904138129865 5.985840253153985 -1.611817372721276 0.25438880343236836 -1.1660122529240176
Ni 7.9169699818879495 1.4914241076800423 -0.24783440092505077 0.11883073168767923 0.7179749013621312 2.110786735246339
Ni 8.941444098551965 0.382020697994287 11.893326245357612 2.173869522639437 -1.6999313920513885 -0.9244815364012401
Ni 9.004702670396998 8.673946426760645 8.293151931499146 -0.017745496908879117 -1.1874858494167613 0.009961996308718328
Ni 0.54877958591493 7.126898240950022 4.384989963479606 -0.038244388193179296 -1.0464081334054236 0.15557333852435143
Ni 1.3156434027086141 8.6083178832472 6.481053795624305 -1.5934676665694945 0.5857968018332685 -0.6335033638806121
Ni 4.995656722614053 0.4293873451932226 1.026087196194848 1.3415769469686314 -2.20960322859562 -0.4717866314626843
Ni 8.127475923913952 6.909066931948925 6.312020484300141 0.5245940050717031 -1.2075923903586494 -0.12751926060061264
Ni 1.6822302456796703 1.5195827433924918 13.231610839854978 -0.46307290573877025 0.02366854726153343 -0.5772242296729092
Ni 5.853998635565397 3.1533550308085223 5.551732636325532 0.45856473345577153 1.8831127221009956 0.9607122365985001
Ni 1.0486141047648074 7.068473287211319 10.00084578977268 0.42642697238096233 2.169774526634457 -0.4069182129240734
Ni 5.496563817574734 9.11521079597909 4.096101658072392 1.7703857893182091 0.7068104001048795 0.3767560875183963
Ni 0.5475140397789513 8.694545508574244 0.4144949303377162 -0.7194928806685544 0.28977515335146226 -0.07858653945565175
Ni 0.579441211468486 3.1146954534348437 11.781039235902666 0.790063234687949 -0.6816935504325937 -1.0072404620670268
P 0.8651642464142103 5.357147658124173 5.906512711348494 -2.129112015918088 -0.1740274314644809 -0.5881478185639484
Ni 8.582107682740402 3.1744037515157326 1.5247170575089233 0.3196261752746237 -0.07771622103555646 0.2427568756203948
P 3.906031803761054 1.3292356117634259 4.316425652689951 -0.4614302279290246 -0.4084205085012128 1.2221561471054372
Ni 5.116506542749219 3.7195440726354905 3.439915518193599 1.4547049718445786 3.3161304387801276 1.4060355316633333
P 5.334169237165212 9.151706486177261 8.233319982722515 0.3046533560148753 -0.5376971181125643 -0.9740148672446772
P 1.36696780891903 2.8604995989128783 1.4278948157511466 -0.9230250064603717 -0.009767878020041242 -2.634231200094631
P 4.180639390557612 5.879206516038518 4.504913340144393 -0.6893132717613807 -0.4358523794599203 -0.3962424783777821
Ni 1.9088763504909523 8.882560138442697 11.396987668905567 -0.4067647180653446 0.3272518101406815 -0.43754570800194326
Ni 7.247335892099378 5.069050904519256 2.213862665037169 -0.00878031729579133 -1.1307030360997623 0.4392860877318177
Ni 0.14389287668508452 5.9676729683566725 2.0661478577563828 0.10238775564030753 0.2121340085282153 0.1722150608460905
Ni 9.019887350533352 1.2048542528180157 9.645283530424372 0.7143825560251825 -0.999013189061228 -0.32120688949818227
Ni 6.668163527219364 4.6612658979210035 13.522103794063769 1.332628479526092 -0.2589255149604573 -0.0246818190173962
Ni 2.907346351141075 8.245065862070431 13.589750092112299 -0.6476534301287491 -0.09445435972584378 0.6766696148554411
Ni 8.301308193679729 8.99874495505664 2.638153166021761 1.2434525945903683 -1.1059530828485922 0.36743223901430916
Ni 1.2428019019434757 4.861055446315921 9.522974257380357 0.022081919500703904 -0.40316774474270567 0.6068353676711226
Ni 3.3104195168333526 8.29756120289963 7.119471705223866 2.4746081169809386 0.1589445689894295 2.1364352890523786
Ni 4.302332283618301 2.1833996299949585 2.3988272444106213 -0.2715483459307904 -2.6226290970793285 -2.05890187345159
Ni 3.3975557874245714 2.372810013928999 11.040096164578017 2.019884354537812 0.03414322154061217 2.3625494139097696
Ni 2.5760655287955085 0.7104837832732186 1.4651183589083523 -0.02793760695053253 0.09616645732094406 0.03139008427550723
Ni 2.8362565685656334 4.540294300585484 2.0340117913308577 0.12494455789490094 -2.0652352718687856 0.40627209469964226
Ni 2.308773941497095 6.765070076269693 2.430402198966827 0.04240906109383019 0.19034853722200767 0.40246660491062297
Ni 2.4821284699384085 3.9352395968919316 13.487539677612737 -0.42731631696445116 -0.9408831176877152 -1.2011659180070153
Ni 7.098805177576225 8.893342104412435 7.000124428391519 -1.6404797736529746 0.7912922219990437 0.12328645346618768
Ni 6.223451926483229 2.464208486532582 0.9848169029951347 -0.7495048536496124 1.11029593319832 -0.9116393903312494
Ni 6.971398123575884 1.4055711814310072 2.7760789598895363 -0.25267310629284223 1.152442484659383 1.242264744929854
Ni 4.869158313877886 1.3093952955827977 6.368602855322732 -0.10056407216800746 -1.667700814152457 0.4661515446640939
Ni 7.2281419318283175 1.3288890151162664 5.364025259701046 0.05517690228245981 0.5891094111462694 -0.3083521450227012
Ni 3.4039818766124426 8.347386812798005 4.8819318054472465 -1.4785745793733245 -0.023226574628108388 0.3259886271575418
Ni 1.0082215441553326 6.612530081611833 7.784227213016747 -0.5748516156756744 -0.5392073841095036 -1.0337598485137938
Ni 6.016168396528113 6.702991806520391 7.737228707661957 -0.08681741200587628 0.04029869961904673 1.2994751327025749
Ni 1.9031434545973998 2.5341929068278946 9.59960115558109 -2.7633131771966735 -0.7511529307759967 -1.8943749252783761
Ni 5.089209714916193 7.857430298392165 10.236483735708505 0.6355810723452473 -1.6056081585867703 -0.7410513235656205
P 1.5164540060911085 0.19631889818484977 8.891233485350932 1.018002585679537 0.18626768228441468 -0.050386165762035806
Ni 3.972044413829461 0.3240172807183433 9.719784948105094 -2.3526712355641095 1.9648252087801386 -0.8931055931931199
P 0.9498434278013789 6.584052951683076 0.1348897945881999 1.9106111846315803 0.7785796595283816 -0.09913890968570667
Ni 8.128778003210037 6.274345428753933 9.52308479360837 1.4323595142698429 -0.24689120950374252 -1.3395033522690543
P 7.359427121286061 3.534854897084376 3.86718112985759 0.5179250776919597 -0.7082733578036512 -0.04426411202469796
P 4.9262999232744065 4.364373083459802 7.3949242384413365 0.9568429834510813 0.3585565337912341 0.22577216813694018
P 7.975675959935162 2.2325039441681653 11.406639917155102 -1.3017094213497324 0.8300202346968609 -0.46865605625350254
Ni 8.143634821653132 6.622075540624138 0.34553812226384606 -1.880391980735723 0.7604590386682709 -0.42263948031407217
Ni 6.6899710135595445 9.068579495720748 12.374829548563545 0.1032328772494222 -2.703322655575654 -0.09004723179708363
Ni 6.5296279106021275 2.4747656330555126 8.164494319325946 0.31994293518409417 0.5643928822361958 -2.652080569571226
Ni 3.824459814478283 6.477348021742786 11.88057523573293 1.0374290698352648 1.6766654795449123 -0.5643807980513376
Ni 4.753685425512163 4.3695251957824395 11.88695074054527 -0.18025104377668957 -0.8253652524233528 0.7726694646915337
Ni 5.310244701034275 7.136612314547432 5.67808584916897 0.8387298466557168 1.120155085380587 -0.3210690783687374
Ni 5.78537249942787 1.636264036284797 12.077755941797204 -0.21512008773973273 1.9560978562094697 0.0022083205052284547
Ni 8.619043644355235 3.3296790494430653 9.564311059666418 -0.20372598697017819 1.07273365867383 -1.5901105771718034
Ni 0.8825952475232341 2.9478138515661523 5.4759965851827666 3.0963653960692157 -1.1892776512098615 -0.7510914814104419
Ni 0.2926793233289793 4.589810783744502 3.8660298669404045 -2.233612447026024 -0.4625895383444485 -0.40782684078127185
Ni 1.7468658366363907 5.716343561781483 11.67577221367424 -1.0766419925893007 -0.6714279068405276 1.5485661780711135
Ni 8.089378395157288 4.644807240919415 11.264422882096417 -0.563223801628759 0.055177673613408196 1.208627773601699
Ni 6.53874246567472 1.0313217423146472 9.865703073306822 0.3118462742188887 -2.9315193739936865 0.34128283431245093
Ni 5.717823623139623 5.250161703875377 9.634686103750555 -0.6776407205194587 0.633363238758322 -0.12762930381591567
Ni 3.41778953763711 3.377874718352098 6.000715806550981 0.9136929304261684 -0.6841764647554475 -0.25896228173566366
Ni 4.209285135071474 9.116522242752124 11.926902092990389 0.3713801679184636 0.7203693697362368 1.3441027987142788
Ni 9.489628849680553 4.7394655955016844 13.283010185880995 -0.8516393556285333 -0.3966947354238523 0.9074186673816824
Ni 6.6081648373530175 7.259972618505265 2.193078107179956 0.2657926743939358 1.5877659881990267 0.964402540965894
Ni 3.9050575861582284 2.7210928069392684 8.459141749562175 0.9306925503079585 0.17221531795640663 -0.05068775616285464
Ni 2.464967252165552 4.611627637561632 4.263010425624239 0.8825555855914156 1.0847383964441901 1.1366533401459264
Ni 0.7921756762609528 3.68082829040011 7.6541307563839895 0.14886121661149845 0.41951070487710335 -0.44181116814651655
Ni 8.72073697412714 8.97882033158346 5.319082915536835 0.578857394400958 0.44431259441213156 -0.905690371836666
Ni 9.073956427490192 1.6395520206943344 7.018057526265077 -0.41707766995557843 -1.0111997038250908 0.508234589877073
Ni 3.3960944610203327 5.959972902303567 0.46135105004286325 -0.5072974227747844 0.6516833772237486 -1.1911810388801616
Ni 8.99122287106559 7.158457270795413 11.835838976061625 -0.18278203772865942 0.15893659856962952 0.2836860097345888
P 7.317339047348591 8.670255640842248 0.7118392571879197 -0.039387757769003134 0.6926045409181427 -0.4104097710170997
Ni 2.2365787966415236 2.510024816296251 3.188633885750856 -0.7305866765888708 -1.1883857355232115 3.0342673411868906
P 7.125212095098978 7.625182442364634 10.602437337237726 1.224403034158085 3.206890436104677 -0.6682829334536426
Ni 1.4851197956925244 8.865089793930483 3.1055771513714707 -0.5735627216609219 0.8622446419482053 0.39704234857125814
P 7.234071544737826 7.709911271379639 4.304058709620232 0.28585344969955284 -0.20807243686433194 0.4864115804647106
P 3.3223443149910197 4.878488320920335 10.259640138729523 0.35201410468702604 -0.43232045504726196 0.21865741146902987
P 4.903743038778207 4.212751101543066 0.7867640848267937 -1.6276893067565257 -0.17077267197260912 0.3490843326347407
Ni 4.064848007975581 2.0878138951946146 13.507707855486625 -0.6871283482949198 1.1068357425638615 -0.008711925951701125
