# total energy = -381172.1313181245 ev
CRYSTAL
PRIMVEC
9.21396332552508 0.00000000000000 0.00000000000000
0.00000000000000 9.21396332552508 0.00000000000000
0.00000000000000 0.00000000000000 13.48556668859644
PRIMCOORD
 96 1
Ni 2.1982949752942478 7.6963128694147604 10.017186725154492 -2.662633662496724 -2.5689838009500465 -0.1641749641504334
Ni 6.17234178881087 8.901259689176143 6.713128636656138 0.24336931239341314 0.17011549800458445 0.3176088877342788
Ni 9.163516722920376 3.541423600735364 12.543680304420894 -0.12139720686327482 -0.794659852919696 1.8345145014773179
Ni 0.059726752068891636 4.244513488446468 10.448508926335963 0.04554529272996672 0.045273784236134935 -1.1955483147099217
Ni 4.922025414394089 4.670447363965374 4.922299069100276 -0.5465856788514457 -0.258173210175465 -1.509783400875961
Ni 8.715506191643076 1.9240782173536901 10.834506721281578 1.645016999401696 -0.32481980366042124 -0.5258487034144105
Ni 5.67558017839431 4.006599745400766 2.0456389548687457 -0.0776506579049437 -0.8551843926673143 -1.1949214797592
Ni 1.8472614063947024 1.0258550176011523 12.459004904273119 0.971816831152094 1.0255382319349498 0.7939800532438519
Ni 4.441480379158988 7.35572793475145 9.772571666694315 0.44247502698276053 -0.353267774588469 1.2374588389007783
Ni 3.5781688858624414 5.4872559851364535 6.456363124961991 -1.4966694892018224 1.2983783000939706 2.918841778526018
Ni 1.8335878850485183 6.686683640958238 2.7122166707210056 -0.8432146218999478 -0.6015579213222673 0.003487187217652059
Ni 1.1550439952257132 1.2332429006603933 5.352974450067125 -0.20318014176903718 -0.498464912084819 0.6565463617430048
Ni 5.00353213260726 4.214706317587367 7.8484787069995505 -0.24902188269350015 -0.07472319984550356 -0.5306798062544668
Ni 6.807027213938367 3.8410708970286636 3.9189869337939855 1.5627046743550248 -1.2903410316117907 0.8573742012297815
Ni 5.395300632687048 6.088513151878536 1.2083145233004866 -1.548696275891075 1.2318486918028526 -1.908429346488913
Ni 2.7803318148610336 0.4789012642053445 10.081661432445545 1.3026931254192404 3.0851918959508997 -0.41036966180778356
Ni 6.090687647186958 0.40910180759760617 0.24041533404670562 0.5301362750461708 0.5516756917798434 -0.5953937014930842
Ni 6.597381909902162 1.3745758817447058 11.301727444374688 -0.03628417914301493 -0.4127322485026892 2.206442828589768
Ni 0.5384225448955166 8.791337108542734 1.82253389343193 -0.1757007054018458 -0.62600088485598 -1.2830627527828227
Ni 3.3936684873206673 7.287618318989325 12.149443383607517 0.48502858407425503 -0.8902388131682861 0.002969109930652951
Ni 4.428599258645534 4.8306413276613025 12.793904823659746 0.5521490318718362 1.1426537807037354 0.20127958231221466
Ni 4.269833459241154 1.4851710816896173 12.024890872250745 -1.3580638888800611 -2.222641035616185 -2.0812036222725836
Ni 7.121545846790118 8.528140250555033 2.2099745950101664 -0.19437128522815555 -0.5504155941204972 -1.196966792324003
Ni 8.001728106653283 7.264288564239636 7.4652589219500785 -1.449391015830833 -0.723694834565044 -1.456021376663157
P 0.20661483154917049 5.212956301527354 3.4757695061583864 0.8044393009039631 0.33756296225870247 0.4183153990174215
Ni 2.393658636414965 3.846414995668008 1.778516948570076 0.14677322373421817 -1.1535940817653227 -0.06620282107931823
P 0.7514954432314394 9.208821779833576 11.01060122122219 0.008572829270675559 -0.5470147959690644 -1.070300366641989
Ni 1.593941916926615 4.499178216537563 8.649035739929122 1.18772701889329 -0.5892153405965143 0.046535938778010176
P 7.916406807687201 2.2602035938420992 0.5306689948868818 -0.7149872794887171 1.520814461879142 0.03230334011839598
P 5.328821888406241 0.4514362827843837 9.870975871967302 -1.8422936312021043 -0.6979712045466947 -0.13194644313403084
P 4.409249935985839 8.240019622189008 0.3697139578330049 0.7843895813419395 -0.7439263311205704 -0.5503461743351425
Ni 7.170278498003034 4.696310958587166 13.684478591187485 -0.1644716694552458 -0.9212689430012134 -1.078482388232149
Ni 4.1144123284679495 1.5592697735130763 1.246926557366066 -0.3062106731996662 0.001550118095939266 0.17747348103155242
Ni 4.496893153671084 1.3593452006225746 7.550110308794425 -0.8333361864439713 0.002150727794415651 1.379524115636366
Ni 5.592912500821558 6.662662838970703 7.840697515101402 -0.4017996607505854 -1.2209153327198006 -1.7470671691969266
Ni 1.0099977869833738 6.554675190603264 7.694135609917386 1.7449588646046723 1.7903897432439617 0.7223858859456334
Ni 7.637481714566117 5.597003500469607 2.219414300279146 1.0951446793791786 0.5302933694493254 -0.16286730108260336
Ni 8.20729162500461 3.347994871880617 6.058053632426908 0.9747777135526309 -1.7914413244369276 -1.5047532946512214
Ni 0.64139687590146 5.170231154302114 0.9695908728920287 -0.5535736801335046 -0.8483725119518035 -0.48256932390048507
Ni 2.7812163553254767 8.74784720237428 1.6019368727703374 -1.4742453558703512 1.649991569798152 -1.3863660782588638
Ni 3.96211473120981 3.0491952601990757 3.3310430224380903 0.1831129387055169 -0.5756095768876216 0.40174463914293396
Ni 8.737361712285358 4.832677613522157 7.616027922718103 -1.1973696841893764 -0.5989024859772912 1.8142490663600623
Ni 8.770808398597117 0.8954313689116392 3.268901290622005 -0.22385206829609186 0.9762419568029832 1.1979152722802013
Ni 0.36952138600272516 5.708842585442642 5.6369395810429 -0.2899250486657652 0.06336278052736184 -1.5167374635962911
Ni 5.414806592720654 1.974285102674012 5.410706379109434 1.4274155400010062 -0.45846626020469433 -1.1904112505936724
Ni 9.18522482015192 8.718850860274252 8.777081264724126 1.2919060621060652 0.07855645754866471 1.1219553718141193
Ni 3.375185277199074 2.834915332687715 8.987617558998995 -1.4992616754090309 -0.2650707086262467 -0.49142034653321165
Ni 5.551753727335436 8.308460940625299 11.779413386837739 0.045365572618992836 0.5109324484242103 -0.7012976978167664
Ni 1.1865557492715015 3.4057479930382195 4.6599646380654045 -0.9270474973562034 0.9140117472181679 -0.3496296636152495
Ni 4.780987280131258 7.138619320546505 5.237713299172275 -0.5094224395375871 0.5080055045854025 1.1198861479899165
Ni 3.9143495461298783 8.314035388343925 7.665924297479551 -0.7434131389295777 -1.2078330456145456 -0.16425595390001388
Ni 6.765260318882941 5.092198100204517 9.164736651644255 -0.9055355914263565 -1.1339786215272405 0.28660626870517736
Ni 2.079130789600043 8.596682922586208 3.9763005489083176 -0.5116947805115317 0.8862204360375124 -0.3917880421508543
Ni 8.767638795266194 0.6853410304542606 12.964915980118763 -0.19601524858948177 -0.2308110161124283 0.6300969093022245
Ni 5.5336022198880075 2.7026212494744315 9.688274039036562 0.27181908309367375 0.19189942664889534 0.051159039372318346
Ni 6.8723634267859355 7.358215704807697 0.03273536835493478 1.3287666825778406 -0.20430705628462878 0.12359010074953555
P 3.2838749021716573 3.0036690681697653 13.20482362479473 -1.8370102713159784 0.5071498414533265 0.041289602777406315
Ni 6.665712660780398 7.887539461071571 9.38437634153235 0.7998293129357774 -0.6400321661380655 1.4188134001542918
P 1.7379100914779142 2.950670352008545 6.738939711687854 -0.9105574701209801 -0.2469305473821102 1.1641762281565433
Ni 1.4542858771394762 8.001295050384233 13.192740433491911 -1.126679516762666 -0.8765137502727097 -0.44291262874081133
P 4.042331494579002 0.8412541868608113 3.3448519890428923 -0.41050747293722845 -0.5535801078914079 0.9191817214548815
P 2.964749287734266 6.134324976766156 8.671138194784396 1.4009411478595615 -0.18549300890191925 0.06418913308339913
P 7.742815741540227 3.0114364391231576 9.081396354759997 0.26513627175685955 1.0989460554031396 0.30046451474450836
Ni 3.695269143806279 0.34053333646955125 5.6622116392290955 -0.46228897638489413 -0.7638012156676265 -1.5965072247267666
Ni 4.058363790497034 4.74064854936738 10.548099890065412 -0.1206868110598115 0.2773641812816191 -1.5560048937373459
Ni 1.850882493921017 1.6458349575072815 3.1667755656241368 1.2216108161249284 0.07706650326669953 -0.7122012321031477
Ni 0.400857153351942 8.278478704465945 6.006417661418721 -0.31635856026694553 -0.11965811268498103 -0.32791978274198363
Ni 8.39248307078423 1.0146692663112145 6.862427088902025 0.392431332161808 -0.6508716799557307 -0.5223152363398552
Ni 8.167109531614644 8.205310622922784 11.620836473678368 -0.7995554904491003 -0.7501386305788693 -1.5804977366723876
Ni 0.6270065082205499 2.3106408282417035 8.527530286193093 -0.27491571974112655 -0.4021413603607204 0.18111724843172677
Ni 6.496793073961264 2.3020902704187525 7.380354094119339 1.0834726423578889 1.1979227284793692 0.10985732454447532
Ni 2.0564920820882002 4.824421902520687 12.399978413405245 -0.5255951926427077 0.37438655884495525 -0.11677230649675373
Ni 2.6109699578096777 5.202175964616953 4.462737913591455 -0.33709913524840657 0.5622650372599156 -0.9868099621268165
Ni 8.504423509352149 6.285857815081078 9.658848326252754 1.50009985503961 1.6824818291163735 0.5857664628159654
Ni 1.9561704510792692 0.4273859961147004 7.50291086105321 -0.3724998833452036 0.6679489471529916 0.3068295377305877
Ni 8.691098403202346 7.478937050277848 3.487205877246583 1.1305672818528465 -0.649384810997559 1.191311908031071
Ni 2.8359472965628987 5.918819592153015 0.7969663514817218 1.7707326311346665 1.5312706242154597 -0.16623955998894596
Ni 5.433059453762967 2.832906688716375 13.207116058831746 3.5126614506637632 0.9435935746403428 1.3498047341950625
Ni 6.142645185509824 8.890884766645279 4.2768664773297935 -0.9084162554082612 1.5637976503088875 -0.4444642894986474
Ni 8.87789307857377 3.4772299193210343 2.3659752840668444 -0.7466254752192883 -0.7778155276688475 0.7582424906329265
Ni 4.313129872183014 7.881660952568293 2.8112013556737834 0.8177671283611206 -0.24949599411644124 0.5915527304804392
Ni 6.6775433894923255 1.6554359071317586 2.1744123827542823 -0.5592892424610432 0.8995256377868508 0.9749404643827402
Ni 6.2492875952542555 5.98542733191822 11.607849392588447 -0.31880290804238 1.591891580331626 -0.5749719433036227
Ni 2.226415990893004 2.9716413321863855 11.032069755411278 -0.2594294511800693 -0.3689700158150742 -0.265063252427079
Ni 3.4904980262876824 2.8377163774917844 5.598681363163098 -2.2847817708109877 1.1484845284528995 1.200149560927359
Ni 6.868981902302075 3.9162107666904777 11.379444459535508 0.4876413391067538 -1.5300691477081907 -0.15977503531052484
Ni 6.719485349848006 4.990531230572579 6.083029000998988 0.5326924658091213 2.166261628385192 1.258797966698187
Ni 5.924007053418446 6.428803239720366 3.3262010847915806 1.0011158372265274 -0.5701547244206374 2.8581125789667614
P 7.375077257411145 7.452778608834576 5.175868256970305 -0.15449476074819202 -1.127589430171445 1.7197862219937865
Ni 0.8382191073921907 1.9880231217623954 1.1350414025771747 0.5706828290099655 -0.6893184139677031 -1.3959382953283312
P 7.278312216186329 1.6579789609670326 4.575800612873636 1.342677636231978 0.5999188430569474 0.20708127659565626
Ni 8.829188069250366 6.035634217238542 12.261333145377996 -0.024777206944679907 -0.6762890915875708 0.055950547223690736
P 8.920995998289031 6.979779809436756 0.893526842724135 -0.9549735343425102 1.9565979357743402 -0.5562663964743194
P 3.9930644335021506 5.296637515048949 2.76977353446306 -0.24022716722000564 0.31875919928863816 -0.2165079692261949
P 2.2920562645252254 7.35816963499184 5.61587553983703 1.2640494449051132 -1.2282578891278009 1.3518981263889813
Ni 7.3213322102330505 0.7832439961307298 9.032699638003448 0.032674093194253406 1.6128113612034287 -0.5035446406005715
