# total energy = -340878.4834118715 ev
CRYSTAL
PRIMVEC
9.20628021238352 0.00000000000000 0.00000000000000
0.00000000000000 9.20628021238352 0.00000000000000
0.00000000000000 0.00000000000000 13.47432167588699
PRIMCOORD
 96 1
Ni 7.091744820989177 1.0919937015417183 6.950149471976227 0.39366803278238655 -2.2690332497274794 0.42772769347025696
Ni 1.0799242683995833 4.713366814704994 7.678746443091134 -0.7671868443104077 0.26963415962721304 0.4537979081947475
Ni 0.6510312998315895 6.702595363385788 0.6902436084374591 -0.09634514899065343 -0.7620852614177843 0.39185309106083477
Ni 8.43998612137009 2.654953071468026 8.157287038698719 -0.13412416751163997 0.08092547200147353 0.4375526499804787
Ni 3.2601739217837777 0.6743590928436839 6.675191950196711 0.8277764329680067 1.032190961364777 0.5372456323974425
Ni 4.013192391980409 1.3848730886894975 9.590172719091392 0.0676997173398189 -1.5100723928712898 -0.1967690960363708
Ni 3.4573448215588374 8.30229699698125 8.664756528099236 0.1105936884898676 -0.6144923699957482 0.6817987085518903
Ni 3.565490993275587 3.9119325177391113 3.793937467627658 0.08816775538618364 0.4281143873857143 -0.15788321760445065
Ni 2.3098648701714692 5.396261049780617 12.465485468517858 -0.11476298937620881 -0.83209768605118 0.5951520177959233
Ni 6.759987313201249 8.459319309469619 8.820559929109331 -0.23282701810119255 0.7253933053133893 -0.0023415036489830643
Ni 5.1773725353737525 6.959818827910007 3.510666674965345 -0.144735367368583 0.896176775919276 -0.28900922171971516
Ni 3.117458168489059 5.861058510533452 2.54322381555683 -0.6311618602316291 0.23004791269415864 -1.2071175076047598
Ni 7.027742762099687 7.677080106402555 5.596424911199086 -0.6702220594578844 -0.4578232273040567 -0.4937325396061561
Ni 4.594467707892886 -0.24539431529132022 4.713290402580601 -0.32392505976029373 1.1400549096283075 -0.2539748558234013
Ni 8.163061217544445 8.916540001743448 13.019105119167959 0.427517891452296 0.24274479143553676 0.45066501899272066
Ni 0.510040803417753 1.639334669199497 12.730134718528303 -0.7496195248506057 1.1921202628649792 -0.9419598956916616
Ni 6.997555369824278 0.9546175906744891 1.404415259346103 -0.30438313307262416 1.5443207725311985 0.6493465015604558
Ni 5.044047187727378 5.540956153285526 5.423657097945656 -0.5107113335523398 -0.17065183012402868 0.9215628200925484
Ni 0.8159489180886057 1.696938363456048 6.227440837579634 0.9526749681163206 0.5990408113273683 1.4239185825913412
Ni 6.807795525487371 4.3700830442977265 8.764655714149528 -0.6779379400449034 0.9087283873320414 -1.5934445266410429
Ni 5.614440680623833 6.787274727261727 7.482142650166994 0.38058857389060907 -0.3339474769933023 -0.3707438198860453
Ni 1.0583539542485367 8.080793899040923 2.8983404177090137 -2.1186255145644677 -0.4586241259387972 -1.1062119929369336
Ni 5.179674105385601 2.3870503220888293 7.483381815461373 -0.5155000131902348 -0.8818112512262233 1.883437452430266
Ni 5.554167165153538 2.1910762387199307 5.236714375303252 -0.3639460802379216 0.10130634965067067 1.5968748924788305
P 2.703101916115902 6.134218045819711 8.296934338853642 0.7850878929605447 0.16335992444830577 -0.3844449715222218
P 2.0964909175129938 0.9317860161569493 8.54179008676219 -0.8375003451239897 -0.28940054362086287 0.1471223795435208
P 7.269453644744043 6.225516725049728 3.8703100050168335 0.3402155693902012 -0.7801341484996951 0.8798839522965234
P 6.175508211832278 4.035591271335722 6.491645424263792 -0.6763698242268351 0.933585041364405 0.2689656728052787
P 0.5517056650282488 4.829283086781746 2.271325540637064 1.2674008778758494 0.31128577372972843 -2.0988773854032625
P 2.6297094515780683 7.248233169234798 4.277558088565397 0.4123823213624382 -2.433456068222661 -0.06682811336814297
P 2.832790783143556 7.097894616060837 0.472794035602002 -0.05945444661189115 -0.03646904146031139 0.25128625324764464
P 8.808927794269447 8.931739570101698 5.885745150480542 0.6740797426410778 -0.016541449298448932 0.10034270018582074
Ni 2.5026627869240166 7.37931218454961 11.126595907409088 0.16449300961148444 -1.0702278615328407 -0.6172097689269113
Ni 8.263354432380767 7.041754720331822 7.44829484094474 0.3463720759099002 1.0102710213632344 1.484386043848779
Ni 4.329326842527909 4.509595012135952 7.679150598785215 -0.8886802104319146 1.9609973503936164 0.5013208934763753
Ni 7.84953214425036 2.952702580760877 5.821715472750909 0.647507134358872 -0.7753364700007356 -1.1711529165846926
Ni 8.951137202161558 4.69772534490447 9.782330799380645 -0.5898840845287647 -0.37905002575889557 -0.8550103289832952
Ni 2.465312908771735 3.0242629955692792 8.579464025972138 1.638911143614274 -0.2923593691388707 -1.3945704684465274
Ni 6.848551727257189 0.3267980847263969 4.2161825813734275 -0.7760466086938829 1.2976969577562294 -0.14257641204405122
Ni 8.519289017698352 4.290329040247143 3.863559960486083 -0.5832048727363763 0.2783473711304948 -0.18130519607281675
Ni 1.4789152393736382 2.911780665950206 3.8798228541898063 -0.36050363021527587 0.756520108625181 0.8963379840874884
Ni 1.9088945489872247 1.0590168064119492 2.4515182187487183 -0.08907458347116917 1.0243429260752681 -0.6389505030381125
Ni 3.672946693988783 8.887217999792494 12.833240451919105 1.5287609704197285 -0.1434423595887723 1.6057320857591444
Ni 9.335536219260492 -0.0002117444410900865 8.055623008763341 -0.4256633547420605 1.0291100084466083 0.5750979273585256
Ni 2.2629864921701337 0.4489829128874194 11.181585018132179 -0.9656595533014466 1.5180500117601274 -1.6297135362754058
Ni 5.252044672838174 2.4035663884938563 3.13330493833464 -0.6921761951314724 -1.2495669350182221 -2.947887016718433
Ni 6.533383936114666 3.436511009811583 1.1205313284326335 0.5334141744664942 0.2348957277047632 1.348293953977491
Ni 3.034546410382219 2.9283980014357542 11.352048499489745 -0.6905322317701463 0.10836094250460693 -0.11825120503512537
Ni 6.395446242164547 5.231892125814427 11.43459200639469 1.2465700571734273 0.6157619807367911 0.4849416807874035
Ni 8.03472567368376 0.7316285991345143 10.437276609488388 0.5720018049317052 -0.545100609665487 0.47707719043766234
Ni 4.89743717797261 3.7222371173625355 12.851052762554806 -0.4656447802310045 0.03168061893273254 -0.15644905626108538
Ni 7.444575503805593 7.962723357433082 2.677442172367803 1.2409678804953015 -0.15552345912302248 -1.4378552472770916
Ni 0.31804383302932887 6.545803207898602 4.654785413507409 -0.20940144008840064 0.3010198730273461 0.4154529898679619
Ni 4.965241430521676 3.3892459680482565 9.966240973375436 0.5490320835094092 0.5889494885296374 -0.3026846623242787
Ni 7.333262371752539 3.095335477535169 10.703017724312456 0.4105131293641833 -1.0350479711975982 1.2526982815583523
Ni 2.081042779593465 3.6780285605749445 0.9393296420277848 0.9396479597290333 -0.17706801806301764 0.3330249651790329
P 3.276036342305439 1.6180865748501092 4.223957284873453 0.34166772845569543 0.5937443388151193 0.4101660304374097
P 4.5070448725628225 8.49787521030811 10.90227568777426 0.20099033320656998 -0.2280884749749427 -1.3239600052178166
P 5.457979951218354 8.876271732816141 2.4306733594654064 -0.5901627921114482 1.0305436555693412 0.5821463495648749
P 7.278116754268643 6.746481700371721 13.145507344218693 0.21187278444702864 -1.2424179826782666 0.33741229561345115
P 0.6281297575856895 3.9696190685160886 5.699732262122924 0.4996208800661331 -0.12016590555933498 -0.17571330380733607
P 5.357180390979425 8.886960223951167 6.865139602646585 -0.5499286271817497 -0.44108457439313714 -0.17433544962320296
P 4.391506057968015 4.065649775690466 1.582289796141823 -0.5485361177095972 -0.5654076966539553 0.3511748966151823
P 6.949986520819388 2.1999234738454776 12.929459887834454 0.377897143101375 -0.07877628686895466 -0.6329685744230648
Ni 7.774832387945796 5.737841658379116 1.6104646955988708 1.519268714658577 -0.9329114123361482 0.248919552787681
Ni 3.181358958298028 3.2200621596172776 5.957833085135659 -0.4393855894241594 -1.7318105001481723 0.5296058564639976
Ni 2.1760607959626292 4.760548999947893 10.07360461128816 0.2508964740083937 1.5405739038942565 -0.4767524601083918
Ni 4.54875852745757 6.544440678451588 12.630344166582569 0.16532013349847013 0.5899982415091258 -1.011516206624245
Ni 1.3766518806071737 7.423106458735068 7.101924204837582 -0.03012458729952231 0.13794199859583342 -1.2592425104347733
Ni 2.395161054810585 5.406397164112799 5.751015845126939 0.07423751845833666 0.38804451594802203 -0.6891384367464132
Ni 0.736563165239918 2.3281577486256433 9.915039326263846 -0.03623815639642791 -0.31872526072690915 1.4185205515042216
Ni 5.944623914523658 8.294720228502243 13.891486692691087 -0.882856661771602 -0.1383726583753488 -0.5538050794180205
Ni 5.597814138858237 5.863700712907055 1.1493193661408379 -1.3325660017192729 0.20616956341466428 -0.05053194731128072
Ni 1.4848993214044448 8.972366883950851 0.15725891388558827 -0.5083577457184987 -0.9278031445753053 0.7747677419814593
Ni 5.687354418599202 4.734688559294761 3.359701174120156 1.8200978118313555 -1.0160495757182242 -0.8545192482794898
Ni 0.07988473322725645 6.384822194989852 11.442352900474644 -0.901773553280763 -0.5209774913650383 1.7340915828728651
Ni 3.5241087644625466 7.465298840192279 6.233315364877876 0.9850978645317163 -0.33534898532651924 0.4454032563731491
Ni 8.775149952775553 3.6823186870770304 -0.100893464295412 -1.1514492675081782 1.2770764532924006 -0.5561033885338938
Ni 6.791905486125567 7.8979019396193735 11.345149313222228 -1.1402909368985137 -0.6075570763284955 -1.1218833809256035
Ni 0.699913884999243 6.987557349692807 9.286919695586208 0.1823194962699441 0.1476736240613005 0.279811357270531
Ni 1.9641690543917847 9.1075519001668 4.85671135692695 -1.1457334480703236 1.05145109514597 0.4510450280399587
Ni 3.2932520859940677 8.450214298502745 2.522285052217035 1.6308957295089654 -0.7962382531504094 -1.0799543447919853
Ni 8.025086698474137 5.2987389252385615 6.194428958585684 -0.5641344863684865 -0.9183186021236377 -0.6821614912079478
Ni 5.321036535513352 1.3024768822653117 11.682276844161802 0.7201040318899921 -0.1383243216359166 -0.027419015442901165
Ni 9.287755625814512 2.587277706839625 1.8423036841484066 -1.4943698945343684 -0.8542626521839933 1.246093374647325
Ni 5.116647912181135 6.2416369214127165 9.713085764004164 -0.4862156624038207 1.0995242965041128 -0.21696716825080054
Ni 4.55558038097269 1.6451254193493086 0.8423644974285963 -0.7089909526959661 -0.05360775802312703 -0.3555575990639102
Ni 9.017597337823704 1.221461617848235 4.214066978218536 0.32060319447591235 -0.8136253382786052 -1.056446491478032
P 0.6505663826891961 4.067914520582126 11.59310389499473 0.5698284514294701 -0.5900851447959773 0.1921843048791658
P 0.37737370479476634 8.486450216769294 11.47129652431565 0.7726535238519338 1.0244501410770939 -0.8599661303266739
P 2.6274262941263147 1.6807353105726328 -0.4681411816660485 1.0179766175376082 -0.24824232421499826 1.650423258018932
P 8.96834373957014 0.26107168958402927 1.6006682930004377 2.0693559789053784 -0.4651009919123925 0.30174415278788036
P 4.1438571246930875 4.962129707865656 11.133495093676608 -0.5901442801686869 0.0953079659753907 1.2582832318452974
P 7.527100598150443 6.386184724436866 9.406127212779904 -0.38998467039352835 0.42963108114055687 0.6630404541077807
P 7.339366135423962 2.4010898991611067 3.5229552175726075 0.044220146160639975 0.6597504705025992 -0.1056725970391664
P 6.503316225479875 1.6811219743346233 9.19827242500984 -0.16391553984145965 -0.07424985975351082 -0.3261608910693479
