# total energy = -340891.9718068211 ev
CRYSTAL
PRIMVEC
9.11953103090421 0.00000000000000 0.00000000000000
0.00000000000000 9.11953103090421 0.00000000000000
0.00000000000000 0.00000000000000 13.34735548005009
PRIMCOORD
 96 1
Ni 6.290552147765406 2.1848754686809033 11.624238420532704 0.4770784759892429 0.11848748941564756 0.4455672927548391
Ni 4.869692744628446 0.3400034731274892 6.190463471471417 -0.2620972278202196 0.23602804153699353 -0.934028556659727
Ni 2.831286062845072 1.667515357262949 4.871237593174641 0.39545777769295765 -2.06186918361003 -0.007953450519121786
Ni 3.586328509915247 3.9891290732971654 4.983167980432234 0.6054354019998025 1.5766264266424395 -1.341765923050986
Ni 5.1631957293436 4.538608172788908 2.6774797013296627 -0.515402568380422 -0.6924430756396139 0.42673859008411025
Ni 7.2115974170692985 5.9204086247844625 2.702706147896872 -0.05799714534007431 0.8037119358196352 0.07284809430997777
Ni 5.190663756623057 4.595650839001724 11.619260068576576 -0.17602877816522586 0.22927683885608902 -0.14024005060139075
Ni 5.796538035628797 7.813285831360141 12.49604734213348 -0.7084019129617154 -0.06682631359593007 0.5415499161997512
Ni 1.9307688577530175 6.515184434600594 0.10767612606042674 -0.27200651651413155 -0.4782591265609054 0.8298114611201646
Ni 2.937027024433818 1.504576697434908 0.4066617727943097 -2.4025634924088624 0.40943403736739165 -0.1930602797262159
Ni 0.5192204957356864 9.03561304529598 4.745025108466065 0.14576817950847154 -0.5336674281278809 -0.063069160546343
Ni 8.832511971079251 2.542169572526138 1.272985296517066 0.13092957183374226 -1.0298157762643811 0.42412454950003087
Ni 7.175028097882506 0.9093357915393431 5.047142402134797 0.02471035826248648 -1.546971579890484 -0.11158639142044008
Ni 0.668473475438136 7.100822474385512 2.42546784666542 -0.6891065550672132 0.7959394909630679 -0.33241715639170494
Ni 7.690163043743956 3.765937672355123 3.9630700135524615 0.1099902505779138 -0.1834500103299615 -0.09776851170074129
Ni 7.564322635898927 4.1132276507270635 12.667894871765405 0.9231011111139457 -2.1147305503854352 -0.05648302268839304
Ni 7.794663749120881 8.781925932792682 7.568817652713683 1.0637908476582454 -0.164630049409981 -1.3444349852427169
Ni 7.018509587856834 0.7478881750247787 0.47373774697952303 -1.2524653396119396 -0.20694243702494683 0.09868253887457844
Ni 1.878869607006872 6.871922247056704 9.12660134163573 0.23122213550791793 -0.027500005192481674 -0.44563028478229055
Ni -0.30840794613133815 4.949826063255467 1.2047046322908117 1.588194848206329 0.4950476588731539 0.0244416779821321
Ni 6.430482230957966 2.106976435141354 7.212403583606982 0.6569610806829201 0.06798999488672806 0.26996788881754796
Ni 3.3581396060020414 4.429447387086682 0.2551289103495414 -0.26026428837653887 -0.7182188990521372 0.4883152252453267
Ni 5.87388989731019 5.490960791910322 4.963227214014817 -0.12909457550753253 0.36994703501636284 -0.7268004700735612
Ni 5.0717724313766155 3.1133622752557244 9.579063222863935 0.9201728817235572 -0.9395101485995884 -0.593415751831107
P 0.41688567896396417 5.761364004680302 12.148949785864993 -1.0023440532066739 -0.9099103234552846 1.228952086981348
P 4.020892399663151 6.198846144338375 12.681696369934308 1.0304215281691802 1.257378460642841 -0.4650585687102314
P 2.1953173316407235 8.264429028410188 1.338886675113437 0.8660213353818181 1.2671931327404176 1.1093695647293087
P 6.434640737079955 7.881071305054764 5.745556209698161 0.14645209294937359 -0.3566955693230954 0.5309991372670984
P 4.748594492887439 1.0521111683943165 12.86889298214062 2.093026840159757 -0.7955214295890429 -0.8685150483379495
P 4.01926912315062 6.4793993950771585 8.073228030155267 -0.07228887937239808 0.18008880716721243 -0.13925634653188276
P 4.765502103304476 0.9840703478325539 3.7845360438138624 0.17756912606915226 -0.12638874654059523 0.46304462360399606
P 0.23086639820578456 5.258275959229263 3.5190965917504586 -0.6324569248939689 0.43617093914160365 0.2642736666462481
Ni 1.5883943065735169 1.0325771330581288 2.641161169244524 -0.25024007137131743 0.07640650108519743 -0.5972451528795262
Ni 1.659891429372635 6.618335449394067 4.633133935191639 0.7430786384082944 -0.7142408882409956 0.33128432833884236
Ni 5.955591775263926 5.497079997190705 9.115068782771985 0.06188259643740956 1.2137890060876646 0.9532768633663776
Ni 8.54650524082084 2.549383121522835 10.379384141196562 0.8702317739187401 -0.756960024376077 0.021735849015194823
Ni 2.5118927297081446 5.23353467170962 6.92973368973023 -1.3969127434264588 0.5352825951338007 -0.12939153792266103
Ni 0.3232654859864814 9.15819778058498 9.47702296694252 0.5079957343933896 0.9170333076533109 -0.4822847027805307
Ni 1.504968837266587 1.0617413930978712 11.636571674215551 -0.6420052307040363 1.117773729632604 -0.7552870075490282
Ni 4.0973140691856775 6.855507091312009 1.6754137830354383 -0.29422753269586105 -0.13563186240541802 -0.6214526033636653
Ni 5.727056329173888 7.916537160994276 7.963486330330299 -0.957300382703474 -0.3155494341020888 1.060739205316115
Ni 5.5631145209392265 2.6812333002766167 5.003122426146105 -0.5871340325874533 0.20158528647809154 -0.6180281510631485
Ni 0.5222308529086442 7.282711519567707 6.740280905562119 -0.3688340044578422 -0.16092097598950997 0.9063208063318133
Ni 4.9293709552913825 4.650960794330378 7.154342265784899 0.6082687576835395 0.01523969976788988 -0.625705207992432
Ni 8.357721830225874 7.016959267592057 9.305122544030972 -0.8115607424400926 0.12592209131682186 -0.1288328372057136
Ni 4.833178142627467 0.3884236228088561 10.706981404393447 -1.0194755706806378 -0.4123293566373157 -0.5035994050979069
Ni 8.144443359447434 7.005258909358477 4.714018703170529 0.2174471932110126 0.22415957223418168 -0.09039613049607013
Ni 7.255845381332222 6.097920295101405 7.006654197596776 0.07567347957391483 1.0835762578152885 -0.49935322822704326
Ni 2.186225159264356 5.051672985120333 2.479284934774404 0.687788607586738 0.2704422573508052 -0.3608620419959592
Ni 2.458406680573345 5.5502377432106105 11.162580404275083 -0.5244759914366 -0.8133679708521605 1.156759109756866
Ni 1.3359656893439777 3.2584540129768933 3.8880983494540495 -1.0049892041390047 0.5176574258528698 -0.27956478847736366
Ni 3.6149091199729555 2.5190880396429023 2.566483154043323 0.638737615696358 0.6327425744551877 1.2055769025905172
Ni 1.384736940967662 3.3147762362431377 8.239242707779244 -1.1741423382303198 0.18306588751766537 0.10661824878188735
Ni 3.7084116710009343 2.639402011720551 7.0446543711926495 0.6632913937763222 -0.7025071447438352 0.8356985160285606
Ni 3.9832652148839216 7.024829422818542 5.868244907640208 0.26616985522769643 0.280215277577169 -0.15131430613768135
Ni 0.8209474734789335 7.668549755346774 11.276486081940622 -0.4805903457972433 0.12723592503223893 0.9654116989566985
P 0.5174376274311931 5.472904120591157 8.15901181017085 0.04730829816766046 1.0234160433856245 -2.20011354393763
P 8.449391355529029 1.6260123718217772 8.202977980926823 1.5557336423538302 0.8542413120277547 -0.7100880424148867
P 2.0914185153077707 3.3590333200370304 10.44222318129345 -0.8408003560315003 0.44282366857143096 -0.26091529169697647
P 3.8394866896223276 5.906446622870502 3.811430452595353 -0.18898122456083583 0.6901589075911275 0.21362087748638692
P 7.113453024777959 4.187342078914363 10.401180732166226 -1.4056020436703405 -0.21737674498439336 0.5254730652425467
P 6.42111647265252 7.979708152018445 10.282509187616144 0.5656192984441292 -0.9571772268620483 -0.011654296409476702
P 2.2244633526185273 8.388755594114318 5.965853983463652 0.6501736254474416 0.6133888525189243 -0.20629914701399307
P 6.981912910077132 3.779544012561282 1.604725562633295 -0.35179993179369085 -0.3717380654785146 0.3674723482236252
Ni 5.080171519399318 2.9380940095572234 0.656329907999449 1.3460005299576239 -0.3234152100034108 -0.18425193740596654
Ni 1.3836790753752262 0.9980961864632991 7.0317602663551915 -0.5139105572159278 0.42174730751710593 0.29116483461013726
Ni 6.862200827043456 0.9697162060869146 9.461873602096361 -1.0733504663222224 -0.5050999009028334 0.26292666570005035
Ni 2.8165215422058147 1.6433759587872774 9.275757654309906 0.13003071416855672 -0.4192065433731232 0.6264582841083727
Ni 6.740920184683064 1.7512326515608958 2.698782013720793 -0.8405902969032233 1.0904549872129927 0.09666653688581417
Ni 4.141434360015031 6.96294428566104 10.253251908360516 1.0352575161052429 1.1370582888938288 0.4367633213099639
Ni 8.109415240994448 7.100457693146741 0.33729314852342057 0.033608174972748574 0.9469673762085821 0.3215578450796978
Ni 7.834169557279782 4.216287470210843 8.236132035765623 0.5699433797407797 -1.8036586924387261 0.1372863672897055
Ni 3.0905269697086593 8.5002145016208 12.519231925716667 0.9844304061510467 -0.6498319258373066 0.07881588185763845
Ni 0.18821799967487193 4.840802070517781 10.128587008057425 0.5262197136005841 -0.2248118611061999 1.5285336849002709
Ni 8.74017672001534 2.613767010165918 5.987916864737619 0.16291538071171943 -1.2015420703995112 0.9750646486654306
Ni 3.6955257737413483 2.4790168205639076 11.507729116775439 0.4271075433877547 0.6980735344525139 0.6965730386475875
Ni 1.2363895306904615 3.5431931284305747 12.519125227204327 -0.7585746771613645 -0.06988386947533126 0.013613477018376556
Ni 3.2223680289314713 8.750545626727405 8.126804362646661 0.4255486835410671 -1.2021197972798523 -0.5794217515448602
Ni 5.300025172006606 7.712232308689602 3.6920384650986975 1.4882871786753982 0.30760729643687673 0.17352683767897856
Ni 3.033675813646197 8.376590139801305 3.685404918271647 -0.37474548484627074 0.4186409006776403 -0.08829991008867373
Ni 3.447109750138291 4.69258233367415 9.13410215585796 -0.5079977912759186 -0.6493557575318366 0.38553383371102634
Ni 7.443014634945628 6.128643994936894 11.631245868129495 -0.5058545196806706 1.1196992287900909 -1.9365518157567423
Ni 0.5269575058100195 9.284776870438519 0.3012855924443342 -0.16617656796149446 -0.3972696340907158 0.1627320610563197
Ni 4.5318323612787355 0.3591909662868443 1.6349039145168205 1.0944540810700571 -1.455735727101938 0.7417218672700839
Ni 6.020997051375568 5.43485743738734 0.5523134497169925 -0.6444066410566773 1.1335718730071251 -0.7419252415301416
Ni 7.859348582285951 9.079386793948501 11.677587676702965 0.23604655347975476 -0.864109463071086 -0.7816858092575313
Ni 0.13412732563680962 4.835220917564585 5.770835549544992 0.28046441747349765 1.2623448035091807 0.4903826492973167
Ni 8.368637908796096 9.170417952083806 2.4374135202820737 0.5016217125462458 -0.6488816461088954 0.41231598690087695
P 8.895473212891128 1.7350546036214016 3.8822116922133825 -1.179013293169376 -0.49699578373846015 -0.5908886145338792
P 1.8621443872092216 3.052881545867491 1.4773786082721414 -0.6467039217312862 0.9859298735147086 -0.3398157628486212
P 4.868060348584945 1.1272652231121139 8.332473496784338 -0.5092031244379295 0.15732965909382585 0.5448890078753131
P 8.473667546969239 1.8339467974522223 12.541188108478295 0.6526683668448372 0.48945730926956993 -0.32174604983110394
P 6.6478006539557954 7.96330211580472 1.7830598146436665 -0.6232449193773976 -0.39828444850847533 -0.28352583000764076
P 1.9084898435950781 3.2665065588227638 6.05861785248312 -1.4219781710355186 -0.5725913588865881 0.38444548574285403
P 6.867882294837314 4.006091400900017 6.237619654160442 0.5633500427939782 0.5827132778119384 -0.8316490285495354
P 2.4881089929402744 8.709188553781742 10.342892338023006 0.29368168749472 0.2528723667878419 -0.8560146018780934
