# total energy = -340881.517903221 ev
CRYSTAL
PRIMVEC
9.17250570412446 0.00000000000000 0.00000000000000

0.00000000000000 9.17250570412446 0.00000000000000

0.00000000000000 0.00000000000000 13.42488926907142

PRIMCOORD
 96 1
Ni 3.1120294368073154 9.365128463915338 0.33330409650522125 0.7443281945446794 -1.1189746919192405 -0.7797268857589474
Ni 8.471854810059455 2.248199526701839 11.369082505076397 -0.7309366037291218 0.5562489129728226 1.1995705484954373
Ni 5.278712904097974 6.276543952038258 0.16945745916415667 -0.6550697771974783 -0.5012291050935174 1.0015868633256753
Ni 6.286422740829283 4.055981185436102 7.32696923122168 0.4433024079800623 -0.4904168449693618 0.17084980506744768
Ni 2.8989062635858924 2.393189326534464 12.610294071256634 0.4590229040391127 0.5927467507885404 1.3362599056310924
Ni 3.704013791295691 3.826475916782208 10.99694477059108 0.3286677166516017 -0.7341517682323098 -0.5834257304979307
Ni 1.2709424093634765 0.9067517339390171 12.043146110834607 -0.833437487908526 -1.249502400328874 -0.21667714781420747
Ni 5.468492049953418 8.880196425100182 5.887941569567898 0.8136693041426633 -0.036796085782426956 -1.3214773480052788
Ni 2.116298892704677 2.525722863434672 7.718613216628999 -0.30271911510663996 -0.37130046372046377 -0.35935177599901985
Ni 3.3963312553568312 6.808191563102897 8.589969167777218 1.0489270431725355 1.5410408162283462 0.9309542886097774
Ni 5.266843681539397 5.819505503486338 3.011417137485238 0.2133354850354842 -0.09042569818242491 -0.9339370253871851
Ni 7.678561469873184 8.177481580096247 6.491605275743936 1.4968155278613835 0.3529060203736761 -0.5847627041417993
Ni 7.566023995706899 3.544091151953513 9.381473869324447 -0.24776435613731518 -0.7274131639568957 0.44022762570948054
Ni 3.6250752060259015 4.899255509951339 1.4854909899926296 -0.5422032335130339 -0.495203724835044 -0.38444522863253794
Ni 1.3746834504280039 7.231897125427717 7.698570374115285 -2.0967796223339694 -0.12694384771311687 -0.2518662941208308
Ni 4.405059240236519 1.558500467486636 6.727722086608203 0.048181187690917025 0.7970910880690079 0.751159615644216
Ni 4.556304689052876 2.5236407046087086 1.389892382363379 -0.2947060149941763 -0.4419217255824518 0.21939300408347379
Ni 3.187730127515144 3.515729763892371 5.50894371796391 0.43413385410691685 -0.027614676393475025 -0.46017347270378817
Ni 1.8282638642777724 3.2320058132108533 2.479657621849335 0.8279389266877999 0.6297703792007412 0.6494565447757589
Ni 0.6803486067606337 1.424728642297859 9.575221958457398 0.17200782993129088 0.390021951389367 -0.2519696524679144
Ni 0.07671058360095043 6.703890999182053 5.623766980585835 1.3654097877221711 0.3340922301012827 -2.6290671393951883
Ni 6.7253730078622596 7.549907902943824 3.8440963005032476 -0.11305886220090851 0.47984266899794137 0.8501985094169486
Ni 5.96785244045686 6.845413591806686 7.525375118820819 -1.0136471369243187 0.8421545560665498 2.6574343776839715
Ni 3.60097903318094 8.761696822137084 11.128790369553194 0.9093745055564726 1.1539167552120642 -0.8347078699805174
P 8.710514239542915 8.53445716242598 4.253112094723307 1.2024704957510515 -0.21742893837856747 0.4362969231965067
P 4.973543634759616 8.283625817691181 12.825602135369442 0.48819052674200436 -0.29524183289298833 -0.36169945029559
P 2.8432933606703985 1.689318745794531 10.415109793816047 -1.1024149877883465 0.17415727217412585 0.41352054873193944
P 4.177984685630556 3.8949761904046567 3.4541033661473546 0.29422470448238364 -0.7734050573059778 -0.5325903930136182
P 4.749844562303233 8.67486070933798 8.427998307880689 -0.4376737489393753 -0.22005969113319518 -1.235260288587563
P 6.734976621478047 2.001798502288364 6.163205718112031 -0.7403015898837895 -0.03084732439815978 -0.23308618529985017
P 2.6835725164567283 1.3031562498779434 5.244405897750533 0.09685808407132997 -0.9010006796704806 0.10136677057496091
P 6.715237388907679 5.570086724651093 9.730091464331633 3.0304284270567745 0.985058783763665 -0.1506674165823018
Ni 6.670998393235334 0.5203746013857444 7.930766855983002 -0.9831602811893713 0.14325981126432102 1.0020460623502807
Ni 4.8710317094778155 5.152728536368417 9.206748640055661 -1.7502386249463726 -1.4608162269486389 -0.5836830979243753
Ni 0.47807467344824 6.718530318504687 2.986863256598798 -0.9811062268738201 -0.9373869316089986 1.0422023228541921
Ni 6.763072006869793 7.061178446710389 11.912468171866085 1.0114645274507033 0.6338818302659535 0.007720251462393156
Ni 2.1548142447320817 7.445084506190029 12.103316831902617 -1.5917103175587555 -0.897970377484589 2.3132279419668227
Ni 4.7141359970632495 1.542219269618419 9.202493514595904 -0.1881484442468953 0.8214204088429917 1.2020969144617168
Ni 0.9865030032263417 0.10295495731393237 6.133751884605196 -0.36712396374527095 -0.37445006509303896 -0.2656942011428586
Ni 4.7220243520867236 1.7108924795331488 4.320760242553104 0.7375898473795813 0.5994485882887483 0.2402315380953798
Ni 3.25085531271462 8.406555740975602 6.6982141353169045 0.17635505115639305 -0.11012909014862324 -1.1632372612820419
Ni 2.640929536800761 0.05804178246225611 8.803532621279022 -0.14419440726344845 0.8062064201067147 0.30085480820439153
Ni 1.2258411981420547 8.41975497688116 1.836941054803594 1.5229428210760547 1.842914295505239 -1.186532998585189
Ni 7.36761352185484 5.116689760918149 13.317678638984347 -0.22018387541588533 0.8998454830201148 0.15451892911790807
Ni 8.448446575152587 3.1676056496994436 3.0357169399598747 0.669827138012311 -0.801124377598117 0.09027940241254774
Ni -0.31275584891965497 2.0325814318915962 0.5928685840514726 1.0302042699520515 0.0015863706505133968 -0.09188942721214496
Ni 2.4326311016518347 8.408720452354137 4.167569305247818 0.11717442703117883 -0.4471683186933718 0.3208510488206603
Ni 7.907919978433618 8.755248550530686 2.0845500982363614 0.22386235270873703 1.4155097897023556 1.7803182179405728
Ni 7.428482270617368 1.2142196332411919 4.196647066015162 -0.0945759729053726 -0.17414518798926784 0.05934980271322682
Ni 7.5053845595904 5.250360688542672 3.81781065051398 1.8263533058227643 0.7950216071344889 -0.24467620413029476
Ni 6.704487212061736 2.9005940046606815 13.248231762759083 0.013449440636686514 -1.404221104162414 -0.9586370992370266
Ni 0.9257534970397489 2.54869081806116 5.179631496000801 0.17894132382633055 0.5382859007364987 -0.13863825333190963
Ni 5.7697263142858795 4.287834615585356 4.989400145607383 -1.318310006020891 -0.8310476475201107 -0.03482456387835293
Ni 8.657011012970909 1.5704063800685775 7.330902401726408 0.4200416376799089 1.6539762654775128 -0.6058202961430469
Ni 6.377560758867934 3.837024298499645 2.098484969110387 -0.22153704700967006 0.6631211867470451 0.07346027397267994
Ni 0.7461273978999834 1.0625614216619792 3.3494432399975342 -0.06906985821446814 -0.4033220109323828 -0.13707527972016392
P -0.23745507946650454 -0.24643129368275093 8.44361083007308 0.20655214356506363 -0.09121759795610096 -0.5896444577141329
P 2.475980364257578 6.392200078190568 5.90131324858327 0.5849372820464507 1.2491879544122486 -0.0718690182261601
P 4.236725413037916 3.4493575116250925 7.885927978428639 -1.150735272160289 -0.7067103841919055 0.453747000352154
P 1.9885900938769654 6.530356361171462 0.907051674880026 -0.7432694142628619 -0.6307414848647588 -0.47644444194966984
P 4.80335696138108 3.929015359581532 13.303985005013947 -0.8073611025364483 1.5216112467488245 -1.9233057493801133
P 8.829178947611155 8.349768757312429 12.157767578328025 0.028222999401435266 0.2012276460283567 -0.6835177481255261
P 0.7257185724032041 4.654230361414051 3.8065605720996882 -1.4881658226061854 -0.3441835528990137 0.676363396468932
P 7.040072510769674 1.7783470874896947 1.752471448511531 -0.12677004113941392 -0.7164281257003016 0.6035327856604509
Ni 3.606060601416992 7.280538923903861 2.0735146564587543 0.21381242467190276 1.353162852034018 0.3153347469881215
Ni 4.278515349650647 5.271154759284784 6.813789543417812 -1.1372027848914932 1.0219903666826917 -0.5750935564831515
Ni 0.9680754389912721 7.987473121594771 10.097531041325063 -0.2146290070359271 0.8285781029336956 0.45370920513568314
Ni 4.490868032381405 6.8318291106557965 4.925981440220986 -0.12146534109704887 0.7269835326186448 0.5286879726354186
Ni 2.0286097368623355 4.745625209616258 12.867031592502613 0.23741335192029434 1.2120709949552932 0.3451294617520508
Ni 8.715458220191348 7.227127422390267 0.662998811961911 0.22375488059659532 -0.8285318230767923 -1.730851735779329
Ni 8.103239317817176 3.6931260268621284 5.547822301222628 0.04988351509400442 -0.11096289890382825 1.097089204700059
Ni 0.055296451463970255 5.249415920441024 9.376050166620514 1.5803398709382848 -0.21640641065132407 1.5532563844579315
Ni 4.040433788035185 6.081554822864985 11.38214507064492 -0.11028232789703589 0.7849359407637128 0.08633687282503195
Ni 0.127141020716138 4.895880027801759 1.2416536809617842 0.8530665749933631 -0.2935315350701009 0.9988203563241316
Ni 5.480975830403357 9.338344746858894 1.4652729526173485 -1.0221760003309361 -0.28609024830070734 1.031349182189772
Ni 8.017742390870893 7.171936454743472 9.377795694482105 -1.168394122892633 1.4019415640996178 0.0268770268965021
Ni 0.0139073533565019 6.085205480189801 11.78358896129303 0.16947914997216618 -0.1164141518263866 -0.38860733043002754
Ni 6.040030888921649 4.462772646989659 11.349804649549846 -0.1764391262297671 -0.9924938998854714 1.1287500261384495
Ni 7.142134983265253 0.16960513650820078 13.390789931293192 1.1110022152367252 0.1835258578732194 -2.6866727057237987
Ni 1.290296396688512 4.728628556292423 6.577430578399336 0.08692051324264385 -0.2778825156789343 -0.7439538419243962
Ni 3.4145661969692345 0.9772204273149975 2.5687721850994065 -2.0705425430143114 -1.0243215859190293 0.6141072187421874
Ni 8.299998740617811 5.73602652782513 7.377365730065255 -1.2637031173092883 -0.90453054720061 -0.28540942018359877
Ni 4.998969820951558 1.241214317931988 12.38834052666184 0.6225890309609536 0.429681217652202 -0.29100774020698267
Ni 2.42965920975927 4.710549547279321 8.815413768095192 0.1436652742328558 -1.3857549270374263 -0.4531523041909486
Ni 2.708127314593752 5.553429454043384 3.7779249261138923 -0.24493639977021692 -0.17054615778409982 0.3609386608701655
Ni 5.5358824503690744 7.472602023713777 10.008979669933643 -0.242839150921556 0.5993948522326774 -0.28574109249140467
Ni 1.3127506909878899 3.5429629337350397 10.922020073877421 -0.3938557233131604 -0.13181248865932782 -0.4043959607228519
Ni 7.565400265309694 0.25579642214666626 10.414505325681107 -0.11188669626967827 -0.45004666868243137 0.29996340673837374
P 6.660495874047104 6.129095920640178 5.808855306954063 1.0583925594608095 -0.6347598619955326 -2.3744479651195687
P 2.0244179016928845 6.121125013064132 10.317927094428011 0.09549025718952586 -0.4465281140062116 0.9065105537451162
P 4.842230041136293 8.728373108415827 3.511911249710659 -0.3744891458610905 -0.35792327108260935 0.8156089443675374
P 9.0630319840338 3.950286400627389 12.702174145017842 0.35198556544193577 -0.49099714295286406 -0.5306432965895764
P 7.179824809766946 6.231451913322677 1.856769260680622 -0.30647935348002053 -0.11396517606526178 0.11153522646753049
P 1.7881433237281488 1.660755562604881 1.1049191363862834 -0.42938322679580887 -1.098181152212657 -0.2841740051146009
P 0.0936145946157884 3.638567962118379 7.96395298211664 0.4093211659386112 -1.1489699527297503 -0.05809818969431285
P 6.3023462109696915 2.232065088927082 10.75599496639906 0.3727539083375387 -0.496227538113868 0.19955051543624988
