# total energy = -381177.2224032808 ev
CRYSTAL
PRIMVEC
9.16770552847690 0.00000000000000 0.00000000000000
0.00000000000000 9.16770552847690 0.00000000000000
0.00000000000000 0.00000000000000 13.41786372681121
PRIMCOORD
 96 1
Ni 7.126992726994754 2.644983931939953 10.685785140710395 -0.8973810806400223 -0.14150734734958853 -0.15799197526817307
Ni 3.6715652779918266 3.232147977293365 1.984663428842835 -0.8853750573180815 0.51657422009102 -0.24180968121577712
Ni 3.2681495574782735 7.57525686366939 2.008197846080594 -1.1709701111499253 0.30847735774665586 -0.6552602959417295
Ni 4.502617797411733 6.110926739351867 3.232725542750877 0.781425613617609 0.03176726510926787 0.018031403580414107
Ni 1.8139680833427456 0.2530057573600759 6.256052436954394 0.2143518421151405 0.8699121857957922 -0.0429541349640228
Ni 8.586949855705402 9.194475375362526 6.647800418455639 1.3103848376365432 0.8337902432622544 -1.9968588401769158
Ni 2.969795743997838 2.5190563267910084 4.630907003542505 0.785790575454524 -0.5896233746682104 0.10669281077356464
Ni 6.439286453505897 0.5073298307961869 7.321228907126574 -1.6834395650439522 -0.35078845981004103 -0.9713638027750756
Ni 1.4857183816568131 3.6162565096558055 0.27750736754652533 0.23739612552911377 0.23308515685858566 0.8448755545421386
Ni 1.2981379558448913 6.650794591129026 2.8291026320890733 0.38849960120756966 0.06198158390911906 0.009813129435679874
Ni 5.243634279399507 3.98764943424731 3.993787213196583 -0.1519488543978867 0.5440318020813404 0.5957598265832513
Ni 4.390533427831724 5.236996860490957 0.7645307302730477 1.045445255271522 -0.32209237742692914 0.4609057228841223
Ni 7.772555057496591 6.9856083700781095 6.2292570668081115 2.507024328528115 -0.054436938792641734 1.9137723559683815
Ni 4.90674859896792 1.8366031486538072 3.1888094822569197 0.9358776940533237 -1.6244510023248862 1.4830788950015814
Ni 7.813653882036685 5.0244436044209015 11.674159156592005 1.2240045131680857 -0.8750240531010607 -2.3611610182026754
Ni 5.262428076032831 7.231422062336311 8.277292261127947 1.8060076522868767 -1.7784757654151953 1.4995367834472884
Ni -0.1817616830201313 4.479487675994233 6.469571052432005 -0.19776719828358197 0.8148378705294677 1.3130081341920032
Ni 1.1689649828870703 7.171676124453691 7.478795181329795 -0.021094615886770123 -0.4871844540749932 -0.5374443786718098
Ni 8.877556957890636 2.325498556879122 12.423170794698763 -0.7510086918886486 0.038735983117617154 0.4851735942925515
Ni 5.9837339908198 3.919322523853084 12.533264855376775 -1.584023490437459 0.02476769386298315 -0.555687641152714
Ni 6.072147344347496 9.299812313565887 9.557986823385413 -0.8261196140908739 0.3587275121514596 -0.6357235114603826
Ni 5.141212671600728 2.2713724225751495 6.226653438396471 -0.540403461300134 0.9576292267978023 -0.5548610314863606
Ni 0.7079586520950404 8.852849991097072 2.1939685667923117 -1.2489321296477007 -0.49606273040122945 -0.44042534354258345
Ni 6.842014596093841 6.0309843458676795 13.271770302780222 -1.6917324011803638 2.4602585331274858 1.631274710114939
P 8.916959756880892 0.2397996773355378 -0.2502847823157976 -0.6919381109787373 -0.6874412515496484 0.04114176434563237
Ni 9.104127635937449 4.681727263180147 2.4833646150579076 0.8998195148781858 -0.6191771770659271 0.7287365107540095
P 3.8398843541810104 5.284073029131014 5.2110421689550535 -0.29653895443785705 -0.8248055232651407 -1.4688936046401349
Ni 6.5769028833902015 1.927024229724282 0.2151247975118348 0.44311728855244975 -1.2399741491234646 -0.5453191534341963
P 5.849582953680567 3.170880200268729 1.7512188050810633 0.009117903140868166 0.8263759530760543 0.004260317938250727
P 8.685053474131351 6.2581050862549805 4.190103545746014 1.9238382248448156 -0.03574116215535135 -0.5979095259364026
P 0.1403639912750399 5.407598695393164 13.489649079076766 0.061331351919629865 0.6219493404944256 -0.15905949730073898
Ni 2.5217516322593974 4.008460126129088 6.672408374027916 -1.1296344856259322 -0.2776901971624701 -1.2384055190847638
Ni 2.241696559305847 1.9439386466942736 12.09393648142336 -0.7640935500970647 0.9234762350651773 -0.7564211211534716
Ni 3.1139762511452944 4.731113693650253 12.1537805137567 0.9935046005381727 -1.20853341411568 -0.1837685700116448
Ni 7.874664963302426 3.920055940307067 0.630354023557925 0.2995378891651809 -0.8658045913853218 -0.4814645208720806
Ni 1.651241307615185 4.986681824746433 8.765313987002454 -0.10864967738961934 -0.22905315288105713 -0.2433765114822647
Ni 4.747725576332976 8.406401060146045 3.631424478694749 1.6539891209933193 0.4167210579471081 0.8121022167658596
Ni 2.4087871629346087 0.8534263051192371 1.113395851709885 0.2750208778604231 1.6641912583373017 -0.060026517065277264
Ni 8.130031404873762 1.3142731178325253 8.58305908141702 0.5221260031471846 1.6860466636494964 0.12943293268355774
Ni 0.30493897646663837 2.1218288076079403 10.348876541014622 1.6478914927360135 -0.44633425282785066 -1.1100817603049848
Ni 3.7212634104548745 1.2611187603300804 9.418830218947742 -0.45526317988636433 0.04009069737329869 0.8817749986716491
Ni 6.683550803505058 5.175875766757118 2.150575065521818 -1.1902148183121501 0.3393028277679447 0.9428006464254021
Ni 7.970531661543728 8.601893215955311 3.9619331030589504 -0.46759033399314953 -1.7885344352027779 -0.5011296034011756
Ni 3.2942133447117072 7.6665397090732945 5.252087820802232 -0.7667482141110924 -0.3368595084337747 -0.02234905711916151
Ni 4.11796837041448 2.4151862214956132 13.423768112556575 0.9716381394823845 -0.2862486282554425 -1.3257988581987683
Ni 1.7125274200511704 8.11327283890024 13.438661967195841 -0.04759446194951158 1.5147446015359785 -0.8486170238624418
Ni 4.53406302787627 7.563668883696453 13.292125359689965 -0.970453118035348 -0.28024690214605286 -0.7976155931139102
Ni 5.597929432907524 5.232541355533008 6.537465247118381 1.2925879186644385 -0.1402747604940681 -0.32179592923243294
Ni 3.69410866624614 5.61154347583459 9.878875774185053 0.14573578360863934 0.46007911321776895 0.22835381282118739
Ni 3.103314209445511 1.7332280994648512 7.266564628499491 0.9548426651916008 0.6314850478990027 -0.22554231151432125
Ni 1.4387888963075521 8.868196730396674 10.896996244669662 -0.12064695896081157 0.6978135959229079 0.6984692272290358
Ni 2.2329597357977704 6.060385177966738 0.5210813893083751 -0.8508546549437088 -1.5845436246069873 0.4483178589167828
Ni 8.398553504088422 4.030077576110248 9.158779079776588 0.11370652308723643 1.2441149107647154 -0.1693786198385599
Ni 2.48789529520239 0.2387041365074002 3.5093748130462417 1.3182680970393619 0.7215919292894283 0.5726342963093816
Ni 1.5167602330716594 5.926389991823975 5.191344436542195 0.011895980106637578 -1.3021837898829896 0.8852063929507014
Ni 0.8399057727900535 4.527828988017412 11.050845014221752 0.6583260793512468 -0.5918250103052194 0.6258317062679675
P 5.683895009020049 2.253706253739825 8.88007624341007 0.14517245490600159 -0.021296961705563323 -0.09936285277105468
Ni 3.4273834373437384 6.147670903696434 7.031846610419492 -0.4825538972815173 0.5696844696524382 2.185610979446081
P 5.208393618785605 6.184479241980725 11.54702416460569 -0.46615051622282944 -1.1822315429963575 0.5112348101559776
Ni 0.19300404048912886 6.831095858635162 9.991075656856564 -0.15637732248288552 -0.8457242756956791 -0.8384848205244463
P 4.163999420607611 0.4665986312536529 5.4923211306161885 -0.19518915314376062 0.368577665472662 -0.04374706317896336
P 1.6834107868280308 2.6619900259666927 2.6048367152489034 -1.0299163063979877 -0.36820948349996585 0.7196448328653865
P 2.3790196226085585 7.46231072975595 9.36140187705971 -0.34093033606903866 -0.7458011795457801 -0.4511309028855457
Ni 8.928951115903521 7.3047087015006 12.240848964861902 -0.6835583715554744 0.07139105014847706 0.9208969043737752
Ni 2.0121738800317512 6.627911997764745 11.433415205571965 0.8179260225364882 0.20121864716729218 0.2789824336113324
Ni 9.194933760646265 1.839215944771123 1.2255838163640187 0.778374228385795 -0.04853625703749061 0.8473610399681536
Ni 2.5968351417359448 4.724787976734646 3.287322897126534 -0.7149983352323105 0.0003699817449090402 0.5705051657815207
Ni 6.699704300904043 6.280235927753927 4.495467903755963 -2.5341695214843387 -1.2081732025627836 -2.1440964051420623
Ni 4.622604729283412 0.18814882356375895 1.6015560099400816 1.007665722529903 1.5123858714958147 -2.12678079668175
Ni 4.602903329788285 3.212034031042871 10.623861872730012 -0.8771956068310828 0.2948147726578987 0.40064806364464545
Ni 7.378875440409667 9.150195356953281 1.6098353649349864 0.1722770244322775 -0.020272634206107025 0.007107814689374856
Ni 6.523216798958619 8.665819627625638 12.763287174610147 1.3092021301823515 0.22598531258901083 0.11935369407068475
Ni 3.635637039452316 8.537664269997718 7.842688005908752 -1.6267817073405921 1.3131888827442417 -0.7806524828970103
Ni 1.2775197857822838 0.09238113654374537 8.597496384313683 -0.524826175687167 0.6885154584504335 -0.15136958485564897
Ni 4.301001614211705 8.015095878828893 10.463062148735293 -0.6411043161563217 0.10410756654489167 0.8610058844450977
Ni 5.861253443004578 4.806013849013304 9.342993124064726 3.2551001630406846 1.2442383237164572 1.4703617045452289
Ni 6.343575606261067 0.693973317088145 4.818958649426111 0.04598392292928209 0.5331015283220818 0.45264553975785915
Ni 6.883810166265218 7.343387251742548 10.79684547756653 -0.42446702044111406 -1.4191733545968719 -0.7394770370999652
Ni 1.133238433872405 2.5639964200088396 8.144496210887448 -0.3792222896707017 0.5562597116061001 -0.26616162769758034
Ni 8.331299215258147 6.918684118652127 1.8468214733989305 -0.4874240808896251 0.2280486228759427 -0.47027250881100296
Ni 0.8527964837393789 3.4857542193751394 4.693353747516919 -0.473237762086914 -0.31712500611932476 -0.7802171951318047
Ni 4.338396685659181 4.01345652572185 8.093413754867505 -1.565250323595014 -2.046001620450154 -0.6934326932463928
Ni 8.118480095723523 8.04271817602704 8.548601342867746 -0.7309587152163088 0.27712943956299363 -0.006160363174441004
Ni 9.433385785247609 1.1416452199761895 4.050785589688468 0.401804802956908 1.5676939000395 0.7872681884413152
Ni 5.6569327866304855 7.69323606799829 6.057937400551569 -1.5510614336891417 1.2457910129155576 -0.6938258149197535
Ni 0.945492989358337 8.097586894490671 4.79938193072816 -1.505994366147174 -1.0182077597118078 -0.8349698653926524
Ni 6.972736911310702 3.2732468018334577 7.37855090362878 -0.1299417539991762 -0.15382344571278025 0.6800099920825837
Ni 7.1474458783552155 3.0250128352771113 5.0415743792448175 1.027975637731849 0.004700747909779001 -0.23147976004467877
P 5.838847570335386 7.540282066520057 1.7617524989013993 0.5236157003188338 -1.1364481661136556 -0.2497806152363956
Ni 7.566721729686158 2.1737363571386132 2.763570038384524 -1.1688517792553417 0.39930877600793163 0.645931819451952
P 2.341725395923504 3.0940181558912716 10.165239145413429 0.1651265294304253 0.6848624350788786 -0.6181515640148902
Ni 8.024355261560432 0.17761237943172034 10.576523507707654 2.019983084899205 0.15788116072192165 2.353813576698669
P 3.232074635647966 0.12182872394174517 12.093695370764111 1.2756430632799836 -0.7682253128772512 0.8517002907734559
P 7.167706507896505 6.20716014582016 8.250925939607244 0.5886424988121798 -1.5334357501875784 -0.03102730161944979
P 8.891400193459573 2.228614243307919 6.345522826946393 -0.04822926732003307 0.1917310193918311 -0.46091343619360625
Ni 5.259751105975791 1.0661674991556258 11.541040403111753 -0.7181903598070469 0.0140572494240145 0.8949215633559363
