# total energy = -340863.6979671258 ev
CRYSTAL
PRIMVEC
9.34792678137770 0.00000000000000 0.00000000000000
0.00000000000000 9.34792678137770 0.00000000000000
0.00000000000000 0.00000000000000 13.68163574746476
PRIMCOORD
 96 1
Ni 0.45384557066241776 9.194199847022357 7.447995024837958 0.5659057193362963 0.2055075043506332 -2.3403955035205497
Ni 7.227470895194827 4.191787852435216 13.158421776783282 -0.4631844916159701 1.6685222816124878 0.6175784651202396
Ni 1.8840184981706911 5.500226472326901 6.147514294774265 -0.0005700135708570828 -1.3312339131714106 0.4082947815566259
Ni 4.7862224984612665 8.469642064140157 1.8014613505084225 0.9950567755166411 0.4696978672544556 0.8672089279320161
Ni 4.891059494139551 9.046913917115353 12.6509153688501 -0.5415254907197189 0.32240425224039315 0.6032093408827611
Ni 6.312935202087945 2.5255293020421132 1.1307149065136088 0.12600590927987979 -0.9102751629938711 0.9499249161750092
Ni 2.3730365770755624 8.569664877671824 1.9755047852241234 0.29791809417357085 -0.060410896987889505 0.5894454543294494
Ni 1.9455558983089123 3.135285199598855 13.016858647478529 0.9419771220828422 -0.9128570647884343 -0.19070772033363928
Ni 6.627446189122801 2.906578829891773 11.311428545887006 0.2835345717583891 -0.5444652900743333 -0.7277227247775144
Ni 0.28804326794760654 2.221366469640861 8.800903600667292 1.8317371958424968 -3.74996038849338 0.21183421789960935
Ni 3.3205143631624052 5.314913177424866 4.078892009322757 -0.5132163593623806 -1.7852213116691449 1.6977305277453278
Ni 3.134948674244917 1.3123927928004604 5.523932813926556 -0.10117162384501932 -1.080401716742049 0.09278597088448537
Ni 5.255058404056336 6.907463327378978 11.227109314079808 -0.24996676310527277 -0.4625913381166614 -1.8120644000039179
Ni 5.951123706971759 6.517009785472042 13.276932919343261 0.1355621855097472 -0.3392339222032222 2.234458597076403
Ni 7.0231719615747705 7.252065289811818 9.185699777457465 -0.4788893039457366 -0.6391811309916798 -0.21159201998181623
Ni 3.11796349179753 5.100546526966155 12.582480133748792 -0.8934694042904419 0.999189309627776 -0.8965794106743333
Ni 7.235790549778301 5.716705754174224 11.207817998165295 0.48606062488319524 -1.759042596391248 -1.5845937611186325
Ni 5.265537429660916 3.927867843609088 9.66645802850845 -0.451119590031636 0.6045810244193072 -0.6815637097229488
Ni 0.21244191239271296 4.06545997373737 7.695167288549755 -0.05066795866851274 1.8494850067442212 -1.8192097527994475
Ni 7.453447670364408 2.9204885445212234 8.299005948633082 -1.071045986558762 -0.22550143097405678 0.7368133742248729
Ni 3.302164383446269 7.6441266750764605 4.00844510043902 -1.4193530747078458 1.7164569005102375 1.28611722333843
Ni 7.544216036662772 4.5337910913015325 2.1562123567404528 -0.33694666883094226 -0.6771408980649047 0.8926487081613595
Ni 3.336405838209493 2.069126138689764 9.686310220012862 0.4388464290912378 -0.603001081526697 1.3131917109577191
Ni 1.9176523377115264 3.5872948374970095 10.44536746042964 -0.8496030419247947 0.9484951257070182 1.1580603450667926
P 1.290238206999521 5.265462646248929 9.070896957339357 0.33792548780444387 0.37552452910414036 0.12570791842348672
P 2.061666493344131 6.398225683458313 2.6827361863417494 -0.2538866669849692 -0.7688017542060114 -0.09420856226362484
P 0.8466155287556296 1.6555084349200733 10.941600269005889 1.0461967887255659 0.04579340418503081 -1.019980021120882
P 7.197417311502834 7.289587866775941 5.331322527599958 -0.28521375923302494 -0.0031747981835558224 -0.8288969197256949
P 8.11443955305826 1.2925284489916014 7.146630026837642 0.24152737408866792 -1.1539874605489997 -0.6428140997585768
P 5.179368243199709 3.9319996271213307 2.4135635776162343 0.4730271887380047 1.060523232650567 1.4040133590269819
P 6.238123746322157 0.7523379508498091 11.379631952411154 -0.9532650362918358 0.3881530165014283 -0.59098220268895
P 0.06813984062396111 5.302938483580561 11.631305242731877 0.2504138779450203 0.5288810624828311 0.8947937795288203
Ni 5.281363469222515 6.6839170130989505 4.234178829519647 2.122929284146144 0.22470027522900007 0.8209619811493346
Ni 1.304390967717927 7.398350991583507 12.862146724761285 -0.11254309890675457 0.25037505428728496 -0.1974416966233632
Ni 1.3873351195372248 1.2652979391020922 3.5782675448776136 2.2938048002452045 0.6308193892905458 0.6961297804625818
Ni 8.256752386068177 6.165116440370538 7.148873529197231 0.150995746455998 -1.0010559305228695 -0.6150356440937279
Ni 6.453228882974232 4.471150635836513 6.769878675591895 0.16028385662614328 0.295379129801801 4.094603397527316
Ni 1.3069149078724644 2.7209944451212875 1.6106290398017988 -1.7758051605615675 -0.7091200220746626 -0.6107899814434965
Ni 2.62058836660319 4.695052171323476 1.349098360988633 -2.4008228555686717 0.564923300818369 0.19821045646858768
Ni 5.7539198495639035 1.7098198878751187 6.996118127496079 -0.5646260812929245 -0.535373097965078 -1.109756258644766
Ni 3.661994118144818 2.5127039468864636 1.926018731927493 -0.02190425627225905 -2.5549869724503225 -1.032964606306008
Ni 8.184726612398876 1.0913704186749702 10.429017936984136 1.4236753562322835 -0.3716953851660373 0.9502324201130988
Ni 7.292569855328895 7.378028599376232 3.077711320295907 0.37929865143459196 0.8126694021232391 -0.07233387367772058
Ni 0.5027642048206018 6.122639462362323 4.45229119412622 -0.6609655738566229 0.3016863029667514 -0.7408584908285241
Ni 1.793867095021214 -0.10302536752291719 9.141576629592903 0.33708113752627755 -0.4335550987853114 2.674814520833632
Ni 0.3302837434154145 4.744100741659986 0.12555293559113825 0.500812329271073 1.1104070048548875 0.6190043989334888
Ni 9.1290447993293 2.918936788722508 12.248538546694599 -0.12370065818547082 0.6603284544932564 -0.11285111706547661
Ni 5.1823034921201705 8.211181244389028 7.612147418525821 -0.35352257091175243 0.9718682532153197 -0.002289567365125089
Ni 2.5617618651494722 6.757251496478009 7.994480416683696 0.742205748885038 1.2539450094812599 -0.021827380287736602
Ni 8.076113054415284 2.091981818978075 3.3983816561004834 1.5913889296635948 0.188431779815269 -2.0311727829674378
Ni 6.18382164129361 4.515805680718828 4.779132096212316 -0.8590001668689787 -0.03325361984680724 -4.525878442029199
Ni 0.4052503747610744 1.5549621375045015 5.54611076954374 0.19452889385194239 0.6748469598244055 1.5233876219229572
Ni 8.841736278404458 3.842568014312222 10.142346944646478 -1.1529137678688466 1.4422870577962 -0.47049670900666707
Ni 3.396101696827552 5.632135063144224 10.015874173087909 0.7108619444664338 -0.2582868529351939 -0.2237736496496727
Ni 8.38107980849539 6.715251262721208 13.065099556965587 0.7902599240797875 0.7327476887959316 -2.1035999876899125
Ni 3.562279786187594 7.289316776907491 0.13422968096684795 -0.0961399749583828 -0.2621825884451742 0.6868714950891074
P 2.01251509581614 7.740522493126792 6.040592711486861 -0.38176279670436836 0.09060464696245041 -0.5551880758084761
P 8.873023788394224 8.88225953977453 12.984966326644324 0.41493825501507253 0.18069455907201137 0.22773494829026583
P 3.7132207553554295 0.49657400789343636 3.4225843725971976 0.0901503330338512 0.3548250917732599 0.1821109798035638
P 3.488889215249545 1.6079368369702922 13.476725217598494 1.1336762597954733 0.15006192178781896 -0.5502466726428008
P 7.9534121711987735 6.394654775535967 1.2559004685933646 -3.022235606833337 -1.11844607310928 1.7301876198327686
P 5.368691798569509 4.662586822594926 12.164137053134217 0.13309315514396433 1.0424866868638303 -1.389219488547259
P 5.025594852302893 6.213043259527254 8.297952437316725 -0.7590397897232413 -0.8431313181575222 1.533074767303734
P 1.9234574000669626 3.2686333710969144 6.374807257994806 -0.02722464004390795 -1.3642311940330376 -1.4618629230455984
Ni 1.6564899672023932 0.5883706461066116 0.2732744788729634 -0.8049797467884653 -0.07181811038356664 -1.6932282689995999
Ni 3.8208153893507086 8.649486822040695 10.462688233438316 1.6063020993300012 0.198806952402006 -2.7375350397913047
Ni 4.109619578515276 3.0651290112292138 11.642059097375506 -0.6859906351460509 -1.0290138491883762 0.6037464443331538
Ni 4.231572627611924 6.012922849051932 2.196367309806493 2.4025136130075335 1.0647784083824954 -1.5256023701860886
Ni 2.8765252461997814 3.9434882287877246 8.143829433968873 0.14741265709043 0.4952299500872891 0.6614322290803963
Ni 7.490390675885638 2.5291376016704517 5.447657472871136 0.05890397342505985 1.9466919895145376 2.009825170529597
Ni 7.68095750547971 8.360308715816196 7.07261221003156 -1.3601475108819674 1.5460999759188083 0.5298236289017586
Ni 7.581187085963496 1.3662555452835885 13.04494636222793 -0.00207256625831256 -0.847733592816224 0.028038394194454936
Ni 2.589693469526353 1.332724532934234 7.760524251455177 -0.1269569603392394 1.1687985574199031 -2.3983427694592954
Ni 6.8362975629475216 8.630819012823617 0.3826956977060083 0.6643260056884236 -0.05958968663817479 1.1834692720582005
Ni 4.44989345097941 3.9785709969357947 0.3028242093266974 2.120054790811826 -0.7785647471300462 0.045776177793850195
Ni 3.2973595492261496 2.9521873632769133 4.044250463305407 -0.1564778526164918 1.053012783206135 0.6669791270405545
Ni 7.453793543644846 0.25171255161201533 4.916112871947609 -0.5476192623222826 -0.6118035103096754 -0.5244829334151354
Ni 4.285304509124076 3.5132218679245857 6.250674272438756 -0.25259134521231336 -0.4879521854789532 -0.7187626873707493
Ni 1.178165916211562 3.834052053272283 3.6193264424360385 -1.1211202775073337 0.7327731427172283 0.978261044115541
Ni 0.33635896084665107 7.247484805827658 1.833544369043192 0.765387843428456 1.5076339586331262 0.11870834717720202
Ni 4.966880525967154 9.048942417165481 5.270111370096528 0.1902310378075369 -0.07553361156194088 -0.2774091755869416
Ni 0.11233964148581004 8.500209783789554 4.23601195790596 0.8251369384626306 0.17466995014448627 0.03415941949052827
Ni 4.366107985775266 5.905281475424161 6.3386878047980755 -0.2273305137629956 0.3493861801458757 -0.42811284472381755
Ni 6.578163920623833 0.6403516609856342 9.021547383769603 0.47020694568039023 -1.3418790515900825 -0.08968444914102619
Ni 2.285577376757592 0.28594839761934043 11.586635241167164 -0.8271645104156206 0.6816038189322648 1.6057007183005765
Ni 7.29952471264362 8.131424735505647 11.463390308628453 0.47884688074357534 1.6695525226492147 -0.0603990699133476
Ni 1.4411978720203527 7.183862818080319 10.180245308255833 -0.6308929228409587 -0.39813789562828206 0.8441525603331851
Ni 5.494103580470523 2.0138238055259 4.134275669447157 0.12861017967194627 -0.5570377274227052 -0.649108674518037
P 7.129532669272276 4.927647278453845 8.966984471591752 0.719236027462742 1.3587367465773696 0.20707459172743692
P 8.406571604056218 4.431851952837716 4.571745542469876 0.07432930684119457 -0.730173243200536 -0.7404967366137312
P 3.2186780518900706 7.057422764264493 11.72518927293212 -1.44558244071802 0.9257133519258121 -0.07392230121076303
P 8.911331591184203 8.31238189665948 9.237579834730306 0.23879583409011773 0.14429622294863537 0.8751094137260154
P 8.462191766721023 3.022951166868944 0.6618378700419463 1.1705229963101775 -1.3691270886727582 1.9646061507907973
P 0.4668747106157297 0.47134956303045955 2.0129376220938626 -1.7954095650560562 -1.187019194192988 -0.08408561489701002
P 4.612883897403536 0.8402159382749026 8.635301343579545 -1.7431873745265463 -0.7229831532100001 -0.8644349647313048
P 6.711577527607381 0.7066854822101265 2.4964740769001383 -0.7296713638634531 -1.3749184985435547 -0.24349838177210964
