# total energy = -340861.3799513774 ev
CRYSTAL
PRIMVEC
9.38130697848677 0.00000000000000 0.00000000000000

0.00000000000000 9.38130697848677 0.00000000000000

0.00000000000000 0.00000000000000 13.73049104005332

PRIMCOORD
 96 1
Ni 3.672406436884974 1.0181157231118854 8.6281991241709 -0.5860425992954875 0.9060467267348202 -0.15169148697144197
Ni 0.2690465033551938 4.75183838252657 7.467601986656211 -3.1362267510405277 1.6184418200163289 3.0705898297670084
Ni 7.038325574191365 3.572045214635458 6.068987018677548 1.421341051672152 0.5096795498537158 -0.2975236869486295
Ni 8.577676095340767 8.317569977553323 2.7255708224638764 0.904140767961359 0.4320803140119978 1.345970448050637
Ni 4.113477966636632 8.098713466629883 4.857325550919021 0.24646646326149813 0.5107085053388624 -0.3174443371319566
Ni 4.554981036510133 5.400358753893814 8.356980848245996 0.2579279269338784 0.6861706123673408 0.3905431140001597
Ni 0.8009778676302214 0.06061825328916351 4.746465708009623 -1.0564007258417614 -1.8520216571231458 -0.4909495775443803
Ni 4.465033065026831 1.2001693666877036 5.058614626360647 -0.7376021886747556 -0.4502045344165343 -0.8906728153819111
Ni 1.1625315630173862 0.18659982494636557 8.660892040923315 -1.0555131810304854 -1.5344472221712282 1.755669823264273
Ni 0.919497547702336 7.581916026801754 6.533777306908683 2.7010503146017095 1.4403690148378807 3.1475249496621664
Ni 3.645528992339745 2.491675138294204 1.1872222249017104 -0.03288775186695627 -0.4398432457868683 -1.070228632863789
Ni 8.866151285485898 2.8031251492739826 10.514453491701591 -0.549931198284911 -1.157584948092271 0.2987336480963307
Ni 1.1565838143815483 1.94259662109081 0.26072528404921885 -0.0925928810370728 1.1885459152501594 0.8176768826401596
Ni 5.997525850761726 2.3138055576388648 3.642205195270853 -0.038520267562385274 -0.6170017666811632 -0.7486520187310138
Ni 5.029271774336714 9.170752942358165 0.1701346930366511 -0.2105576651800309 -0.12197159130950608 0.15438214642972767
Ni 9.106697378185453 7.384355082760574 8.752693758669142 0.67231236632801 -0.46169582288558547 -1.0775611619694603
Ni 6.320299099286388 1.2613448696124645 12.580343001864382 0.5157735785665957 0.16452874794542632 0.5136750441663541
Ni 4.1928907303627625 7.410078626545222 12.533960881942543 -0.34287640405181596 0.21482698197934616 -0.03282990204582733
Ni 7.005312754870366 3.2611205568474886 8.929185225326682 -0.30766720314053464 -0.33495252121904895 -0.22547083484643748
Ni 2.0636999131097853 6.978754274763021 4.25300614559691 -0.45255657958847867 0.36278291316775585 -0.30569311013329936
Ni 7.430454825341815 6.059498764781197 5.7619865616062516 -0.6185112613471542 -0.04388153187429862 0.46461788162838696
Ni 8.693685337660595 8.13486902379474 12.545632165976999 -0.45846934552848784 1.1637751360633828 -1.117332271219811
Ni 1.941339525953267 2.039017694401758 4.505083740856672 0.5828315485573575 0.8952540069946904 0.36519769325683554
Ni 4.163883729129307 1.0677428371238447 11.473678998273085 0.1814646044688165 0.5467641134108391 -0.33409994341076654
P 3.1229808113227064 0.6612676913142101 13.34798720947432 -1.6373957354110122 0.18751466731763836 0.491383065537373
P 7.315205468888712 5.505194859580702 8.042497860714219 0.13835003266752946 -0.3572954076906234 0.5304851737451574
P 6.2577539255401256 -0.014937855130669659 4.600909101173336 0.23346156636139792 -0.24672768734268474 -0.8146260116289777
P 3.779297048804116 3.392655862246672 7.6714446538623084 -0.09046349339889581 -0.19738821767760842 -1.184877979480269
P 4.52772833968504 7.5663524384944125 10.358076485375438 -1.1109705906678415 -0.49650753124813196 -1.341758466851818
P 8.399262398879625 1.680435997071113 12.670812574016692 2.0853022178219898 0.9312440519360543 0.2961160079678255
P 2.5245847632382405 2.906403957999438 11.151918930904055 0.5257126920571784 0.7364027690500156 -0.2496965401630216
P 9.334297267229713 2.990526137837857 6.085792692031239 -0.670731137883819 -3.036690605916402 -0.7392834330319203
Ni 2.813435205663235 9.078741083335615 10.426331122559827 -0.8929443850249073 -1.5993688625452778 -0.11713868869723698
Ni 0.8774936837558057 3.9634614864541673 12.008935097747704 -1.7256218548389572 0.31117290230094796 -0.6249626733994527
Ni 8.14560123899884 1.3264323775548035 4.645917797750874 0.10833137481825213 0.5177247887556955 0.13965589596314656
Ni 4.482885692241342 3.331583553698873 12.328566546559209 -1.913731475428117 -0.7539351215068242 -0.2605090573974933
Ni 0.26232385876143766 4.8278926383479215 5.297511485290201 -0.24315462527944576 2.067066668650569 -3.4661481375935725
Ni 6.681085403761232 8.031637121604268 8.176274360354888 0.16204326251941126 -1.7891252747092414 0.16967301115052713
Ni 1.3094053053559933 6.493112155470566 10.538563450682826 0.037139328054458624 -0.16104156072777426 -0.07605143173862386
Ni 5.4925676203632925 9.518086452599901 2.3702538199680445 0.7345222641978512 0.40755378962554323 1.5253493736350183
Ni 3.103758513286694 8.069593889712468 8.292996582006456 0.40468443849754815 -1.3766118270855776 -0.47776933140868044
Ni 1.7765943937861564 1.4711015127492122 7.121140937965159 0.7983162187253606 1.6291810608107038 -1.5414879310680936
Ni 9.205229245570633 2.1704779493449684 8.13197958123979 -1.8802567407094393 0.06577036152758994 0.29957259905785827
Ni -0.09786954711122159 6.0422653038284615 3.102912319395602 1.4029779757839322 0.5538688427764202 0.3096616078627441
Ni 0.5482304470509024 6.330168234246801 13.19545466275537 -0.25481483522619336 -1.8918099927646774 0.07261798057704268
Ni 8.75300334180003 5.067416168584848 9.727668603426512 -0.08361278902564954 -0.11455781534393818 0.7182081004188599
Ni 4.756941813532714 3.4538313651714327 5.49540921825256 -1.3533495141235272 1.2685036240217251 -0.7608485607972058
Ni 1.6427231429448228 8.390368919846859 12.632010550148099 1.1954837800205733 0.1773169008490301 0.3405935215549102
Ni 1.2832877466774877 1.3389376597812574 11.828982866939121 -0.7079432281577421 -1.107544852815744 -1.3734447422115057
Ni 2.8587375371497665 0.8042753970395226 2.5227028730547247 -0.1827406429677627 2.115447373946802 1.3851800283705629
Ni 6.078383335765332 5.198707560002119 10.072015105520531 0.5902687215616931 0.1229295843474012 0.5387435570992076
Ni 7.739240545134563 0.18417194269564818 0.8453233058031006 -0.45896711110051275 0.35331251178347534 -0.9634131804694313
Ni 1.9841182858577155 3.802956705049515 6.538995189860186 1.7064241988645836 -1.6912384922630808 0.00700857010734922
Ni 3.2348716598710303 4.799354702464296 1.94642044182262 0.31229416038958474 -5.045830577453517 -0.533799582830371
Ni 3.3374937771067246 5.635613789447292 6.44163223332678 0.0400637007901052 1.3647204749646302 -0.6409731898950961
Ni 5.900729525170914 0.5522006161718591 9.361050878522587 -1.176425992058174 2.027143092982754 -1.0890575926448343
P 8.121134790351732 5.635322968930398 11.907796165148172 0.5130111853301099 -0.7029570877970603 -0.5163312508422785
P 3.9279720020860687 6.260324403657191 3.0626271108908463 -0.36423070135787594 3.2273864991754997 -0.2131935601409812
P 0.6118919963297595 8.560498922230012 10.545196034729415 -0.01815790185594937 -0.10383374405821472 1.0742020156892405
P 9.24061553556177 7.203023799823493 4.992667790697421 -2.353029904455109 -0.774509603224066 -4.121513591654599
P 6.591456396715815 4.279939877984118 3.8492740939530776 -0.3260793870991352 1.4801545222659347 1.7360993573315135
P 3.6155744790996343 3.030696894397254 3.3753257738318716 0.387676591085642 -1.3429519729392871 0.15769886950778647
P 6.648522887176069 7.890148249481703 13.052823147440622 -0.20940863917725225 -0.9036892822462372 2.45964789612668
P 5.230528953334552 6.890532463767093 6.639200682413558 0.1753086121697497 0.4385227272032319 0.2044685215631575
Ni 4.131264924702165 3.3722421382220924 9.729563627439823 0.6727227143925512 -0.2334980760262882 0.9940938973827396
Ni 6.089321939723355 8.690270541913836 11.225417718699537 -0.8846883156637022 0.44819033219998294 0.4181583046142669
Ni 6.640867740666853 3.7097721826523906 12.269278562602162 2.9024345408125884 1.243911793614974 -0.006763029755446417
Ni 2.613838518003794 4.613163902502982 4.409491975084222 0.002453603746815129 0.19517064120099936 -0.8941438046496472
Ni 3.428060914851801 8.223860101964389 2.055839315977343 1.5455569589311446 -2.096104450643816 0.07026850650825962
Ni 6.883796685343541 7.3091826697969005 1.6435946663648058 0.22112052829754178 0.7455733798056902 -5.680297333688663
Ni 8.090439153858892 2.291168463856094 2.1221707852274294 -1.0418469963973025 -0.6728319862769058 0.9561845239314759
Ni 0.6250868046204628 3.4033505522227836 3.118249818204326 -0.2818204172807598 0.7429583107803462 -1.1471167015710955
Ni 5.076778712967443 9.142205625167543 6.857597509294164 -0.1289289964639457 -0.6415637722912435 0.07110025838093562
Ni 5.00738518511367 5.83912248212431 4.671580363040046 1.3346462812870692 -1.9897299424416186 2.243571358010949
Ni 0.5885663146134391 0.8033991829660412 2.18763823610313 -1.000990881612889 1.0041430540886256 1.0253256017035115
Ni 5.5127843369409435 4.032076365827224 1.215587544736599 0.6046969811718812 -0.012164660386991953 -0.5112144984410035
Ni 6.484556403489676 7.148255729577402 3.5273901933316916 -0.36935336729642193 0.7899279946616654 4.925022153214176
Ni 3.6452194092088575 5.610725181985339 10.841815137478285 0.4942537022169488 -0.3282314004451315 0.3591653710198266
Ni 7.559325839553966 7.212423869434076 10.43982800893582 0.004698433916933844 -2.5075820008037977 0.6153233505374758
Ni 2.6453597095123356 4.585761104765943 13.163531951307375 0.049522017989527614 0.3208178815898798 1.6682679995098368
Ni 7.089369265559809 5.602666639275268 13.871640508455558 -0.5893732063306172 1.0862658888323098 -1.59373094753321
Ni 2.2410441405733157 6.446421390548539 1.2167330023208824 -2.267711188481946 2.368884097878546 -1.7245928993538107
Ni 7.879031400690744 8.555705074354753 6.154596135674927 -0.10768937035887904 0.3507961731195249 -0.9214473775606066
Ni 5.457378337819086 2.0669458453306055 7.169897466687835 1.0091592763562942 -0.2074430308104492 1.2657522865288329
Ni 8.014994682992317 9.304802438032436 9.883564348703738 2.0867242949804967 1.936033224249111 -0.8016581386143999
Ni 7.773078919471261 4.771332738465483 2.2105408208739044 -0.7718428550251804 -0.3350036861719585 0.43615988339801015
Ni 8.340347790941042 3.6140078008312035 0.3403894668028586 1.5175357911278704 -0.5433669148038319 -1.944592426673032
Ni 1.6013703417038554 3.512408246058138 9.1101393797225 0.7808766830926744 0.0019177858480031488 0.6341438256780885
P 7.363322192474219 0.7900158104047064 7.553651086951729 -0.2306302675601899 0.4416198780713168 1.1933592774784028
P 1.8298614549127925 6.126546965885822 7.8792012023473825 0.012791495337713456 0.49720481442547276 1.6815006961500267
P 4.625838048255374 5.345234193981853 12.97874647113415 1.1991365462818122 0.07756015507366641 0.6134870686596853
P 1.2378916021209905 8.275401002603653 1.7893304561647267 -0.2832599779407638 -0.6864418637508565 -0.14390644370938444
P 0.9398380975323416 4.570206897765598 1.041553980512165 -0.36101913639911376 -0.4892765607173316 0.0825943750634642
P 2.6473110213676256 0.22792729665844183 5.730777767620697 1.0935140857542909 -1.4419379019868974 -0.24992639678564055
P 5.833418647470383 1.870219837612121 0.9073975379381348 0.5228695661814285 -0.20140813747027894 1.2992810144138978
P 5.875634528955037 2.359717674080174 10.764265501321677 0.5601474766962804 0.21991725201805998 -1.5472811407111031
