# total energy = -340893.73589008825 ev
CRYSTAL
PRIMVEC
9.02535950525551 0.00000000000000 0.00000000000000
0.00000000000000 9.02535950525551 0.00000000000000
0.00000000000000 0.00000000000000 13.20952593326591
PRIMCOORD
 96 1
Ni 6.460632224786724 2.0250650718347223 11.53915516888934 0.4987315354826443 -0.9596876519887277 -1.1778547540849005
Ni 4.472210113137623 0.289937873736718 5.996133967491844 0.4602308083042848 -0.31357688375675025 -0.20083683834784122
Ni 2.8035203925072056 1.8508846559178942 4.70589382270169 -0.5271424825251695 -1.1598598601693766 0.21552297960510622
Ni 3.407163522087247 4.26734347440525 4.918144108165063 -1.5182688126391528 0.29096454567387314 0.47088237448086
Ni 5.241071476500423 4.7016257301224345 2.932408846084254 -0.30421909669093417 -0.5724224374088915 -1.1100089980855206
Ni 7.276813548803024 6.004851562379354 2.5370087422822616 0.8906357914963887 0.6624341879823494 -0.2877002731003045
Ni 4.788955110111616 4.5781046579302105 11.235811928462054 0.5860112318369197 -0.32771666559224205 0.6915465319672736
Ni 5.780084005615134 7.93387778216107 12.54348906809916 -1.6830032488374822 -0.46903297997694704 -1.0180069565549112
Ni 2.0763652160945933 6.623585093296923 0.2590332372176028 -1.1231691896165625 -0.26950380469693586 0.5689293366539686
Ni 2.573572279302949 1.411322564804506 0.3577842098459242 -0.03144407744189424 0.39253623317078845 1.993513834964083
Ni 0.7239719320634821 9.117057305691645 4.7699729736923056 -0.5160389164128403 0.3216969417607234 0.04023262226780168
Ni 8.540129240680432 2.410908222301602 1.5349862376792247 0.14083037588722197 0.36270423741102054 -0.7991793380566042
Ni 6.683035137322217 0.8521979242421003 4.788387414989528 0.13078996093208442 -0.5707154820201139 0.03912164859181004
Ni 0.6788956758193758 7.325839302430685 2.366922229503413 0.3553814784973621 -0.9604875221822038 0.4372849981413889
Ni 7.586076522625815 3.9154086001495476 3.528753167314021 1.1265825861734857 -1.2614850266120465 1.262113147114349
Ni 7.679407766783332 4.04994061111676 12.652348443537308 -0.017778407029343576 -0.5387880371838978 -1.1997610672396886
Ni 7.934681039170066 9.075721158487175 6.75692395171819 0.7200785779686953 -0.6422451146289843 -0.17163707685543342
Ni 6.9466478420270565 0.6264908275381452 0.2854107533354598 -0.3388539131559841 0.3534899179016041 1.253799742152647
Ni 2.0746503977607835 6.2608739396171735 9.199430860696118 -0.17422926306264186 0.2512371451772641 0.17886521917275647
Ni 0.2632246142398203 4.808603318073217 1.2201627397750643 0.13882440120078673 0.20334443526104334 0.6430334148582345
Ni 6.362165550987429 2.01509204941967 7.089130292311392 -0.4967967803537767 0.10398235382093704 -0.5785015537234359
Ni 3.7009570294671414 4.556218160775006 0.8740952518288876 -0.03376809758938055 -0.44060094988849924 -1.2203111234768984
Ni 6.272354197094048 5.652077329676051 4.773962182658327 -0.20627600708554153 1.6236570456686812 0.8097332023130506
Ni 5.2468747827564215 2.5298985639487066 9.250076666381247 0.07834845530291668 0.9857372978879282 0.11306271885565043
P 0.20626105679855075 5.6716172333218315 12.38805251910684 1.057733328610256 -0.6965516984913488 -0.29690507952802414
P 4.028731015935428 6.303590966848343 12.63184733908863 0.26018972638486154 -0.4042833464043877 -1.1606509886121041
P 2.38444586780302 8.44615719598765 1.5928180347189809 0.3982271129079787 0.3177168740670528 -1.094460251717644
P 6.473637768044724 7.783740924356188 5.877737494509817 -0.442291964437677 -0.8911227584351363 -0.7536540999312956
P 4.7299382833496 1.0041705402001249 12.629072943531717 0.8905152067581243 -0.790251182329039 0.187168082611497
P 3.9285404984426706 5.900139339701131 8.070505481639392 0.30554835702531896 0.6545159615765372 1.3758669784997528
P 4.61002735501803 1.0833500204238844 3.832637929320404 1.1364311968327911 -0.7015401528448756 -1.1259241266538802
P 0.3111555917417374 5.430622079903979 3.6479953164954053 -0.27111022995210726 1.019072421704948 -0.4967183617073574
Ni 1.3218902760164937 1.154090789373369 2.5684341420532757 1.063089964936479 -0.5597636109943005 -0.38750458428415196
Ni 1.7659830976750008 6.717891076296816 4.918289416455454 -0.13851792570396143 -1.043265988232016 -0.36958116703651195
Ni 5.927423001928012 5.53177831087946 9.301131320858593 0.021697539578091663 0.01711171997962214 -0.28116607152621254
Ni 8.562385777581355 2.444238875495076 10.109091444768223 -0.04824417971836853 -0.2951418169800143 0.8572867837222978
Ni 2.079650447007787 5.339321541668078 6.963996388349423 0.3786175662071673 -1.0904506163376189 -0.28755037778600157
Ni 0.3836788692224189 0.02670874681707184 9.169247350413167 0.787691906242295 0.37678436965317047 0.1469961383783017
Ni 1.2924585781925246 0.967671985768929 11.392225923904649 0.19974463372492696 0.1526271114118339 -0.9038841718658627
Ni 4.205474633993319 6.901114902584578 1.7035140708462364 -0.51413887117665 0.05575694315564591 0.6683788356015585
Ni 5.604784445101504 7.620246534266891 7.9574709748264 -0.5981427249931313 -0.4548867703835521 -0.13175258195566986
Ni 5.178715266667304 2.921716502504966 4.906097058102066 1.227824401134808 -0.4560278259665308 0.03319499869472993
Ni 0.6462581702471475 7.457510274388331 7.187712490714228 0.31535814402688916 -0.29153173103125274 -0.5106455133114108
Ni 5.03830774656688 4.40877988550596 7.033412234502047 0.6031016116603033 -0.5563908378673256 -0.2320986245756003
Ni 8.100422743812619 7.097046435261837 9.069119107902008 -0.14562496906238792 0.11271613414950911 0.6636390069237281
Ni 4.587130017581841 0.5610705081032974 10.462419834554137 0.44104086563939526 -1.364286215640689 0.06981727790345395
Ni 8.19139836910106 7.447212339025819 4.413989323096882 -0.6163088543791967 -0.7178797705451636 0.5660828683441089
Ni 7.190043741112245 5.911610571818354 7.1736708361682195 -0.6230903960774044 1.2930054658178312 -1.2442624920861731
Ni 2.323506639435207 5.351045483855548 2.576227540112459 -0.4501435992716119 0.08100466197884114 0.969363227405279
Ni 2.5062882231000394 5.122306768844609 11.412806451518263 -0.5820602176089716 0.5339687614183837 0.5204123628901876
Ni 1.183928628381661 3.288516144106905 3.655115422724577 -0.8150530718640674 0.9570512428071452 0.3795513908753463
Ni 3.9732701808761544 2.7851989124143945 2.5851572309517827 -0.9981958353662551 -0.5592892424610432 -0.4389752413596182
Ni 1.104667919921037 3.3232186519674265 8.282716055520298 -1.045719077758199 -0.2240724118370141 -0.47770968181533857
Ni 3.580414325959957 2.493977632535215 6.94638791166909 -0.0975985617817803 -0.3646973565816493 0.702110680636365
Ni 4.136936052798832 6.718152811726713 6.041997235097572 0.23214593287376795 0.5772250010038574 -0.25225941579419137
Ni 0.8991758237648052 7.2972469630543175 11.050600717979004 -0.34739897451251783 -0.13023640242145956 0.8277795182918003
P 0.16216675968454197 5.40617238060771 8.211847126463761 0.3623460827406534 0.9328106250922259 -0.920156426663325
P 8.436048793177823 1.7625895624459873 8.02589673902524 -0.4171663730146429 -0.021006684158654143 0.33977668208056966
P 1.9640626659493479 3.2235786814134193 10.462829585882321 -3.015285657878065 0.09843648430204338 -0.6910986457965775
P 3.9407518100513275 6.036629853712747 3.9810076217054977 -0.012708448705603921 1.9107587659530383 -1.0366415409369631
P 6.742376877031691 3.836355474960911 10.485259409688554 0.3144639143473939 1.0992340189572036 -0.7800876115324759
P 6.309529653499116 7.870104590862645 10.193513756413616 -0.7028362459484798 -1.6935637979621478 1.0680200552482444
P 2.4498075224001323 8.55002103485862 5.920443691309405 -0.8985031100596074 -0.34430979406423284 0.5509357282900255
P 6.862269754643958 4.003496110349467 1.4501415392021362 -0.21705072910354234 -0.9185960241547406 0.4298704508448725
Ni 5.2951785076119515 2.8489540529935167 0.1414797328270384 -0.09189431230815141 1.5714657083771064 1.7315047959822953
Ni 1.2516278511285457 1.0277989317680951 7.06502265414592 0.8761869630609104 0.7924728725707061 -0.24817393287090808
Ni 6.8869811893701245 0.40068986709381316 8.977365496611595 0.22432720816029753 1.5343150674687382 0.28561150889207587
Ni 2.7239257457394714 1.502966066707168 9.277155452944033 -0.43136606155379253 -0.5015764611306072 -0.8726966905194649
Ni 6.382535787721159 1.8647476083427994 2.587310681764662 -0.27152366334044203 0.5177710686125986 -0.3324456956367952
Ni 4.204671376984323 7.030881523655729 10.319334490245073 0.2022136640907098 -0.17456350647360902 0.3231485866055854
Ni 8.142697528420857 7.111920227967726 0.2979108764529688 -0.2666390815546311 0.14104249189802806 0.6149968204359925
Ni 7.542926278131367 3.9026738176810962 8.164253697412814 0.334516719233211 -1.4508840554365916 0.9960541064329039
Ni 3.181303896805179 8.552963302105052 12.395502050963296 0.00010824344309013617 -1.5944074047749444 -0.9504730753689952
Ni 0.3081546596575701 4.79229449318272 10.317696387468303 -0.7650001210717341 -0.04603765898535297 0.6122693942025004
Ni 8.438016321581879 2.36380487027974 5.705907282246273 0.9409661643198246 0.7246795670758165 0.3935716164138383
Ni 3.3319461747505534 2.384644425715356 11.635861897556568 2.139336521859574 0.4763395409406893 0.47616599147730254
Ni 1.0412467176490254 3.1762948221985243 12.580329683661153 -0.10588985525629506 0.5387656685863946 0.1831859580352974
Ni 3.042692423275429 8.262545279234867 8.03641128301939 0.6012424469643775 -0.08323149442683085 -0.5631404978863335
Ni 5.444033764346303 7.9564050798515416 3.8226125598193725 -0.04547561583429588 -0.57151535221359 -0.2994363305903101
Ni 2.892609717628456 8.44255607748665 3.7552436652357377 1.4482144790242284 0.24088202719518517 -0.8487599771982093
Ni 3.22801013300237 3.9104446523411505 8.994472163295297 2.3481923738571493 1.584517656465058 -0.47050879319152517
Ni 7.241253631775598 6.30495379615574 11.422831821019294 0.06097936789684981 -1.3622930964700601 -0.67653951703548
Ni 0.5844994392229664 -0.17007477981130112 0.17675805863333394 0.6906075650927719 0.23116300013520835 0.6590364751547102
Ni 4.734866129719391 0.22571251191974603 1.4833765235833025 -0.4948594541217477 0.4266488585837814 0.7414092211256715
Ni 5.88243158406463 5.645642248244437 0.3978297306202113 0.46535424557377925 -0.13994643062037188 -0.4496507187955934
Ni 8.037416708084582 8.732252071584703 11.282282602772337 -0.36349716562596107 0.4851504543640999 0.2014161078900789
Ni -0.036720578278626195 5.168083392997683 5.837460924528448 -0.24719768500056782 -1.136094896539295 -0.9249505056178586
Ni 8.118644944949262 8.954916719550095 2.2966345336084406 -0.9247057365969041 0.12290464464673671 0.5437816337437474
P 8.506789562127308 1.595367698820567 3.6893278535560152 -0.7274316758996568 0.3461807858347006 -0.9255215476299802
P 2.0249567675189026 3.238091459733242 1.525620621968727 -0.5561710085470357 -0.09233088562493776 -0.11654604941856057
P 4.822926563840356 0.6321722914388469 8.14768855230821 -0.29170245228116215 2.200674815757739 -0.03398175626208341
P 8.469957069389002 1.5781292618859517 12.470215783231428 0.8330127416662815 0.8418583649823694 -0.3682925301320754
P 6.391976313916766 7.619506454775457 1.457393415682222 -0.7232857720520834 1.1614601147769612 0.9132517291236917
P 1.639420479280178 3.1756991484615162 6.0715074535505105 0.3017505805457835 0.5616729122018713 -0.4098112182011523
P 6.927477978126993 3.9627285608030496 5.803988573188444 -0.054134319950558375 -0.35005235297496484 1.3409395704949487
P 2.438986116177827 8.451283600269777 10.090862925879824 -0.260270459024126 0.3166560369027063 1.0381790606274122
