# total energy = -340872.224809501 ev
CRYSTAL
PRIMVEC
9.20865307386165 0.00000000000000 0.00000000000000
0.00000000000000 9.20865307386165 0.00000000000000
0.00000000000000 0.00000000000000 13.47779459851460
PRIMCOORD
 96 1
Ni 1.1149652731621598 5.96240014813995 8.34271444201898 -0.6990268995047187 0.47515914747934296 0.23698372058204348
Ni 3.812971645275083 8.144390447581415 5.633300390720794 0.7173123280774678 -0.8027873671228368 1.0816538439815953
Ni 5.73626325941497 4.670011759977415 12.709923594600935 -0.4894999895820473 0.6961920011590849 0.6847415932302982
Ni 5.614745876036917 2.2400876904487506 4.457659303745509 -0.20762403647300373 1.1960093135067402 0.25046967088362027
Ni 2.3506651942077426 3.005372787874718 6.117180106578616 -1.612833986911248 -0.5517155438788434 -0.2769492052313875
Ni 8.974624173755897 7.616301830986902 6.107638100466436 -0.4395051457211592 -1.6361952873450079 -1.0639104039552452
Ni 0.004580383941515867 4.813952213113392 0.7195171717570329 0.29086530109184744 -0.30919340997707395 1.3694819009090156
Ni 6.229543168130652 7.132534460694192 6.550760318686243 -0.24335517132602605 1.4795456850373423 1.0088378884611338
Ni 4.642947529168982 3.3984349273191556 1.8707451990874582 2.5043704358450354 -0.3891943132817491 -0.22825611090105852
Ni 3.870765150737394 3.786248134623135 11.250103479810656 1.5828826919647967 -1.3598600615485354 -0.5133744822067997
Ni 6.831393094277923 1.8196850606095387 11.27057615688902 1.4125345091241155 -1.0691374566821394 0.11312571088310196
Ni 7.150629463599456 7.94871578257685 1.1343761925636904 -0.029946152740129066 -0.4689422200353537 0.08796798067055173
Ni 1.1658430803130948 4.037736444721242 11.96221597378849 -0.08554008795534947 0.2790081446429453 1.8646545153958078
Ni 0.16871357110836452 4.954724889659336 6.256527283659048 0.35868071807392415 -1.8240724802083874 -1.2707240287118116
Ni 2.252151025718927 4.354477269112838 9.792722737167756 -0.8238038214735038 0.6506870747487503 0.22187488996506305
Ni 3.7352690322905415 3.5473940962736403 8.17199062198735 0.8786559934266932 0.9069422419658961 -2.2456416102764165
Ni 8.144657498514878 4.6664940545780205 3.31319226935811 1.892153749257341 -0.024388199036377352 0.19776257029789168
Ni 2.06342889363725 6.780699460184548 10.713646960345907 -0.7969563622633565 -0.7934167245412143 0.096072354945241
Ni 7.5840807545667905 6.128671584505069 9.352038970230044 -0.001167280835223796 1.1028564462011392 1.2312722504740923
Ni 4.419112803663501 0.3423003613197652 1.1651404600985036 3.129890010189223 0.1183458216314607 1.4423983865630834
Ni 4.250032728170592 5.527613602505307 9.734862929404722 0.7828284075024067 0.9213797575474648 -0.4211832074835198
Ni 6.822110772176901 5.115590846785072 5.4931446939176745 -0.15530183003051964 0.2684116000740216 -1.01296168082152
Ni 2.513621515536783 5.317656316886967 6.4460653023857155 1.8535645761302335 -0.025136904276943806 -0.44495228487865957
Ni 2.966668819828495 1.9917579482877967 9.543316503485364 -2.629240945968891 -0.8000069761642221 -0.24832254263363043
P 8.848705054302162 0.5828975976590647 1.346393453830837 1.1181331698545518 -0.6114574398241663 0.6473551821620399
P 3.183247126866114 7.9147911053743085 0.7475308146771886 -1.8814780147110501 -0.5754583960217379 0.46910908463052114
P 9.52644348881701 5.0734612598682345 10.319448473136326 -1.359689340298626 1.6470219456468667 0.4215210504389127
P 5.850551850283795 1.5122081410132082 2.449022815597632 -0.4117773407885876 -0.2886868053832899 -0.41711495095141704
P 7.934202945641126 5.838737148641323 7.303831979800122 -1.7554343102146994 0.5679469181360413 0.42876899025057774
P 2.6301293917492052 4.074101414936453 2.0204290890234415 -1.513435910026884 0.3917885563714865 0.6549000843888334
P 8.981346490356836 2.99736125987086 4.763308305745557 -0.2238027031153952 0.865191126171039 0.9148892647271147
P 5.622389057925655 7.330106108191624 8.831338455839548 -1.0158595711946055 -1.627285386449888 -0.2795300785846863
Ni 7.7927304114764535 7.928272573187696 11.560605441877408 -1.0596706548422847 0.8165425119254002 0.17527004562233042
Ni 5.103444633638994 7.292065163152617 -0.07167278708002875 0.3535104867268944 0.20021206027964872 -1.1380767028560141
Ni 2.898773422159021 1.8704891985374499 1.3867301160323289 0.1026068136296491 1.295064662339705 -0.9432896702466786
Ni 6.933738062363986 9.480308137898243 4.238523753803671 -1.450886626539753 -0.576036122902079 0.44530966821807827
Ni 7.0321969789355325 1.0148119644610607 13.746676095409114 -0.3192713630383663 1.0446883225008394 0.4466134746311663
Ni 4.736268017434607 7.42071004385824 2.4797115721788456 1.1065794035786813 0.8729787405362578 0.9817407751340252
Ni 3.8388571685151334 0.21020499838075707 3.661822658666211 1.6708036214474968 1.2118527082969 0.2723731558249309
Ni 0.3294460027673688 2.6595694550001627 10.322211068999724 0.611786798139127 -1.5635757641060686 -0.032951001004723895
Ni 8.309980443633563 5.636819016985477 12.27647782882533 -0.3111528476962899 -0.065522507182842 -0.8364143111486627
Ni 8.991779894067607 0.9041801296500889 11.984252280125538 -0.6403008464184198 0.49527185906881804 -0.4742021828827123
Ni 4.774318171126492 9.169267469638127 7.78486806364922 0.5628623045242822 -0.3231208186914435 0.7150752112168329
Ni 2.241505822991962 6.782900328222389 2.5697031324290744 -0.4200604067329863 -0.31880085115985096 0.5998077714003799
Ni 5.828847055450354 4.738128165315962 7.875088919356111 0.65602468491158 0.6431061770776988 -0.5204825540064907
Ni 0.3689741452461723 7.548351181400161 1.3543699889537586 -0.7937316846784717 -0.26308658831668236 -0.7290620124142283
Ni 1.7424705062275312 0.37448460312836584 6.833376638107843 0.7715646616631292 -0.1716771860647495 0.03532361500195851
Ni 3.9074800497619697 5.697172527947871 1.3457884453367528 0.06242304232191184 -1.2103758666410573 -1.3682588271351919
Ni 6.625966465875559 8.932927393524325 9.692340133009996 0.22956763062363045 -0.8872295940283172 1.4565222275589753
Ni 1.1095321679641412 2.5974386740323148 2.6737922193702297 -1.1280452867619413 0.2816386402872569 2.413639547717366
Ni 3.301559899042624 2.8219732571565235 3.7749141246608957 0.2367500073046826 -1.4190437709975432 0.7602422946717745
Ni 1.8470531769629468 6.152052354162305 -0.2269002860485662 0.8726817781211292 0.33670961311947173 0.3830002686558952
Ni 6.96825209335072 3.015677270445197 6.356990003096847 0.5271203710379826 -0.8877484426462645 0.43572151030901085
Ni 7.82355177265911 2.3507480720836442 3.077357748287311 0.191910739502805 -1.486896983196091 -0.41204679239989034
Ni 3.58280136658954 5.07472284531252 3.8404843374786757 1.882969254544596 1.5094468434721486 0.6871193494338553
Ni 3.130444711263678 3.8079160948450625 13.392398960156225 -0.45490836765010684 0.15978531972316998 0.740110556918906
P 4.506060904137551 3.819546623429973 5.961308922773907 0.2608592416480604 0.22061684918824587 -0.19695164436082208
P 1.7596170178863622 7.30419295899294 6.6394175451344495 1.447315878469359 0.41662258469603086 -0.34553492472058556
P 5.958440427402411 9.137359487415866 12.190381528742494 -0.056208171760451585 -0.5888525579404569 -0.6363585739412202
P 1.935382575368697 1.2491721802060927 4.394394016743092 -0.14424634354730642 0.10759475376254372 0.917313300787575
P 0.4158802604108272 7.423813359878125 12.265560970838465 1.8783034736378104 0.9000712258776757 0.3590368158617623
P 5.394401229972197 3.4495521594449188 9.598117196762328 0.3027193722169561 -0.5820920992881717 0.5850496392545989
P 0.36939221808683337 6.727399777326699 3.95150017311466 -0.17810520107828035 -1.459108757339229 -0.6521711154934445
P 6.2586056766136124 5.793587123580503 1.114177933341091 0.5732922416083547 0.022920356241599237 0.2584154080932582
Ni 5.953854518269168 5.1444139302932035 3.163912639283471 -1.4840394591426376 -0.32835918427224736 -0.3919801035570023
Ni 6.596775036252307 1.694659180484969 8.719297697138241 0.26736413264611375 2.24493275713485 -0.9485285500481149
Ni 1.8436275580923318 8.3138572864952 4.405284169636612 -0.4862526862893432 -0.8599717867536285 1.934317527109585
Ni 7.460058617605922 6.970314831595391 3.3815646752466644 -0.591348070668801 0.29972635102690315 0.32901790090216887
Ni 3.5531955475867782 7.0580640848698275 7.978166896211261 -0.6936520083460506 0.26009459556789394 0.42900758862394506
Ni 0.27966126271305186 8.188518312172778 9.567818887063138 0.486406181148072 -1.2377092643486876 0.47469660602062763
Ni 3.8173089207806195 8.296139838357933 10.444252424726534 2.15428491563929 -1.501061190511615 -1.8895854743095328
Ni 8.935505816330165 0.6664449426252709 5.607167154718326 -0.12614474885058918 1.9054941751199896 -1.6443076320394971
Ni 8.489484714184366 3.984676186838221 8.837537720957016 -1.1945504695730267 1.26824162860959 -2.167625084391622
Ni 7.130803233953128 4.001039963002422 10.901783422104545 0.4322353515326234 1.1868656993342592 -0.6408703457686447
Ni 4.677700985130543 1.3096361950030233 10.593276975116453 1.7328782792910542 -0.09046735005363775 0.11431253210235152
Ni 8.238825182845279 9.132009260093751 7.688825497592859 -1.118315461068687 -0.13446740978367164 -0.05307168301399893
Ni 7.088857820093851 3.572984942621595 1.1476716455889429 -0.3987531606147778 0.40696937787698295 -0.3780827767496198
Ni 1.9703754563050868 0.19417549631602712 10.950168446921404 -1.7642403385421033 1.2490701978874617 0.25945181977757253
Ni 1.9967582468005494 0.054168058824243644 2.3162938973406173 -1.4987662238298511 -0.5532576915549826 -1.0766911006596813
Ni 9.082503542221636 2.2525562064455587 7.455147643026087 0.08206267092971027 -1.0200625535323595 -0.6238524710544094
Ni 3.829224917604748 0.17723065415522424 12.501813564749925 -0.8508155741756573 -0.2658307267207228 -0.46442684866350337
Ni 5.07288111473692 2.256589596406122 12.82711291112633 -0.2384111970571894 0.25704372455671215 1.3078543579052055
Ni 4.177864515565727 1.5862733361109407 6.285800670292914 0.5522904425457068 -0.1395365967764629 -0.5925253788063538
Ni 1.4494972149140464 4.610597531608578 4.282785143861765 -1.7012331415819473 0.14924405387221393 -0.8081974823948145
Ni 1.477611232150572 9.299266022316816 13.266813193936674 0.5029100923403661 -0.7702896516054476 1.791803849982669
Ni 8.931269836006287 8.794797600354366 3.419289763491956 0.5429997612724002 1.043267530893913 -1.227314294267609
Ni 5.7849309898751855 6.832691514333721 11.025347889017375 -0.17178825772131706 -0.06543020457935184 0.5094278388542258
Ni 0.7935501365696924 2.493325644593677 0.5158263744221712 -0.8044128185414017 -0.693061168839587 -2.2927727594362644
P 5.414789187444082 7.006679801810602 4.507567439748392 0.23463244674104752 -0.2842056296834848 0.017517182948156927
P 8.66864826457868 0.8865879191919627 9.510942563427477 -1.1003665898997501 1.0912785115555528 1.1853590328817456
P 2.351650520065688 -0.2997895361737784 8.87524899622299 0.3435109523120213 0.03495209059515271 -0.10854914725601306
P 2.5029026435867943 2.1677721393978375 11.934856145222673 0.0788477635368384 -0.9384621669510482 0.1899199343250213
P 1.530376813141497 3.24621589524586 8.200402078711834 0.17088811450455083 -0.2810125766674838 -1.105413151184722
P 6.497772809160958 0.832392234409085 6.5818809610874345 -0.29899435795688506 0.08856370527302167 -0.7131872501655008
P 3.785695615450455 5.844400470161292 11.992016095366978 0.23556627140922656 0.22159515394111515 -0.15735896966986446
P 8.26958208345779 3.0924866441005725 12.780277702588837 -0.7864495491947617 0.3143399871750199 -0.6411498246822764
