# total energy = -340859.4770727733 ev
CRYSTAL
PRIMVEC
9.32127012942698 0.00000000000000 0.00000000000000
0.00000000000000 9.32127012942698 0.00000000000000
0.00000000000000 0.00000000000000 13.64262104283608
PRIMCOORD
 96 1
Ni 3.5067644038173853 0.8324248545779549 0.7047234520876019 0.04294102233790024 -2.331504114568191 -2.3017153133415325
Ni 4.523006572073461 6.200471688392177 2.0998584779136316 -0.23976154043749678 -0.3892706750456393 0.037784417837625255
Ni 4.60278732418404 2.25330522884766 1.945260550103139 0.4431324580611014 1.1602108157508921 2.2489714459805974
Ni 2.2618062273200104 5.571211376033144 12.969576283152309 -0.10696894725308674 -0.9883289698745044 2.3871178472777532
Ni 5.330815816162619 3.447182844348893 8.655410906882926 2.4815544663917843 -0.7719343862977222 -0.5795652191012599
Ni 5.125691942936144 7.855183584018999 4.646663475400269 -0.43809463852687774 -1.4028193387188808 -1.391030830724385
Ni 1.894231256093399 7.843233715552383 8.504441749582615 1.40145793959498 2.393845910030206 -0.4050716466336378
Ni 3.6830109817945815 3.999057971052823 11.611276120992056 3.5448840581428946 0.7447025471649626 -0.29205392208330994
Ni 7.529806003235732 2.879489522022619 13.381023677087049 2.178531961112112 1.8573947485096012 -0.8784400207611452
Ni 9.074032882532762 7.401023333395825 8.041206310239398 -1.3376243900787865 -0.07626354774942995 -0.5844724265948902
Ni 0.9881012533569244 2.1713153356867005 4.820933944083454 -2.016045697518012 -0.34192586721308854 -0.5212045197741798
Ni 8.337494070811578 6.218787984442801 5.999451970458877 0.06737524412086461 -0.9361535734225296 0.029715781896877857
Ni 1.2901756585032653 4.369093757626694 5.472259567389579 0.8812414947656824 0.38441617516681537 -0.3336973086557092
Ni 9.108465654853882 1.7599117517221592 11.70558686917577 -0.7314312839773531 0.34997059189443597 -1.760762150185516
Ni 5.640114205756406 1.0250507686468338 4.961835197381588 0.22195485127337905 0.5055881533931615 0.17295193901211503
Ni 3.653891333518679 9.157318432259133 2.9382526739627415 0.19729462952253765 -0.596854602309327 0.36228617603699537
Ni 5.045659516528685 0.6534741760998495 8.837089921164603 0.5655735328078582 -0.10257647461234594 -0.07746579558764724
Ni 1.3614833759522578 -0.017021571612236025 3.6888554182443225 -0.46694395865840227 -0.45357216533718664 0.4639684209698461
Ni 6.9322380097429175 8.179414648560927 6.1917721468634 -1.069106346333888 -1.634131462837444 -0.7817675703380601
Ni 4.894515119347585 7.382595182102145 8.194385540717114 0.4344454718100647 1.0945070457951795 -0.2779640196491471
Ni 7.249599298107082 4.544370923497395 1.6894336273258408 -1.7613740727379021 -1.1501778569949224 0.1353212731435347
Ni 1.4028884584239476 8.840842664569173 0.8366296795898818 1.3579805851376354 0.04416743854583361 0.9544297460238981
Ni 1.593387258620688 3.4296961413509446 11.25760475647746 -1.5759139739564474 -0.5266382891952415 -0.14313948363637283
Ni 2.9465094551544166 8.953676641003167 12.232356086575502 1.4263724434484726 -1.346472841608352 0.4862046066602272
P 1.6298334253168398 2.56575420778756 7.268788997180578 -0.615893621218649 0.8234420672587109 -0.7705750440563502
P 0.8662032737271914 7.5556352431117 10.779962361828469 0.20667092853111504 -0.11856307984858935 -0.8885300580072955
P 2.6662002160529648 1.7559874969449007 11.829776017034126 0.8708084723578164 -0.7448123332699494 0.2810848246663159
P 5.148118919169121 5.48942655081779 4.111053965290913 -0.308095806037521 -0.19301708519310629 0.8053273599358712
P 5.4790519770242305 2.076014668601929 6.797313554932144 -0.26769220540949384 0.1193583220563751 1.5915719922086784
P 7.300325650833543 0.9571732786515966 10.314203654627285 -0.2902361521482808 -0.48571763972147963 0.19799448380303966
P 1.0433391008866932 5.877853203604322 6.889646329567796 0.3324598367041823 1.4845703919454434 1.2174723684765227
P 3.4481895415364088 7.508656041027659 0.3859732944554772 -1.931512710670938 1.3804173168745968 1.3700976801161435
Ni 4.837636728252978 3.274422421446981 4.920129037880669 1.1205816313950443 0.7212880248957643 -1.842592393389446
Ni 2.801106960450255 0.9691790747397407 8.02790485758584 1.0904963819738898 -0.7868316151245288 1.3068724536079106
Ni 8.612238511570933 0.3532752105287685 5.302777435236269 -0.6242844163855056 0.3430075303130415 -0.8833135468033626
Ni 4.542012642122938 9.13796747521023 6.466125094272054 -0.8356314102360511 -0.5039591024301708 2.2526447810671266
Ni 0.2097528160349939 3.3590409128197853 1.7381931920285443 -1.1300252933064474 -0.350706441619196 0.40283555821426753
Ni 6.703820282149772 8.193294019970281 10.905284044022778 -0.5068914455856174 0.5098497568829928 -0.6217115134520067
Ni 8.300386093927337 0.23478322305012855 0.3256674722881898 1.5539107302124786 -0.561864202277071 2.3692003435673845
Ni 2.0118936505193643 0.3858232220043753 10.269524009915095 0.6446190141777994 -0.7749230366124009 -0.5704108062955014
Ni 0.6223756221488593 5.42226679863217 11.310333318054644 -1.087727818089817 1.286998597502119 -0.26118988551460176
Ni 3.7325721757391954 3.565842614692119 6.803097403125229 -1.5783444377748106 -0.5587451970321152 1.4591522089826547
Ni 1.8783571328495252 5.859080165311215 9.321866816066594 -0.3438914755798916 -2.4470304644729857 -0.6208782189174339
Ni 5.3779161947599725 5.9861384001539895 9.98098222492463 1.2724178714744667 -2.1002071599582797 0.39341477912099987
Ni 3.52260124198024 2.5611401790114487 9.669535282537117 -1.7682013800723804 -0.302325479212647 0.2446144976544239
Ni 2.9661680141217275 3.0958082408250727 13.569319861122587 -0.0649838610705526 -0.8874352822812202 -0.3370397427653809
Ni 3.008104408997939 6.091207758465759 4.198625435080429 -0.07448280169992333 0.2679233475836934 0.5621405958669093
Ni 8.842334067809936 8.21646669782364 2.079476588374551 -0.1908758704803874 0.07909536077127023 0.6914791690644478
Ni 6.669844252071135 7.0987158964931165 1.3401665630066235 0.05822443085953198 0.24718380104349685 0.6419738632454686
Ni 4.597138634409649 5.9848241010480665 13.232592701677111 1.4934062450695185 -3.1725181292723943 0.10661850589220348
Ni 0.7247231695462371 7.967989596642228 5.877036660330004 1.8650232115891363 -0.24395295281102503 0.8516550393578171
Ni 9.214979810055143 5.79150095596413 1.5518349000789728 -1.3894406034191298 0.13403392179067883 -0.04858819332134858
Ni 7.813927641871385 6.182751953637858 10.62982559396191 0.12837260973984344 -0.7940993524305356 -0.45836881539488156
Ni 7.3517324562886 2.036175559533041 8.520294433904903 0.11819155544178354 -0.04939114883861816 -0.8387092778304265
Ni 2.492936444557295 4.239910273165832 1.7576876966393709 1.5031815792887275 0.12717010479131 1.0810802308663123
Ni 5.15950951142045 8.05437912936344 12.70826565708413 0.9902462415018751 2.0530492713255546 0.1584213494961078
P 0.35726005356268276 4.288287665788091 13.179303931757616 -0.14085608691883483 -0.6726011012130223 1.0044868105812894
P 9.131330730788834 1.208465403449949 2.4221246186858556 0.7883701632562422 -0.6622300423913433 -0.41430679207866067
P 7.597571637987912 7.368063321774958 13.079985797193038 -0.6799536849233515 4.981509289667628 -1.632460502892924
P 6.011986282570467 4.5820941042184495 12.040677213564507 -0.8591654888022494 1.2551608841662318 0.07844307189925201
P 2.880971603993127 8.373669920670341 5.31430598228737 -0.16635963050657798 -0.19641454091042948 -1.1823896658407766
P 3.7453982436097593 4.707455867874855 8.854634416038131 -1.1895627865504481 1.4122349756058261 0.2869849922008348
P 4.72149370087854 4.170382918335501 0.8824446550191033 0.03578872756383514 0.166259614593604 0.7722290347200056
P 7.143420708634993 6.617840885319771 8.447115005388753 -1.5358626144615162 -0.7262962767436331 0.0013017495305590486
Ni 3.3193043377237 6.2435359569692155 11.156035535146355 -1.0350070906573337 0.23827081482458315 -0.630541967259443
Ni 0.76739501264555 1.958016708446792 0.07290724742471129 0.8077241423028219 -0.7209573810292229 -0.08555988544969136
Ni 3.4584895451679296 5.898909953109849 6.868732195497168 -1.5713836901862615 0.7191051583118325 0.5130412672370971
Ni 4.86247791348194 1.3298935910588414 11.190919456947807 -0.006876929625491383 -1.048188365234298 -0.3191610627127471
Ni 5.764692982711411 5.99239297249494 6.359589500149208 0.5204097917870263 -0.6600361200638181 -0.34181788088031456
Ni 0.6596532461517367 0.6104490568578808 7.308638359646747 -0.9582493768803045 -0.11035946099187445 -0.056215113738987056
Ni 7.299253704754244 5.683812320710769 3.7917752916353433 -0.0640171262819091 0.25141069464065086 -0.0620458614881512
Ni 2.196240412347956 1.6657109945274506 2.3165714864478626 -1.3019243655740158 1.6510287528134147 0.4496404343829482
Ni 6.942957470535904 3.136038843244661 10.970631741270873 0.47646963876065046 -1.164407627441059 -1.675097106616528
Ni 5.343977449762354 2.2084792401924696 13.24021843287254 -1.1304824354485241 3.160064991110706 -0.544229005693811
Ni 0.7330405389945686 2.0933801950865663 9.468510903968692 0.12456969105398547 -0.15899007751538427 -2.203729286313347
Ni 0.5039535441971301 7.075897426909439 3.818310151669598 -0.8401328976508305 -1.8038965194811452 0.021744847876259323
Ni 6.153194205659982 0.1977255810252638 2.977801891526706 -1.0968907155360077 -3.027735196495328 -2.486666333697053
Ni 7.38223165256221 1.777771305530299 3.6958407781732476 2.8197807732660984 2.5907903553021767 3.8542574453412586
Ni 7.669326776409133 5.446585992726866 13.249181766349526 0.4091265334293019 -3.6702718742228018 -0.6865832744247272
Ni 0.39343590342144624 6.913539541611849 13.252278292328162 -0.2776588297039025 0.8241105540806452 -0.27325041622356167
Ni 7.088667567158473 0.7784304645001725 12.401920245907053 -2.6958823972475248 -0.15696122001081356 -2.1721494546245363
Ni 9.09538791268644 9.147969198193598 9.580490119920324 -0.6512208357650333 -0.016125959027585127 0.47081835401214395
Ni 6.9879978484069545 1.9918902045526272 1.7007030430638583 -0.050203360327268375 0.29883777777436277 -2.5399815001804256
Ni 8.381667570548935 3.692770351751326 6.380940801794784 0.38625605658903156 -0.993562707469618 0.7856681909440469
Ni 7.513754775857017 4.38934887789031 8.339447809056978 0.13891747513522526 1.7060321056324876 1.2480296724380895
Ni 1.9820562644338446 6.647221529162807 1.9942783139918996 1.4815855982855064 1.2495191124994223 -0.9159719562683323
Ni 2.847815845696909 1.3974634791356713 5.756736346421939 1.3189545815834252 -0.6295736898089029 -1.0995464079912998
Ni 0.6801786832527408 9.032180379088842 12.33571312754147 -0.9220145629179863 0.5647037286083952 -1.1157189039861042
P 2.940404023137542 2.932378409448185 4.028925185203158 -0.32358156037794594 -0.044510423707549145 -0.6800801831988869
P 4.327073471318189 7.814272528870812 10.357055398242515 1.0376535271412453 3.125274108683766 -0.5652097217105363
P 8.414301337710885 3.855193485940698 4.354779082896443 -0.028643888988937764 -0.498659030373496 -1.172556996021071
P 1.0083470523502855 4.8506678640691465 3.0650191530465407 0.14162973186006578 1.4593800087227446 2.5371612571228113
P 5.726923195639082 0.5001886831412284 0.5589695454948354 0.3357580478394798 -2.20402059230152 1.9327458117470908
P 7.741603905964623 0.2903202833550754 7.309007481948835 2.0313563597331536 1.1329069857296168 1.0502105378706492
P 7.425156102085426 7.821533798399278 3.6958407781732476 -0.07137202398508354 0.6776936852445813 0.751819360715402
P 9.314736044321695 3.9870428536944242 9.661527379261244 -0.9989234575608991 1.7140372353251516 0.30254042343693055
