# total energy = -381167.52210263 ev
CRYSTAL
PRIMVEC
9.30039415084431 0.00000000000000 0.00000000000000
0.00000000000000 9.30039415084431 0.00000000000000
0.00000000000000 0.00000000000000 13.61206693800679
PRIMCOORD
 96 1
Ni 4.14206076867969 5.148019308037837 2.8985673709802553 -0.23886808208894994 -0.09144436925492638 -0.5054068906202909
Ni 4.388967634270328 1.900135640659419 7.238080159018166 0.19990738455503637 -1.353305034038837 1.236523728681019
Ni 2.0373443564970968 9.003265219555043 3.4214336736069124 0.10592585070055306 0.38669262990581793 0.6111782180208506
Ni 1.9698048937157495 2.4042914102065507 5.072795859556964 -0.072318704169069 -0.5627846572088114 -0.9570512428071452
Ni 9.060797458162233 5.914427593628541 3.192928568007899 0.5247127900377544 1.7128313879425083 -0.8580262329914835
Ni 5.29308685698626 5.254769232824989 0.8086116144545434 -1.8387722483124074 -0.15335627626837461 -3.0152982562835553
Ni 8.539073243945042 4.244783622772224 4.571721310612898 0.7662321937066223 0.8519699994950746 1.233878577748688
Ni 2.74504855380966 3.9919710068557603 1.1514855277807365 0.40734424471789843 -0.2528731381187903 -0.3529355880600309
Ni 3.5090201361163227 2.901323077785834 3.0930562847419263 0.12412514731739913 -0.7386954217389343 0.2905871077297963
Ni 1.4820271183792972 2.523541064817186 10.328604876455069 2.616023933057985 -0.26161540308779463 1.0980099167421153
Ni 5.791178769505929 4.754222016232851 4.510372190220323 0.3743163677286521 -1.2399517805259612 0.9018288319987307
Ni 5.821981675142368 8.620758606325731 11.14272883456019 -1.1742611231963713 -1.7096331927201847 -1.8190670565739964
Ni 0.6585488237738336 8.512009096782592 7.173273152056862 -0.17423877614433864 1.070826414348788 -1.208741673471744
Ni 6.66637376621663 3.819123180390415 10.17409463726127 0.16358489597491827 -1.6505687824578605 1.9563102293305918
Ni 3.9503145411716987 1.178666859910283 12.434596372684387 -0.5407366762698365 -1.0102052011223055 -1.2687563634624794
Ni 7.902275252119258 5.767295357164632 13.303209480409913 0.07699862614324159 0.6525673224905988 0.8938872085541509
Ni 1.180619942695202 4.569460384779499 9.132580690823382 0.1596225688930606 -0.05520132776249203 -1.2891387837735735
Ni 3.448902387917668 7.976752808984175 9.862718369019296 1.0747051805779038 1.928653901065904 1.5971728833352234
Ni 5.380836076394414 1.6838177716383016 0.5142476273086352 0.699985406763246 0.02736527938683029 1.7354727794911078
Ni 4.934091640329692 0.8405361476331791 2.8874599101705933 -0.9623687983653169 -0.5905847101402152 -0.19874910258087708
Ni 9.065959176950948 4.324385696849001 1.4859611851317773 0.5831272254209053 0.6983347585337005 -0.906310264808852
Ni 4.203582876404644 7.1478086726992025 12.039084088186359 -1.4222445373230281 1.8094405892278256 1.4734963935194687
Ni 7.032930203369101 3.576224784705969 0.2705884593774924 0.8005520500344149 -0.1380929223514009 0.47282587136047594
Ni 6.50913200124221 0.9423531433292789 12.238936539291187 0.5249745283395733 1.551382050253354 -0.16035250508054966
P 0.32195081646318063 5.8352626380798185 10.456503897684632 -0.07966280323896602 1.5082422816410863 0.41375606178151325
Ni 1.6357905359177185 7.383889879424859 8.667647473794535 0.5363511456076311 -2.3748727113618133 1.40909205910147
P 2.595767926282339 0.6528579125543478 10.628179874479025 0.7784940417931109 0.08129365397416968 0.8629480957731331
Ni 7.5964782903662025 0.9255836025221944 5.712807137583652 0.4583436185839009 0.9306249302948165 -0.09625387482842779
P 6.055793585679832 7.373510639482145 8.267397568483945 0.5708846606081265 -1.0618928593045842 -0.32744824242220383
P 3.723022206978179 7.981254199783703 3.8634581596080797 1.3397728038803571 -0.2956233846021231 1.7705863353647895
P 9.174987698320505 6.383046556884358 5.390446173735637 -0.24155257089964846 -0.12299386192643334 -0.03418744451498628
Ni 8.787682081676824 2.7031409774818234 9.828484547957348 -2.499497166913134 -0.5956466980441548 -0.6286876876595238
Ni 7.015836078803951 6.848717295174368 4.3244721905151895 -0.19056245300502667 0.07032352811591115 0.1588746349834425
Ni 6.984986671196442 0.06336544585814854 3.6129287904711287 0.27000362715148984 0.0066589000774143385 -0.22309410708414482
Ni 1.0744187411666695 0.6038011231942854 0.5011563924131486 1.0890663343955824 2.8853567593946954 1.7841792435578754
Ni 9.099635904399483 8.366123113143344 4.256125453516076 0.3541177812935901 0.17296710852076663 1.2588856413159866
Ni 0.6825801123831317 7.597445531364448 11.52683418555487 1.5383678973818733 -0.41149657632337516 -0.6246114607076211
Ni 4.489011974829258 1.9991104358837508 9.603871657336853 0.7984506874206958 -1.1658142779805987 1.9887799198235234
Ni 2.892441201311559 6.290182120658559 0.7828244114176608 0.976717353777505 0.02026055002124898 -0.49610695337560357
Ni 9.148100258648117 6.161529767497671 7.5965545535987555 -0.06934162381861605 -0.37477171009851584 -0.9685888111330997
Ni 8.087139187908964 1.2509402233465057 0.2465171790730745 -0.5677581991640028 0.31831439844173565 1.3558044034219232
Ni 5.960929564698045 3.2257673299377614 2.5337770786890053 -1.9867022113588884 -0.9351320741365509 0.21611818998694393
Ni 1.4927132713310693 4.090973703262734 3.2172528190349357 -0.8699150140092696 -0.5872443329130725 0.335164637229855
Ni 5.075959853668534 7.257506822452162 2.4865431665948674 0.8143406191780751 0.3939505970198119 -0.643394397742079
Ni 4.290904277678958 4.228080114764058 6.600763205195245 0.0033984841585876953 -0.09403706968276708 0.2999456661265609
Ni 2.81493171593291 3.0431540895478206 8.554530499128546 1.0378903257423997 1.2411221466849784 -1.4448741017970859
Ni 6.201828375626501 7.539820288815118 13.530830118519182 0.09829533073848878 -0.19957288403375306 -0.6507510952174663
Ni 5.311687645414062 8.923477137593988 5.626371133838501 0.27385488257678 0.6097864798796465 -0.3842076587004351
Ni 4.135941109286944 8.575400583744537 0.6805368157743377 0.5986767431197303 0.5464267846760782 0.05688411478155365
Ni 1.2427000740729894 4.371073675802783 6.133869465066107 -1.2955891673846076 1.6565311706888826 1.3399772065816795
Ni 8.700183972912445 4.316843077141527 11.59234895251585 -1.5769439578828583 -0.39118588979048113 -0.8851506000121013
Ni 7.631494274581538 7.582443995497425 2.059056126789448 -0.5970183815807008 -0.9166335011117311 -0.17876083238440826
Ni 8.425627035323881 3.729234870313064 7.8086305128189135 -1.1193223050666465 0.4731719418459851 -0.6457207318824105
Ni 3.075472959441125 4.603592831544515 4.930276618623149 0.13704468359254462 0.8937560822929252 -2.385177435721931
Ni 2.038739415629182 7.275865800630402 5.365359290383062 0.125072598832333 -0.9030429069114899 0.4782254451094925
Ni 7.752687711582879 5.600306779054043 9.371718007087727 -0.4301123916523496 0.8943258387534663 -0.19866528461781915
P 6.584111779394678 2.072471945443 8.6394970405879 0.6970723468815091 2.522125702945927 -0.09141428734793934
Ni 7.642264131081236 7.197221667157657 11.306522727258304 -0.33179777764015117 -1.4787303882248986 -0.07087991484001341
P 1.135764141401559 1.4925458642352192 2.929112655696969 -0.2381196339586996 2.0613439072341793 -1.4048618230702061
Ni 8.899668128406402 8.372558985939364 13.376224085264981 -2.277372365720794 -0.9845471342345689 -0.050168907544907146
P 6.373113735863912 9.120357182708053 1.3600310573572971 -0.6400987577099427 1.4657481170326176 0.0676243840171932
P 9.156703123295976 3.0709901694300252 13.239069311713745 1.0165103174047267 -0.2714488442384486 0.7442875711147311
P 3.016508460124995 5.903071812293369 7.065356957835287 -1.0570753833112827 0.39764604359352806 -0.8995593192382636
Ni 2.568787482667813 0.548966928948548 8.446409696234264 0.19407303726144642 0.21420734611747624 -0.564207505698267
Ni 5.326930991530646 3.9968816150007003 8.49908898914064 0.040480733722865765 -1.098048997510167 0.26728134312432034
Ni 0.9559503196700018 2.371498220208337 7.413839938911883 0.016583101169661763 -0.6067430650676324 0.0606428104930375
Ni 2.119011118089359 8.151907133214568 13.335211206860524 0.03524133970079737 -0.07904033916361872 -0.9853683445842836
Ni 0.38856861017793026 8.394182402486683 2.0056560533314944 0.5159599835457889 0.42545843782010595 0.6922756968238142
Ni 3.6049537024327085 4.095605299581257 10.591943678542826 1.187129237408291 -1.4668228381540354 0.41591116045130305
Ni 7.810833776208186 7.9264097751043305 6.298561775845283 -1.1216622660537328 -0.48626682735673027 1.2600907173676814
Ni 3.9182002799510998 7.922829123331979 7.499350553432752 0.23127432890209204 0.16599324830609477 -0.5997622628744251
Ni 3.045916306629349 1.4925644650236467 1.2554323137518195 -0.2378021027182808 0.11001493316826215 0.11313008175847614
Ni 0.5907229088506982 0.04908841070038951 9.906345588237283 1.1403490438299586 1.1251743929720495 -1.1861861567687313
Ni 6.3378280402163725 3.0845594445881064 6.2691874107601 1.3206067724748676 -0.2808325994461938 0.5624473284740507
Ni 4.500553764048709 2.1127054508123346 5.107942049291295 0.32087341741816355 0.153025118181201 -2.1853703241901847
Ni 5.68782348860685 5.625985167478624 11.498358238550749 1.5696355971469031 -0.9347224974029579 -0.3845881819683054
Ni 6.6092693457432805 5.36132384933365 2.4155160559833075 3.132792528547998 0.6081602571301333 1.3147564843416777
Ni 2.2315830896544138 2.8377920849106784 12.738076606238762 -0.21935675152889964 -0.031597315190306875 -0.1980507909622718
Ni 5.852273059097042 0.18274158583009292 8.569558076099366 -1.0468336509786162 -1.5744368751902884 -0.2918783157373941
Ni 2.5568271757087366 5.974443037490843 10.865696132031887 -1.6261934389372898 0.9735659526327168 0.3297830612029675
Ni 6.274771367446125 5.532004683947156 7.038881525626576 0.9816662131423479 1.0925193259411894 -0.32302851608795335
Ni 2.947992455951188 0.2787290944329197 5.841237211322828 -0.12898016141685528 0.20513392306129832 0.07673174563510012
Ni 4.0518283440164256 5.934144429362011 8.94433978189461 0.5345482880709375 -0.40274865492741607 0.2247578679398129
Ni 8.364774555982327 0.9861673004709653 8.032984852480261 -0.15612021216675692 0.7822303689070915 -0.43135269181735386
Ni 1.1539092105128792 5.051481216097548 13.035949632121575 0.4042830892940714 0.6078725506863853 0.09447749965429535
Ni 0.4599454156119329 1.135764141401559 12.040132242614266 0.7402473396070864 1.4665577574181063 -0.12861969275364302
Ni 8.112324655440206 2.5423464619176936 2.524684083266074 2.8160624438742468 -1.5520574790538237 -2.0423501397404955
Ni 5.504977738361561 3.245205153844814 12.276314823636854 -1.2504709348897303 0.19137183628019944 -0.7303743034677487
P 0.6169407201396844 6.738470422162789 0.8012829038139897 0.14215912200097452 -2.0591841805786983 -0.12027851987779932
Ni 8.275741882172657 8.18138008247842 8.871610699141906 -1.8166805586196906 -1.9361468670088398 0.194588029224652
P 3.8691314000785595 5.078582564836854 12.680294187027219 -0.9006091006590167 -1.086140418998039 -0.03368710783980004
Ni 2.1086132773582182 6.402726191040973 2.9360953916727666 -0.1794509164728974 0.909095540863473 0.7029316338757635
P 0.6881808097787427 0.8568239280199835 5.885027187439558 -0.7311572043803601 0.01702481669277068 -0.4455672927548391
P 7.275196172247001 2.7090095262307945 4.2903602046174445 -3.0607286207022124 -1.841359292313293 2.4637038113636085
P 8.321323114214984 9.176252551933596 11.320652816187485 -2.311797894388515 -0.07556292213797955 -0.36448781167400446
Ni 4.669607029674782 6.664653193287059 5.381258314291726 -0.7587353711089448 -0.40273657074255803 0.07174251995062483
