# total energy = -340871.8214516205 ev
CRYSTAL
PRIMVEC
9.24008775663131 0.00000000000000 0.00000000000000

0.00000000000000 9.24008775663131 0.00000000000000

0.00000000000000 0.00000000000000 13.52380243421013

PRIMCOORD
 96 1
Ni 0.9367693201346596 6.615486911719259 10.94337946611482 -0.3748773824384447 -1.0705801026659367 0.06875978317321707
Ni 6.790937694910556 8.827480720385147 3.6055671870891923 -0.466925446715641 -0.639613076322776 -1.1165704533531222
Ni 8.716156145080282 3.168971200363606 1.0965831030945143 -0.06597733533207348 0.9192465132545459 0.479190123015607
Ni 5.842507384235165 7.071559155070642 8.950958782899379 -0.8334146050903904 -0.2970333775757723 0.3608093343811528
Ni 2.3025466670645973 3.6176144132912578 6.596599248673055 0.03997988282704727 -0.15300274958369778 1.5442703789092371
Ni 0.8119209526305763 1.842806108939308 10.460607065658445 1.4408639521964282 -0.2677544261059969 -0.053130561276392374
Ni 3.4675553908019663 6.132562973826381 0.8843068748152353 -0.19221721499963024 1.68049230949017 -0.16351599041019582
Ni 7.598576790951137 5.378026661175331 9.317223842920702 0.3332928741284389 -1.1767725767643151 0.6093360226057893
Ni 0.7220574047662072 6.122657599928073 8.5808794147202 -0.4005444481872456 0.6239964528314415 0.1341377943583948
Ni 1.2384951403541995 0.9073756774966865 1.3042864120246587 -0.8465645122087874 1.1707405116376224 -2.193010871454578
Ni 1.004914966123485 2.708177272252862 12.842527009144547 -0.8473839227862889 -0.6750894148525147 -0.4268967129285293
Ni 0.5126576157542259 3.3870834679658057 5.332718815678164 -0.5957256309112062 -0.470100502009513 -1.1952973750413802
Ni 3.074574465526746 0.9444847932737334 9.434353041250676 0.12839806366114015 -0.37560860417751435 -0.6466854097885251
Ni 6.075523913122786 0.8984904092685027 10.104538442294567 -1.823872705492756 0.46426409783339395 -2.5394765355195488
Ni 5.455246073179211 7.280366654467995 13.008152807199584 0.6552646668171037 -0.30325416167450353 -0.1112907145568922
Ni 0.520380480963373 8.708625473693042 11.688609162543502 0.3107854370545422 2.1631058563650294 1.0039980438703289
Ni 8.363517442230448 2.7900998888409196 9.298642026773784 -0.7970733474571949 0.9062914957557746 -1.6668562067639745
Ni 5.952501386926823 0.9735633489248294 5.263950387785657 0.6191879756992046 -0.7473613249440484 0.15046455654287633
Ni 0.7866151247431735 8.88553619072383 8.917135442269943 0.3341835042635083 0.4936708331302853 -0.3149637368019479
Ni 8.091831146771542 7.606310744265394 9.458709912142409 1.0567784208961544 0.0385763176113013 0.9714152248383012
Ni 4.681536578775371 2.5758130175016856 11.315189502699925 -0.5286452923229412 1.627855914241377 -0.29058273685442215
Ni 5.072724927057801 5.454987350726643 6.905185833929435 -0.00816788052277303 0.4159484414471417 1.8139544179377793
Ni 4.329905045473033 3.3970904828276227 8.650283560639016 -1.592817177469689 0.5060218984964705 0.9811427365387103
Ni 3.493926600788692 6.367787883648419 9.64915181344249 -0.328626321890705 -0.10724868327703466 -0.052424279237987134
P 4.778594458838643 8.926589899893775 8.599109183529876 -0.8208853622751282 0.5499756783696013 1.497270613120931
P 8.358731076857945 0.6865200278885091 9.872970759141328 -0.5731824555033677 -0.9779949349383479 -1.1028605599661974
P 8.51075823800427 1.1925257045854665 13.406604788337855 0.6860289445831539 0.3179369604976589 0.3104218830675363
P 7.052173451303244 7.571928378336659 1.2500323137212026 -0.2236296678726407 -0.2470938124328519 0.6366665920999423
P 0.8803530413347446 2.150020541188321 7.870650246080135 0.45952581181746016 0.772024117798051 0.2966664811546568
P 2.3206110383063807 8.31368564984838 10.552095020921437 0.8891314390367204 0.012177515902798381 -0.408992836064915
P 2.691498914149834 3.0556600062265256 10.385928677742283 -0.29743704077209415 -0.048654527782909754 0.046066198230443244
P 4.357763909562023 3.3340730854521934 6.378217170513176 2.040265232187009 -0.07386830804437601 -0.87929311279006
Ni 3.4265478820699786 8.56668848819686 -0.0008297598657351223 -0.6617916693023441 0.17995073892745136 0.6206028537688603
Ni 1.6383691709728314 4.593681825953439 0.6944092146743069 -0.09257514042525992 -0.45604762346087263 0.9314206867232346
Ni 9.696732720487217 1.091975071412531 6.063261392879833 -1.575911402853286 -0.48199571078520215 0.14236712424672254
Ni 7.753015614958897 2.5417448145510684 4.238981659561895 -0.6577339542932027 -1.1663994610601072 0.3893848320260004
Ni 4.174228049727984 4.131871488207608 1.7069472530609489 0.07622703808453968 -1.6445009789972258 1.1623990816514627
Ni 8.410604928597778 8.345194348536097 5.2176584729599735 0.5030641014197271 0.5651824680170267 0.04824623660089756
Ni 0.6942909415531331 2.4076526634202438 3.219179064310654 0.009501254622215894 0.6302529752641146 -0.914312309177722
Ni 2.776581640694255 0.8585723068635773 6.784039969523349 0.5071197595463395 0.6779569662082969 2.907398826796399
Ni 6.79778459981601 4.275508649820664 2.851074302849823 2.667056217044452 1.3356551821675575 -0.28680167254543504
Ni 4.795670140708114 7.617408089463032 4.212867324010217 -1.0331196438266337 -0.564489298604744 0.6711815951576763
Ni 2.8623019332825037 3.7949039739133044 4.205659131679928 -0.4860207727841952 0.80179826373669 -0.5197585313562726
Ni 6.620458078843597 3.8149457238997124 7.9340492590731015 0.4156540501351745 -0.6295212393044125 -1.5030324553053729
Ni 6.441255820090067 0.3562395649843228 0.21085233078139728 0.6433257492876727 -1.3001947844774189 0.5756298886025958
Ni 3.4729516019555216 2.728080420925395 13.413461857339659 0.44080175304539565 0.6704976817167744 0.5835013209308725
Ni 3.9099061040796665 1.0638297646081971 1.7711991261386297 1.26096746354568 1.044699635354749 -0.5336810549746357
Ni 0.5793424038948027 5.8047708665106414 5.5130049367062 0.4964537951920611 1.2449350926731655 -0.11047541774444844
Ni 6.503136686691716 2.6954444315514925 0.26275020674896843 -1.0068774223006531 0.7444372093187179 0.47764026202998383
Ni 5.256999993899177 5.331752302516071 11.150104249769 -2.034658684633509 0.3263940901260766 -0.7234271827259541
Ni 5.4853595186405775 4.862891777937769 4.767668055261451 -2.4696242906131016 -0.10111737356831617 -0.9743683939293541
Ni 3.134708955573563 6.610580425208063 12.008744009271998 0.0761398776873721 0.9197537919082676 0.5323057718936639
Ni 2.430743642311915 4.461807295844623 12.034939657594482 0.5232349199406472 -0.37571221963491425 -1.0208652519393129
Ni 6.758920791405298 5.493038031429284 0.42445358762132684 0.45960628734640846 -0.8265708426956797 0.8016218860598259
Ni 7.534247301137685 8.934545615310235 7.745040495358496 0.12821474400574046 2.059816157735743 -0.9928065460298837
Ni 5.507970012977481 5.973051341730775 2.4600199358374732 0.2907758267018347 1.355388398930427 -0.1399996524558105
P 4.999081428951911 4.509135024489337 13.134032368478902 -0.8578776232287613 -0.17666692596985703 0.3697819701934083
P 6.796814390618881 6.7734554491870504 10.971454548253455 -0.3905544268540693 0.1319364158317018 -0.05509025610592448
P 2.3708216742797066 2.630412695081071 1.836802824030977 0.4947692084007866 1.474490382001622 0.37084255024743873
P 6.237354807203909 2.409241958486017 2.553862265418831 -0.8574906722029877 -2.81321443290249 -0.6153076668081919
P 1.3094497729709034 7.343688974733951 0.2172473954036164 1.365447840048958 0.18479315462141724 -0.40560515053960466
P 4.736099296004391 0.9946492288091007 12.673006514169607 -0.37638173489811305 -1.6222082290372966 0.8423232204339299
P 6.1642657143535216 2.9881334461063447 9.917463628912905 1.5783503513120818 2.3161389449660303 -1.1180827762325904
P 6.654064277414629 6.919411872785625 5.207462036302527 -0.4471102117619268 -0.4821427778860278 -0.6957855097492855
Ni 4.980592013680909 8.140628049343336 1.897646028796078 -0.08454892768667374 0.7210504549636614 -0.7751408090501618
Ni 4.582011595325116 2.247253982915834 3.9310714487172262 0.030310220947767152 0.3923205176155566 -0.29555473614771677
Ni 8.121667389605156 7.207831966873109 12.589942746763974 0.4438389972098227 -1.3667128228043108 1.6427567426126095
Ni 5.44781704275548 1.475207704278502 7.532270846401819 0.04943022960666971 0.3524362798261092 0.11715257265430791
Ni 2.662993243929424 1.1159253784502308 11.937283943864028 -0.4536642108303606 -0.9642680722705587 -1.068294906176186
Ni 2.423434733026876 8.7681593580464 2.550818580566123 0.6232631742098427 -1.3720368061203854 1.2550176737201484
Ni 5.318067732792756 8.094815695063662 6.77789993131866 -0.16227620446582375 -0.11781308905644226 -1.875709230548073
Ni 2.5520659923910034 7.734674041089361 7.8562061411567825 0.9352565155295571 -0.3012106488819135 -0.32428270021002864
Ni 9.195310127235745 8.238877900705937 1.6572198736686692 -0.732390562566829 0.25681515348567385 0.9708958619997213
Ni 7.098494010400462 4.324102270465441 11.924436526076521 1.523197617399338 0.4939251152329364 -0.3286237507875437
Ni 7.662934001027363 4.769807135538931 5.164496553009857 0.48887829683764833 0.7147509951081948 0.8748471612035644
Ni 2.237653531908052 8.163469545870031 5.510502720986366 -1.3082703623967016 0.11932695459780739 -0.7033183277912209
Ni 9.021180676570062 5.998664864534982 1.2506550956248834 0.03670352606862066 -1.524065364716272 -0.3144878256067939
Ni 0.6098180607897646 4.328389671107993 10.418696800368748 -0.0869624222241728 -0.21851240125073335 0.25941531011268226
Ni 7.312642280425821 8.967458807311887 11.380063233672526 -0.043720323706085994 -1.4783678626791572 2.4494503867683877
Ni 9.133078137305612 4.454951150851578 7.232177749659734 -0.9105757249534253 -1.2446792679086176 2.161026862348814
Ni 8.25575030064839 6.7314038105572 3.4831230903764707 -0.5782724684317654 -0.629177997032381 -0.1683128975782069
Ni 1.6946228242311325 6.785282761304432 3.610855289217925 -0.2655342785262266 -1.0153520354305674 -0.8420581396980014
Ni 4.518652314708794 8.437318021825396 11.175042322170254 -0.16317583346195771 0.6033538368804254 -0.9770377132314013
Ni 7.673430740531541 6.599335238608959 7.069364634267612 -0.03917409909630028 -0.9485866569795599 0.44718811618771376
Ni 3.059753365029651 5.946458369641848 5.617463202921668 0.07226239700983685 -0.6189493773258372 0.19008114249323393
Ni 2.3269589784818825 1.4916088597537784 4.672527493373459 -0.7278425381848304 0.3737440401649499 -1.5279240763407298
Ni 7.72989691580445 2.1852807154382674 11.55638628113248 0.42505734572694537 -0.9412029629209792 0.5363100079570506
Ni 7.962377519611751 1.0407572658917092 2.2169437235887632 0.40828089759955494 0.49257065808757106 -0.6916408914532927
P -0.04270029277878783 5.122991003556677 12.52671929543525 0.4706476327622346 -0.9431228056515113 0.2475692094073736
P 0.583673232949035 9.40206632718774 3.6543345213806937 -0.5010601836158209 -0.05301074786907645 0.00779584189533496
P 3.8987533183564786 0.19196651575271112 5.054859217699239 1.770603304645654 -0.33924472083649965 -0.3456089724916306
P 0.33610911015703393 7.73428595741051 6.86143586720023 1.3196567498567724 0.17819878923335117 1.5740129002789924
P 9.14884172673706 4.694934705783345 3.5538929212413404 0.3094368934464477 -0.2525903167710489 -0.8345659450860143
P 2.606674910057981 5.339680297669754 7.939648752153675 0.9302253808635528 0.30140528139122286 -0.5931293309389398
P 3.600390890020319 5.712166708666572 3.3177264464937077 -0.6267400770148497 0.09888359914179098 0.09862160372965596
P 7.442114387760793 2.098765775317132 6.433043230238559 0.4824577380232853 0.17553332658604606 0.27357797476630946
