# total energy = -340896.2398858493 ev
CRYSTAL
PRIMVEC
9.02966637807066 0.00000000000000 0.00000000000000
0.00000000000000 9.02966637807066 0.00000000000000
0.00000000000000 0.00000000000000 13.21582947697776
PRIMCOORD
 96 1
Ni 6.426332093352302 2.100065562553578 11.426643332933551 0.5476621997450762 -0.6706918000054514 0.401176939564922
Ni 4.277822372195011 0.2559711685491771 6.017589810062305 1.1590674461750683 -0.0773287557891507 0.04530078081932843
Ni 2.5606056224352507 1.4712667046436503 4.826486555371572 -0.10514860621489634 0.6904137039144109 -0.5274949807685818
Ni 3.2894802696844048 4.079250985083315 4.6537824527243785 0.44892849591758816 0.3476008061106788 -0.3130989156790673
Ni 5.118764205358552 4.719887735244774 2.6581395607685225 0.3898039218412899 -0.04665703773690674 -0.12093440829424332
Ni 7.332648709049091 6.193773043056193 2.41893287029272 0.07030990126915633 -0.7953630496343076 0.8809573878663602
Ni 5.015491914221429 4.611333089441636 11.327446130105443 0.17357337464619785 0.6011712274068098 0.7791093067796065
Ni 5.53107681862281 7.833713910368503 12.338152909602009 -0.9318809141891049 0.33235210748172445 0.7856296243966276
Ni 1.8351261296380992 6.646078047458539 0.47866169676923864 0.36988275743733073 -0.6495668451013781 -0.2818091044268502
Ni 2.6521935256444693 1.5582043298135568 0.38418791227581695 0.8036687412865257 0.3306073568764758 0.45416094796112105
Ni 0.4607883756993058 -0.02618422574446355 4.722187591199363 0.4334658815056148 0.8056279218954253 -0.18803814392127613
Ni 8.514334022001956 2.1808359257800856 1.3067895307762967 0.23850761342573765 0.8283045375573348 0.37667818309260936
Ni 6.8791246997238185 0.5963796477263469 4.806055129896713 -0.6170619304951372 0.2711135723862169 0.45295998567448437
Ni 0.8788583040662155 7.475127810373974 2.572818245829756 0.035575583111764536 -0.7479891883360344 0.6799804243962289
Ni 7.51754918169182 4.013713668560342 3.847881141812016 1.4471587840662046 0.08668371464148943 -1.6066558831249944
Ni 7.644858443975836 3.9496752766092644 12.599575287573193 0.48483138046178437 -0.2352644238980916 0.08027344023977143
Ni 8.075501279414471 8.814985784326135 6.895953288426473 -0.5656267546432968 0.6576442227928738 0.6377261437127081
Ni 6.974884308669276 0.583916902580989 0.27013419982036513 -0.7800904397459533 -0.4186586412894531 0.20353855354972045
Ni 1.7675842272418694 6.259635427558613 9.305212677430815 0.9751798340870559 0.34988034617347485 -0.6138058854516848
Ni 0.07313036274289117 4.714822092565057 1.4503314238006477 0.06308664404783974 0.26102327802975045 0.009824185179273403
Ni 6.353552984620536 2.1467308769364277 6.937120439123619 -0.7812392086384158 -0.576798197879084 0.03814334383894076
Ni 3.675272753625437 4.1620801121796545 0.5602320884118298 -1.1694248781499925 -0.14690717820892119 0.05611201250221949
Ni 6.04857601223649 5.9045708973414275 4.7539982018880895 -0.36224812371020837 -0.6266513739557852 -0.2016140828334979
Ni 5.348334436176968 2.963130077651712 9.522229866442913 -0.4752722760184395 -0.6230202049611012 -1.5478141303964374
P 0.27137397297531196 5.579457769563852 12.44238595721172 0.6204673566322604 -0.7059079428952681 0.16393996532149185
P 3.9406817291778946 5.992465667117482 12.763715654895174 -0.34749899042549187 1.1541273285609734 -1.062610454196899
P 2.4891629042856556 8.609172605005645 1.5161594955719038 0.06764186751868996 -0.20170767098856876 -0.6826661987585082
P 6.255897145794971 7.917716894057289 5.948260033779116 -0.7132569270611716 -0.8497992170960009 0.5993886815850903
P 4.728366591708686 0.9471758547800705 12.568571026066815 -0.3418934713132563 -0.09127750465975892 -0.1742601163005773
P 3.95844308238824 6.186377746523771 8.264717029484359 -0.5188218784746161 -1.0282692577128678 -0.5435075541467543
P 4.654810931692685 1.1270377737413675 3.9554181442461633 0.36137394863537114 -0.3781228859589359 0.3066585593703622
P 0.030868816514940025 5.610176693621603 3.750123267759569 0.9329435511256643 0.7703662704796539 -0.6865472789804692
Ni 1.4303713468959864 1.160104410984014 2.684069149929086 0.20675011850848263 0.5955109437972389 -0.6935296238355734
Ni 1.9432744404669289 6.206649346908736 4.873336977909386 -0.43230065755292 1.5428225907191169 -0.9451164390427723
Ni 6.049542186508735 5.594167095633833 9.116979355032145 -0.7284207792858036 0.5999846632978764 0.340339239452259
Ni 8.661960033001414 2.3770866887051736 10.136052120166426 0.27427088706827607 -0.23118614006365992 0.7176820527120608
Ni 2.3521557806148006 5.07686655467426 6.83656156264827 0.8960852446467342 0.05414640413541642 1.354052196617507
Ni 0.6363404350331002 9.08131578582036 9.165811789277974 -0.9532809771314358 -0.4082379601767614 -0.15140429474832634
Ni 1.6239944769872108 1.0288582142822489 11.317956854005415 -0.7329922007065699 0.6444827457102513 0.16077725132279408
Ni 4.113536627248888 6.921789872026251 1.5803748689784582 0.15443048316915986 0.43065206620590346 -0.0012791238227397327
Ni 5.399875770251524 7.985520656770296 8.250945885721727 0.22611309641612673 0.0047588548412240625 -0.721957540158963
Ni 5.601354709846053 3.1951563776481726 4.622064847596438 -2.5262332973563977 -1.4336741193162081 0.5325675101954828
Ni 0.7663883950439587 7.207172468982513 7.128776907939188 0.23263804201883803 0.13098562188265828 -0.5723365625633047
Ni 5.057037407927987 4.614041989270361 6.895953288426473 -0.33803013170310814 0.014106614604711187 0.5723463327553175
Ni 8.001873382069704 7.23585971816872 9.115591495353227 0.34942011870760464 0.26760324524011336 0.22288147685270648
Ni 4.568938807122077 0.4494218320179724 10.382355225226881 0.10476576895418087 -0.7304509223419549 0.20390107909546173
Ni 8.068972830827242 7.305026960462185 4.878253631098523 0.04101423762883259 -1.1954328721779799 -0.576096286716053
Ni 7.232049199076312 6.100911956927472 6.983706292444827 -0.03472660484790793 0.23041300934306125 0.20423892205085473
Ni 2.427228424534888 5.292187972393577 2.5351130691137214 -0.6867591378809592 -0.23608897668191597 0.011033889216658417
Ni 2.344074229459102 5.18346176293462 11.455850690886875 0.0751695433543028 -0.2643191751722028 0.020002411263855872
Ni 0.8773629913607588 3.4631478377040152 3.7463569940310304 0.2850273542538317 -0.16512730076137366 0.10549261981787637
Ni 3.9012130586733598 2.6580086306101345 2.622099454480545 -0.9885261734869749 0.09968963998285413 -0.25521027089239917
Ni 1.1301259195461149 3.3082529454974745 8.156875727302785 -1.067647245289858 0.4724024106698122 0.06551813630746782
Ni 3.669538915654634 2.670325095164741 6.6843286160067565 0.24610650881891807 -0.13593319569592074 0.6189442351195147
Ni 4.22350893062906 6.763183787054355 6.057752861889603 -0.5805820904015485 0.8300873404893705 0.17743337182223637
Ni 0.8997692048107594 7.549026597701613 11.49227365501731 -1.8751998950118223 -1.399368404055803 0.4458493427716322
P 0.012138580132520295 5.477503809676709 8.208193125658166 0.2642888361548997 -0.27189904440198975 -0.7213795561683061
P 8.419052985359572 1.7288289003588988 7.991809819205987 0.25161046935628284 -0.838266276755737 -0.04329994833921575
P 1.8958054858015572 2.9441406898523446 10.268659087548821 -0.22363326741706643 1.0781021220745948 0.30419467121090193
P 3.9282659382962346 6.170611949520587 3.837995463370386 0.7447334004028981 0.4215950982099578 0.2767833690774846
P 6.90499469308815 4.108561281230128 10.477046624673209 1.0744966641115237 -0.06136657603293947 0.1402559914409907
P 6.254217627901161 7.805983805788446 10.311175270360671 -0.09873936025444285 0.09005880176130941 -0.9856552796970831
P 2.1912742197867754 8.363339945548779 5.740017874278869 0.6784562744422187 -0.3912015735197649 1.1369153355580615
P 6.933609704945591 3.922929405633645 1.5818954647489831 -0.20872961083235664 -0.17482421633416345 -0.013023408842861444
Ni 5.4221880751741285 2.681973364428262 0.3831874252724075 0.5744574655610494 0.2829470746860353 0.7866007300606453
Ni 1.4126732013483114 1.0685977747696564 7.085441734412452 -0.5818925816828558 0.012638257589300815 -1.3665189616259497
Ni 6.844143773268874 0.7994270403217081 9.243917498039625 -0.40807058136096175 -0.03338963120403927 -0.7325538276175706
Ni 2.759402751199341 1.2904747300744905 8.981001613296206 -0.4590031065447708 1.7312875377651669 1.3675468886698319
Ni 6.3813192078649745 1.7645051111032177 2.7881170893838347 0.8575986585357618 0.9504645907285629 -1.4744453876962995
Ni 4.160220000963929 6.746831061754947 10.425796045846937 -0.24279672771939476 0.677393380395343 0.021391578301898643
Ni 8.346102312971986 7.186097228315027 0.29428584772667477 -0.5313354375605945 0.1835284289763807 1.1189839478906214
Ni 7.489286326812113 3.7583276223741695 8.290382049428317 0.846980259589967 0.6861168763112699 -0.11508823392611148
Ni 2.976837110785065 8.324241491354169 12.317919233814646 1.7986658672098248 0.12009751421524478 0.9123582707751448
Ni 9.079600149262166 4.84167084187819 10.310051076931751 -0.3459380736962752 -0.5699670338898636 0.4413020897205819
Ni 8.478314683945998 2.26571478708016 5.789286441397124 0.8465822528206001 0.7571240607577671 -0.41423300141793173
Ni 3.745171398872658 2.705161546962155 11.419467457287258 -0.7991785667256559 -0.7965161894021444 0.45946616222411835
Ni 1.1251776625256424 3.3168401579545352 12.522499863713067 -0.28816821387565855 -0.08462631789182845 0.1344758944241039
Ni 2.9565655104001003 8.2905879258153 7.914458087563332 -0.13214158986397243 -1.3359560012374283 -0.0020861931050673746
Ni 5.651297793021661 7.898664298595252 3.4247898161292585 -0.6302169798198566 0.1602630306905369 0.29474226754875044
Ni 3.068722992975444 8.469619115495787 3.6747011757615757 0.6422790531907132 -1.1135764037218048 -0.019586149662043684
Ni 3.34083198077095 4.066564304218782 8.929354632128328 0.07203048350468885 0.6342474411354884 0.5726942030130395
Ni 7.304999871463898 6.298318517112817 11.588934424639124 -0.0812319474982988 -1.00422841471358 -1.456972941943149
Ni 0.6427000288643389 0.06744979980205318 0.34433277206238383 0.09287698793639489 0.2502614115275561 0.08688220380554068
Ni 4.66039126533986 0.41668026275477327 1.7273353935866615 -0.4793011946721746 -0.435008029181754 -1.0201263168907593
Ni 5.974604987580085 5.591385958476342 0.3683489749772572 -0.0848669731477248 0.011252432985367718 -0.024111034115590735
Ni 7.960454303688486 8.86206646334939 11.194481587945655 0.3037498703639994 0.2317155302045687 0.24149240708567438
Ni 0.11997627044765595 4.859278690764908 5.901277778116306 -0.659540154264006 -0.5422687966436468 0.10141202199059955
Ni 7.888117648595412 8.631647443917974 2.5425137834458003 -0.08794458363178402 1.0772179196974287 -0.22236777044108155
P 8.509169052995183 1.5565067525875553 3.554212020279681 -0.6477858419415553 0.5378390430070673 0.09897024531832632
P 1.8250129036108562 3.3523628643752263 1.6950489194946883 0.6639105154175599 -1.3442853470387301 -0.891817984729948
P 4.654838020690972 1.305355619800291 8.12248804991033 1.3920001366161896 -0.8909785195477881 -0.10771868093491771
P 8.568051505605586 1.6083009173127925 12.342500693827114 0.21205867520558963 0.4012317040622574 -0.1314792736896252
P 6.3140662547838105 7.691559877023068 1.2133279718522088 -0.06907422908984233 0.28096783947247744 0.7084096262711993
P 1.7028234620031313 3.16099715080794 5.884625267902519 -0.6762410119584548 0.020861159719725363 0.4545437852218365
P 6.926313734740223 4.1518133818287835 5.9360618578503646 0.6608858696586232 -0.07907402061503156 1.2124479186787376
P 2.3368504965824997 8.209727265927835 10.212994807934944 1.6974106825120638 1.0354580621518232 -1.366237940050421
