# total energy = -340860.85257394135 ev
CRYSTAL
PRIMVEC
9.37691376584818 0.00000000000000 0.00000000000000
0.00000000000000 9.37691376584818 0.00000000000000
0.00000000000000 0.00000000000000 13.72406112929138
PRIMCOORD
 96 1
Ni 1.0704684756870544 8.457160426702332 0.6381055457116068 -1.5878526343755621 1.0205538913464813 0.38574312150835505
Ni 2.6847041807459755 0.35860037551552604 1.85595941430337 -0.4406549430548863 0.5647176125654662 0.8406144652729394
Ni 4.565131713834014 3.96008635299215 2.153772070938934 -0.6448265022029153 -0.6340432955444822 0.7467270337941592
Ni 2.38738099900907 6.706434364845052 13.580356350329376 -0.2739487278421669 -1.3788088347368965 -1.3963026206462856
Ni 2.4757677881806375 4.928083915028993 1.4132621876648643 0.6366845898220712 -1.725943499844434 -0.19370279840622123
Ni 1.4264723837803859 8.63797545487922 11.745188366922475 0.6365313520736585 -0.7715767458479874 0.9414608445680559
Ni 4.26537991143135 5.0628301658666155 4.659551609323531 -0.8222135941682485 -0.8887933389710112 0.8218137876266686
Ni 4.215335322654705 1.7529390135063885 3.5858912321900513 1.2436477413203098 0.7654274384171399 -1.225838995273663
Ni 2.1065143009339615 4.755623717018865 6.428899284231503 1.3365782082024593 0.3544306845483186 -1.024480994315029
Ni 0.8575140755723833 6.447012668556001 2.0779878538707597 -0.3497448490368751 -0.5458220612125438 -2.0483305256936464
Ni 8.364938479799896 3.9993568678500457 10.626952017121502 1.4726157906867283 0.8654721477465676 -0.029248098231839954
Ni 5.861883872556107 -0.07648654790935296 8.078874158423515 -0.5818660993202946 0.7069798358032082 1.3956696150479768
Ni 8.617308736935858 2.751927275544508 4.488042230369417 2.7906743428184457 1.39311650960882 0.06478460057555295
Ni 6.933524462464087 2.4047845509613754 10.77832822452562 -0.8966660568508685 -0.2257508279807015 0.9071289040554055
Ni 2.591525788639263 1.792359558984563 9.899563249282163 -1.7628514286143768 -2.76159593739525 -0.3440331433640785
Ni 7.720275658290742 1.8713600574749574 1.1394694333358872 -0.8119029562708598 -1.482984535515562 0.24160502140413873
Ni 6.93521230694222 5.191940891530027 4.601403491669093 -1.2810624345233421 -0.856423664391054 -0.7497696772752249
Ni 7.23186972780164 7.533515666785319 8.154864667594572 0.9917161411791825 -0.4598569699046338 0.4007136267752583
Ni 4.3482624522214515 6.6695455860840775 3.1075804870629384 -1.0663184991761057 -0.3218692056725296 -0.9445073447038638
Ni 9.370481204561433 2.439047793867476 8.906545268239752 0.4242975847427854 -0.5220550406999331 0.646859473472544
Ni 5.995673678189454 4.857316346826381 10.24479214576537 0.4430144444259983 -1.2623777136296452 -0.5304887732895831
Ni 8.885422832287293 2.4527474648816563 12.68638483402932 0.7076035854301362 1.8220047990460815 0.4850121290140228
Ni 8.231814435044035 2.538846287093977 6.862455895329542 -1.6144746078384649 -1.7037168272357495 0.14803486405546118
Ni 2.0333368658931263 5.4164710916905605 3.6637477472008224 0.23693435540134675 -0.02508342533118906 1.434106835978253
P 4.288644034488285 4.413253841543341 9.091984990286724 1.4594491713977833 0.5290134742956373 1.319098049139825
P 3.089102340792888 7.684765285853576 1.6205369911106178 -0.009678146519712364 -0.7824460844623234 0.6516075296804907
P 7.572758050901912 5.4426608118429245 7.7099713677517405 -1.7470705116310363 -0.27386182455531544 0.6127280790064739
P 0.7373658040878585 2.0248976435024613 11.043957437728691 -0.09554553590749351 0.7844176063663975 0.15602868089421515
P 1.6673840522925774 6.1897851700885225 11.564442727907467 2.3174635773147245 0.8055484748077417 -0.7622050748251002
P 5.670125986012656 7.589627118769476 12.609571031829484 -1.0687877866522044 0.30758698472190255 0.889410917950352
P 7.255593319633177 1.5081265488669562 8.88864849062328 0.3130310385556093 0.007483709971554854 -1.9250744112447622
P 3.1877568505397655 6.892106634353455 5.758067371780273 -0.585765434374701 -0.7614836232780434 -1.1793128266876656
Ni 4.291569631583715 8.913337904572861 3.878776320640844 0.5183788773999266 -0.6957420581058599 0.6497367950203391
Ni 1.6350430767087945 7.001694625553128 7.4528376384219355 -0.44071793508233775 0.05419525509548086 0.20182079952766532
Ni 5.416302307242748 6.687483622121125 6.150040183393996 0.5414671266779578 0.7118793299873546 -0.19820942802732316
Ni 3.6979922362793887 2.497672258741298 5.594407407340855 0.25784385186050435 0.6213379321626719 3.0426565936918504
Ni 7.929268312338684 0.48748417986576625 12.577937075543764 0.360475862301134 -2.2758245616177 0.404648185942974
Ni 3.9764115598612038 8.613595479083964 6.816617790068955 -0.725868445177595 0.7355913288923138 -0.045403882056095995
Ni 7.872631753183552 6.818450976710483 5.916044926476643 0.1914613106702122 0.30509944241335846 -0.12904546743715195
Ni 2.1894999877755037 3.096791410082161 4.072162039414315 -1.6384023222986557 0.044455659210213765 -0.5783812260954878
Ni 2.626089092785921 3.8254057405508997 12.721971159468001 -3.4342716005999496 2.1209145677089607 0.3694970919631378
Ni 6.9116950072135666 1.4895227519524228 4.47713219120104 -0.9000228891382436 -2.254721203980181 -0.5159198743364728
Ni 2.2514813877780564 0.7488047011927168 5.310388190857145 -0.4673797606442402 -1.147703684422817 -0.7168379595442106
Ni 8.833399714705726 6.136111715683891 9.551287793515927 0.3485343736685417 0.1232147196879878 -0.5184274712496749
Ni 1.7935129193779538 4.171170058810223 10.44665928304146 -1.4879058840765793 -1.8369367377655654 0.574428669205643
Ni 4.805415129123789 0.9079318655169712 1.1508501935753876 0.3961828287844403 2.256031695261489 0.5895812085763653
Ni 7.754923354661306 6.59677135833524 1.5343228328589578 0.3763010022588487 -3.0192775526462774 -0.8012074242302266
Ni 2.2751112104719193 8.324598996772515 9.254422205170872 0.5789134444498739 1.6654428713562157 0.877191750176341
Ni 4.111467248853151 8.367423361948259 11.120400851834717 0.274528768715353 -0.3576052256215583 -0.8598416889336676
Ni 6.172184702947103 3.4921689790848296 7.514321124303439 -0.10610325681868178 2.0228238967821097 0.8269091998717049
Ni 5.35079518766365 8.042485169166342 1.2170305755629849 0.4839818879772956 -1.0003761308470256 -0.9198769477496932
Ni 4.44973003609855 3.027411625117125 -0.2091342454458299 2.0331556177254213 -0.43588348980817193 0.7209149578270616
Ni 5.929810235887195 1.4543593253246507 6.433126396957849 -1.297975665338913 0.38888500957144634 0.34963249182872685
Ni 9.409357889041097 0.18021490569577345 10.123540211530422 -0.8651312194673809 0.07573467182915344 -0.41503724248678203
Ni 1.138957453844187 2.4378100412501786 6.562516554651529 0.4324317838141456 1.4491742718343366 -0.9950552328547444
Ni 0.8715044309133528 6.828624928148118 5.387640832621294 -0.23864542455518253 -0.8703492733332108 -1.8172544288452899
P 6.1414659334450805 5.511093528517453 2.476493561306235 -0.14163307429417546 -0.8096185311120573 0.00950768238011911
P 6.53571827279566 8.723371008558985 6.027072273939612 0.5098356158156058 -0.809690007779941 -0.27884153715809396
P 1.0251592283629491 4.303853388619017 8.3614390155819 0.9100815589258261 0.6555521161505355 1.244406216752889
P 6.5103912287098975 3.1105473425789456 12.689829912147465 0.06577987460928672 0.4714215348137816 1.3119172151206695
P 0.12689121017466648 8.27275404055253 8.353822148528636 -0.9363376644088777 -1.395375737956642 -0.040186599521214665
P 3.367071572513868 1.0037986188007988 11.839953332838634 0.7030941275955568 -0.11970747786567772 -0.14692131927630828
P 0.3958773585064713 0.8031532933886012 4.071805716691154 0.1277869124397025 -0.22024326789891102 0.1034010273961703
P 5.5412871908485 3.5074439716119343 5.376428856829607 1.6504638814488803 -0.703038334656957 -0.1984284860166647
Ni 9.209854671725768 4.5720800069356615 6.73646955733343 -1.0139520697592472 0.8954026167574128 -1.5754174939360028
Ni 6.739047270928089 5.630227217932346 12.38622607356915 -0.17727319209528825 -1.3316614876271324 1.4138640265688167
Ni 3.7600955361609176 6.015412081669844 7.822439946860759 1.9264970026239014 0.8158454858583755 -0.8895055345466873
Ni 6.543004134792935 7.631785723067733 3.2349396052345987 0.19552493921662456 0.8377019196118347 1.8092109897155226
Ni 9.193201272874855 5.581101566704905 12.137120857807 -1.3449201524092516 0.35349557432855894 0.48509491853581616
Ni 6.494909944079909 9.572609957731633 10.489574604280746 0.08874136850146654 -1.931833841455783 -0.2395363118005681
Ni 2.2014367990014114 1.7721616867295706 13.461602425922067 -0.7491708673489613 -1.4701107648766873 1.0095133172616033
Ni 7.782003881621574 4.114224061500768 0.43061976170608685 -0.1763781910848446 1.1097652575058305 0.13102650242292274
Ni 4.187926603712578 5.2544473987035545 11.87610227310336 0.2745953602872303 1.9168610221960338 -0.10886025073852865
Ni 3.582393643354809 8.742134213007564 13.401943687459697 -0.3795619323983076 0.24191432511444144 -0.28901873480141194
Ni 0.6059230399704931 1.6042774226379357 2.055260090281321 0.015636420985676296 0.22115729507274814 0.06257782273222126
Ni 9.106633604974165 8.905902011955307 5.7334464093011945 -0.3644361325004627 0.9773051079601749 0.09281810967400145
Ni 9.098138121100895 7.958983752067593 3.156231666453747 -1.4102894218436808 1.8870205417958341 0.7584211823026357
Ni 3.9318430887247238 3.1610420232164262 10.92819568650456 1.6367583589373296 0.5640928344972737 1.2316129216429628
Ni 5.014210867982616 5.4612177241886215 0.45989448648792797 0.12616300368303435 0.8378829252743892 -0.2108967936870045
Ni 2.348757491201125 6.087436156317288 9.50920983067607 -0.4612733906361863 0.18176773753153214 1.0615745567332169
Ni 5.582461219201179 0.54254354212522 12.739881064763747 -0.2923452280714836 0.20868307386513738 -0.7995475200293004
Ni 9.166252022707331 4.1135301698819795 2.434908824130543 0.3251699879109884 0.3365034106459366 0.2794123220598994
Ni 6.699964294345541 7.035798460925183 10.668096977041502 -0.48415055234467586 0.9762776951369251 -1.3622013080872022
Ni 6.700142455707121 3.203566327151612 3.017495538808093 -0.014959963743941975 0.9604857224099911 -0.44495305620960784
Ni 2.0065845309147172 8.070156441693957 3.6118568441033747 0.9308450167254226 0.0793846098769149 0.24231747409013107
Ni 1.2373400330918092 0.46162734015214457 7.567721710517439 0.9872519347602418 -0.0771480072369123 0.3300905651410573
Ni 5.05688520253808 2.0555882822631806 9.246654369805954 -0.12798540160375377 -0.24715140514366468 -1.477389557926288
Ni 2.996889770804219 3.205160402492071 8.086738576000238 -0.7245939493405457 1.3549875639475826 -0.9672883471541212
P 8.096393046415159 8.469491068306471 1.0001256816781057 1.3660795600956859 3.3448486326504265 -0.7438437987090931
P 3.3754264026806267 1.2374056714881811 7.820985587535435 0.8832032464777435 -2.886367460047397 -1.0862602324053552
P 5.1440623698336525 7.580334597225977 9.252542133960507 -1.2123730995767443 0.059945013095064496 -0.6634302333470316
P -0.29594946386998044 5.035984061750533 4.602899109414995 1.5630607721428629 0.281764881452476 -1.2930502030128377
P 0.5618590467946994 4.800651656929947 0.2713163114030052 0.0757927787605985 -0.4012903252143347 1.3145086299969297
P 6.119177009419957 0.4823203134540558 2.738965567643823 0.16904514775854113 -0.09234296980979581 -0.04180510896124413
P 8.436737508516922 7.942602283715935 11.398381335852218 1.4456549458271681 0.8847801040465602 0.35972587150898694
P 2.853948097333884 2.51389431955891 2.074350549020383 -0.5256705259653334 0.8181119132950491 -1.225990690360179
