# total energy = -340858.883429495 ev
CRYSTAL
PRIMVEC
9.40834835566562 0.00000000000000 0.00000000000000
0.00000000000000 9.40834835566562 0.00000000000000
0.00000000000000 0.00000000000000 13.77006882894406
PRIMCOORD
 96 1
Ni 6.747573447169935 1.1120103403767525 0.6751543770228964 -1.1944111157816848 0.6602631484729596 0.5698827017061733
Ni 6.936925868700829 6.662935944233836 6.061198673748462 -0.15143231977278435 -0.08579848382305869 0.5387247880461302
Ni 8.090850401560942 8.400178082923 8.68911975479618 -0.4979517198938263 -0.17098504509373133 -0.726999987678877
Ni -0.12365204241758114 0.5681344130502282 4.223129146056899 2.7219418133387383 0.19296951978462248 -0.3929301261750975
Ni 6.874125142589395 7.555882298576337 2.914352605546134 0.4760155819423672 -0.6954942037611118 -1.0850153042546604
Ni 7.019775785425516 0.6048495521629262 12.185368364715865 -0.9664347409045744 -0.8592994432769524 -0.7574927569510954
Ni 6.764395574254166 2.6552899667792764 3.1285872863050304 0.1593726576657836 3.07433207041826 -0.8400814755876047
Ni 7.215930442908255 0.5619230213829969 3.28737010195109 -1.1120108590068976 -2.341345526138645 -1.4873199296661224
Ni 7.337928497662857 7.07235904508646 13.413093864731533 1.904127633789766 0.46998274548472607 -0.7052422842868112
Ni 3.3375269485387546 1.826969558153545 5.25968453161512 -1.290133543586675 0.38197954070086476 -0.058695971179311815
Ni 5.000970001742062 7.535494407417763 11.68627241282005 -0.2381954815019575 -0.11011160664712649 0.7849107439527322
Ni 3.3972041029544595 7.0046471610678855 13.496251434451551 1.1683771536117684 -0.9400727059712778 -0.3361408851001953
Ni 7.878344034418028 3.1447781132061787 9.019216365430292 1.375676973976134 1.5124828020849952 0.48340647508979967
Ni 9.632925759357885 8.554032805634652 6.216263310074786 -0.6164826609528996 -1.9352575224253508 0.3594415074993487
Ni 8.545273633198734 1.1943427979349788 10.464247431149092 2.10072318036275 1.8494433548730083 -0.30144487637990663
Ni 9.303991079761188 3.2902029556787533 7.074014914419136 0.5417759161676282 1.295032780660505 -0.6439764954977942
Ni 7.106511350072903 3.232445104353196 12.451406353046622 0.30858662963101047 -0.6392338386064862 -0.3798192998247523
Ni 3.1742356523005455 8.940998178662857 12.260304919533088 -1.531535704951388 0.4662662158650874 -0.10381266101229218
Ni 6.690944597662111 3.999451305927509 6.394049107982998 -0.16637711400807476 0.1585193085265528 0.32800642891851894
Ni 1.3467486349805395 5.4292003912084335 9.518752628035026 -0.5237560825514399 0.9154415376861589 -0.19756228136162748
Ni 7.940552034575152 1.5294493541352865 7.4971826715678205 0.20537612097909144 -2.703381276727731 -0.03670249762735615
Ni 9.092199747102836 10.05705410888649 13.673664661759913 -0.9288007326018843 -2.56322427275845 -0.07730150209564106
Ni 8.66417634130305 6.270937104768234 3.956044008540195 1.6076195325898441 2.756973608131891 -1.8958574233611736
Ni 4.908382444339423 1.9348456818379947 12.984390235336562 1.1195521616892654 0.7186179342627688 -0.8244476257050898
P 7.717809384284785 8.688779172581162 4.976929789703121 -0.1033586041940091 -0.7935067131518593 0.3541956857193771
P 6.1886516889524135 9.405460118129998 7.876314653650652 0.08151374040477574 0.2827838096352936 -0.6331899464052515
P 8.207118772090546 8.599014119722856 10.84224947057934 -0.21168509391625479 -1.6134425670295245 1.347734224819279
P 5.597035919763021 5.647841001561035 7.86747362858295 -0.9742118137468317 1.3099456932165956 -1.6478770945583106
P 6.934300939474599 3.2248525671289374 0.8776935397849198 0.31251758925430045 1.5382982204862024 0.8467673722482126
P 2.1490549600559916 3.4827636240417075 0.3910824663235419 -1.033194720038943 -1.2794500957308996 0.1511258442759591
P 7.4178712347068805 8.605741088886852 1.114385948368234 0.9851569999044258 0.1560875591566086 0.6074380342521281
P 7.016821564002447 5.025713958247391 4.455539815246459 -1.0754813966222962 -0.12250303833294385 -0.16129738549232223
Ni 5.635196181202418 7.986380100026657 4.714912929513193 -1.0626251094849184 -0.07531146824880579 -0.9829605064737393
Ni 4.29935182211149 2.427203374551637 10.525000900631035 0.6518628402244064 0.10281018788970682 2.1699164515289597
Ni 7.7710606366878885 4.832127779899996 2.391572077183963 -1.2237828840755827 -0.6407955266666513 -1.4178682626322034
Ni 1.2463803733840186 3.0514849296674553 9.56672767860992 -0.560312541519235 -1.5310667357347696 -1.7103204485951966
Ni 5.338080536168848 8.49320783270425 -0.09412958571869447 0.5855337779798689 1.167244582669222 1.928333284501692
Ni 2.418764085964078 2.1834895154968677 12.344784362214705 0.1870277003788908 0.1557628288273382 -0.29895502007851743
Ni 3.5620760017374957 0.863242316517929 0.6267296073906042 -0.5251485920235923 -2.320354782819591 1.0285867889532865
Ni 1.5820514304931932 6.2380267017812985 5.308127177109526 0.42040724854944367 -2.9943851602799723 2.2502657393119887
Ni 3.5540318637861437 6.021907528821634 10.558861546814562 -1.322265391124213 1.4461372847802254 -1.2572992706654733
Ni 7.650248033841907 1.9006557434576274 5.232791708316704 -1.596829641063192 -0.9630177448032252 1.3441706758377368
Ni 1.3211579271119103 1.6291684396866106 1.2288413301455263 4.546202755408848 -0.15598728613331847 -0.886567534964286
Ni 0.7532032135176714 7.989296688055802 11.994363837191688 -0.2500536663921242 -0.6466242175332864 0.875378608227002
Ni 8.816666853484941 2.0197842519254894 1.7235859208688271 -4.4019630967297605 0.9202898669173957 3.344435713482724
Ni 5.063817769595902 4.63439251987243 11.283828424870714 2.3272859627217857 -0.7504849581746946 0.4770717911210236
Ni 3.3505386944881352 5.21999635438239 8.01014558828995 0.20823004548811877 0.7679491763977291 -0.007529218497509613
Ni 9.467150659120662 6.361642992474651 1.4871258984929965 -2.657703057964326 -0.08782914109984229 -3.065592633662733
Ni 3.5878548765757476 3.060639252739579 8.691061637922681 -2.361481891877204 -0.684619465830137 -3.0319363790608684
Ni 2.3660679261213597 0.5594326315400461 3.2569378579540795 0.8492328030695697 -0.12725829362974211 -0.45469496608772014
Ni 6.062203485366245 6.594527842427658 10.009077176641899 0.7407888139328532 -3.450045832715071 -0.8691267137800193
Ni 5.022562161506219 0.2907744181573 5.964794149367034 -0.37766214427243344 -0.21438655200781787 1.1664125736862299
Ni 5.619785306390355 3.913007400083037 9.006341040533888 0.7062586413664675 0.4008707211784128 0.06643550591541461
Ni 9.186236190171568 3.7519835158287758 0.21203406804916322 0.35132762014296265 0.8776288377137594 -0.8289779094752755
Ni 4.735391140817185 1.7327543564636725 3.038104376457615 -1.509067091535227 -2.4951334906277998 -0.09071263329522442
Ni 1.8231779937156563 3.879965280217365 4.579621819189627 -3.4334033390623837 0.05010000198018469 -0.7826301754486714
P 1.6591810713413633 8.985414991842196 0.1326097310064495 -0.022510522397690264 -0.2743086822847469 0.6780130162572129
P 4.66725588111696 0.5767628094422574 11.287298223790549 2.3008362531706887 -0.9612976767883252 -0.2464831754320465
P 5.403045182430938 2.1847314174963746 4.952529237917353 1.3399777208023116 1.49546492737076 1.7134654219820813
P 1.324940083201318 6.049078839235091 2.8902136058481407 3.3955844684423973 -0.22993401282411366 3.2980144459057072
P 1.2146648306541843 2.332978764513283 3.3241501586683078 -1.286006665902495 -0.37759349581802715 0.08264991089174797
P 0.4981617028916412 1.1697681917023097 8.481205602546895 -0.3497911288937782 0.18119900951225568 0.15280451752996263
P 2.9672613940645256 8.095338183786435 5.890119146637586 1.4162911479530707 0.6549651332988139 1.6554947590045683
P 5.570937161076412 6.060858091533445 13.36425136442668 -2.5223439896043205 -1.0277102998856043 -0.07069685229492985
Ni 4.165715640285751 2.955736167175161 1.3329080135299731 -1.3344750458165275 -0.5098222460791672 -1.5562722884661195
Ni 8.340500928507295 6.347577511495386 10.886988049276733 0.6085446370527455 0.15843009124685617 0.7379755128537743
Ni 5.099447185293879 4.825165602023972 1.6174597500018646 2.9234255412419587 1.9069944138145998 -0.6964629954322844
Ni 0.2023651083151227 4.00630058362176 11.340450688534602 -1.315044962116374 1.0540293973961075 1.2111515684648173
Ni 1.042275661434738 1.2664483806942342 6.3942137540814175 0.5468173352462777 0.8618245236916513 -0.18464660174122394
Ni 1.8165262913395088 7.962887453869316 4.228361128647246 -0.9285073697311816 2.8154073267887516 -3.552182134466205
Ni 3.5057858527749923 4.2250540941561345 5.745630434838883 3.3243443420494874 0.8546670867112636 2.081638395817157
Ni 3.803955232838448 3.961601519987989 3.4545385785983664 0.4329614310653705 -0.024388199036377352 -0.3131914753928735
Ni 1.9106662262415326 5.767016551771302 12.334098360009856 -1.5634927174739588 -0.9147128870502503 -0.4774242893644359
Ni 0.3214249358390722 8.620070003623589 2.083632127222871 -0.08100620464073792 0.8664334832185723 -0.25590524007689475
Ni 2.8653313466201396 7.864786604256744 1.6987855142726116 -0.6274000791963518 0.6475043061453946 1.2901381715723652
Ni 8.886250998851258 5.424326866695217 5.856231216243463 1.0514109859366538 -1.6539724088227707 3.953337219654256
Ni 5.40103179585598 8.532346562385685 9.644239298406424 -0.6910050576415068 2.4997938722179467 0.0340876857123284
Ni 4.307170159699296 6.460863435556476 3.055771373235451 -0.05522858145600166 0.6108573443463221 1.0223616339791812
Ni 0.8229679991748257 8.919264893671485 9.865042888074832 -0.012772726284636068 0.35821560551204756 -1.3580173519128418
Ni 2.8305016405430568 5.207153958705669 1.311355368829438 -1.0552110764090343 1.5878737174214848 1.680657374313125
Ni 4.434211089239773 6.459649758602412 6.083561377253222 -0.22703895066450577 0.10934618923601168 0.03870101611462367
Ni 5.604242714699554 2.103584411846769 7.55511363650543 -0.9599874426173338 0.36240933187842106 -1.6681289028288109
Ni 2.3445039914026475 7.505086625126804 7.967540823028075 -0.6336635436075603 0.044347158656807495 0.09964181746405419
Ni 3.946971538099857 0.4119972249970576 8.310222981425374 -0.7611516938599213 0.04219823063460475 -0.09433120388441818
Ni 7.613847133568479 5.745781909249429 8.535294197964816 2.1029633825471783 -0.47662621894317264 -0.8509924660731537
Ni 6.491713410226048 1.4468158294256648 9.58768571568645 -2.034574609560135 -1.0720816269121278 1.0690289561287332
Ni 8.655134918412699 3.5803564228362994 4.3078419157808465 2.2609874966048675 0.31530055131607637 -0.5792908823939508
Ni 3.7834356248011387 4.318055618891943 13.088202893312017 0.3267820695931146 0.20313591879466306 -0.3471791451922279
P 4.606656708550107 8.983655630676228 2.678705464479072 -0.6670511179290706 -0.915351549075514 -0.19781913456743994
P 9.589929606799195 2.085463932672144 12.299370264096368 -0.5066837004501854 0.9917282253640404 -0.7070160883577824
P 0.3031256980433061 6.372556676712742 7.718302381745195 -0.1715828265787303 0.5407652155149267 -0.27254053464073064
P 2.0487901902927628 3.4674091993205294 7.062888601505372 0.1939030873424854 -0.576348254825859 0.09666525133423352
P 7.155632337492798 4.400745593692452 10.546069015384793 0.6241396632775251 1.278920448479675 1.0560615973347878
P -0.24334693346400585 5.850732036556253 13.083658660995638 0.48129045718806146 -0.49965353307628146 -1.1866705526043175
P 2.688849545811409 8.050855512167729 10.243939661445637 1.0740189531441569 -0.9803261541746858 -0.12126093839572663
P 2.699518612988992 3.9989526634580104 10.827322184879204 0.6575118109800676 0.41450888078713777 0.7403630392493443
