# total energy = -381167.3259063754 ev
CRYSTAL
PRIMVEC
9.27192346010487 0.00000000000000 0.00000000000000

0.00000000000000 9.27192346010487 0.00000000000000

0.00000000000000 0.00000000000000 13.57039720424982

PRIMCOORD
 96 1
Ni 8.623825246480916 3.3117826954696743 6.202702587710947 0.12454500846363711 -1.361402209224675 -1.0455331869996383
Ni 6.291120576652973 3.46149644296046 4.724181280649252 0.48216566070416317 -0.9298854810256306 0.40647649740096453
Ni 7.081496416815513 1.5829027665589244 9.104134986727784 0.07523047849922529 0.5523117827019455 -1.00972671882399
Ni 4.043865953079755 2.6610142062682263 10.81260741218729 -0.09936388121231919 0.5747924803029649 -0.6990598096251832
Ni 7.360006452557646 8.416134161834009 6.466063227774304 0.1839611456384251 -0.9990648682347697 0.017501242108556955
Ni 4.379639387874535 8.689850613167104 3.545605769088404 0.2329226631387924 -0.6087248713843516 -0.28986976994779756
Ni 0.29460794918695277 7.135653721521878 4.922675544454139 -0.2579083865498526 -0.5750092242994613 0.09449883981053403
Ni 1.7968060398983945 5.262307953777045 3.591758622304784 0.2551902162877412 0.2892298223709535 -0.36486216429428775
Ni 1.268593834485465 0.541901273152782 8.691445383995642 1.0215465942770534 0.3119645449643079 0.2046788378017507
Ni 3.87109293203911 4.080740392528003 2.526061360864846 0.14305052346699235 -0.0837328595432816 0.1031490592863643
Ni 8.46092682388442 5.742639946640125 9.04507654330069 0.8465349445224324 -0.49476946551110274 2.181672563623623
Ni 4.180608279703531 4.734754054927058 12.901118362049294 0.4414748678530203 -0.7749348636869429 0.50160217216222
Ni 5.104611080220144 8.840102132216352 10.664852822115519 -0.34708067194115066 1.6410269044056962 -0.9258357364362894
Ni 6.6107979523876175 7.599945286865354 1.8552089583395732 -0.37088317367738705 0.03439570387105044 0.3016873314080159
Ni 6.675330539402906 0.22015254972572107 3.9675227900098577 -2.6905658701306177 -1.9881430575704728 -1.2067585816034443
Ni 6.778944283640817 2.24636451892473 0.6138717971369884 -1.4171200716122692 -1.296367954532161 2.3261837307965423
Ni 1.5645350862604634 4.533052632810594 10.607246361896268 0.12981062773795063 -0.4841184135551598 -0.644983853716386
Ni 8.46482103172155 8.275516171219948 3.0425510734956736 1.8349497892425235 -0.23589331573134215 -1.3516345883149496
Ni 7.08917356940871 3.985295212824643 7.725003135593057 0.07126969407926435 -0.029193333734504556 0.9286251262559685
Ni 8.823236503512213 5.522543028454935 6.802229792122166 0.5181011982585078 1.096567270758318 -1.442839330755244
Ni 5.279368292873041 1.2393594599367286 12.509233101090846 -0.6896462296207672 -1.2376365021292235 0.12570020511400287
Ni 0.1219498999967368 2.2129392349893684 0.8266485317807176 0.02820808700309981 -1.0155183858051027 0.8431719415874704
Ni 4.773538510600185 6.989491120701618 0.619555486194513 -0.1816687500598226 -0.7914336326729144 -0.7855661181485438
Ni 1.7208597151509475 3.8562949422580175 13.395868195833174 0.5022259217891479 0.4917463624140628 0.02526983031038229
P 9.157470799018984 1.8193275418897936 7.735085425121853 -0.8702405156694883 0.3349944302005779 0.09190973892711912
Ni 6.30536225102876 1.273739751984529 6.666796661085539 0.2396124164541422 1.018480296646904 0.0743007675961043
P 0.580496581588104 4.505524292171457 1.6423441404233374 1.1365515244607394 0.2713747964674036 0.8376813507865444
Ni 0.40102366868291156 0.20297260281758475 11.057458511523835 -1.6444076479524714 0.3592198784068458 -1.0018378029942165
P 8.005768103111356 4.975786976198531 11.6030286847746 1.741973556724103 -1.5568109345784091 -2.431541367698451
P 1.4270046461458399 2.3663061203083187 11.966782930071497 -1.3799236650676299 -0.8583733319182572 -0.7733153258056488
P 3.667138432531163 1.0399482029054328 9.111164959066146 -0.06816225879853423 -0.8728710113137998 1.2541563541611176
Ni 0.4387112558152455 6.008465991141323 12.893437500686726 -1.9220927029086188 -2.145469631340505 -1.1005396251425044
Ni 3.6123506370321192 1.2929882650080546 6.941122277787443 1.7980608866359742 0.6103546936782908 1.483596200957632
Ni 2.678389790760561 5.612656852190796 1.1957842014315916 0.26680671748074697 -0.9524613094436177 -0.75763391051465
Ni 3.2748804402511618 8.402615697485118 7.8180682125540555 0.3381987960704885 -0.13772216927554345 0.12505640088241687
Ni 5.107114499544013 8.346196043463848 5.685371911625768 0.17073153432202856 0.9923967121859747 0.5236036161339757
Ni 8.765620771369539 3.1698666355765694 9.741604756165435 0.09354316076548407 0.3764665813024355 -0.08703569866426945
Ni 5.051779660563087 6.830171660545911 11.727442134824491 -2.719864361984419 -1.4099142978924493 0.691661460278583
Ni 5.227324986706831 9.419254284908304 1.5137638879877164 0.7922093344966743 0.6318110637798539 -1.5621272045849999
Ni 3.0127353493483944 7.235456705233454 9.991666676464996 -0.045226475937967275 3.0675579849192203 3.325871320216975
Ni 8.110856083173323 3.4895440113112146 2.865918150734559 -0.521382954333573 0.9818245930970833 0.11992884984786444
Ni 4.531142616585717 6.459137100978266 6.679281305972908 -0.9265813563530623 -0.4336175765921307 0.8438340006515017
Ni 3.9281894364701655 6.62431641673651 2.8157755888698057 1.0674803806946906 -1.5088909709686786 -0.09297031898114956
Ni 8.30237693337272 1.2250806978672537 2.86434470532989 -0.3992542686209124 1.6618518115708478 -3.0367062896456862
Ni 5.812531705393178 8.881399279136767 8.35591765517154 -0.7710854080338656 -0.7540989007781981 -0.46057019392157456
Ni 5.527095542855007 2.2389006205702318 2.7554960331280673 1.5165613430297429 1.0397392060256803 -0.7831204848215287
Ni 7.160725002454255 7.143330874115077 4.390511645278864 -0.9519668863057025 0.13765146393860808 0.2678099619342807
Ni 0.8163149731271918 3.154503058466751 4.303457556272177 -1.108325953956143 0.05972261267161327 -0.2624001037726191
Ni 3.49272428104487 1.260740515347254 2.6089495746781473 -1.0181553092073177 -0.46213599574679765 0.7722953691815666
Ni 6.351712596214023 8.377498056935632 12.726236905622546 0.18600003044532484 1.1358681252404697 1.1342228763275628
Ni 6.130150714128197 6.249211482786721 9.954008759487612 -0.04869283722001291 -0.8077190000964993 -1.7757611946975094
Ni 8.179097439557307 1.9364133908594874 12.55564371377835 0.5374772887922743 -1.0323753094614414 -3.243600904151833
Ni 3.125658104701728 2.810412708362673 4.466777851384361 -0.21854016916487523 -0.46432683275052933 -0.7069608096398147
Ni 1.1392783185225004 0.6241849575589863 3.4614556464974044 1.1266926293887887 0.23618025084414163 0.2283368435403229
Ni 2.5726435041356517 2.8673701339424027 8.535549117967243 -0.9238526445679897 0.6416321636353337 0.3518814357639036
Ni 1.4493685254390696 8.372778647913968 12.739929682131764 0.8189837743770411 -0.8363289505237079 0.8102962739053722
P 0.8627886348939636 7.056165522027327 10.934021395010252 -0.14544936271647207 0.7685215039614313 -0.5405361302232562
Ni 8.308505674754487 7.571804999280381 0.10831090064336182 -0.2428224387510076 0.18819883786885652 0.4464208990043861
P 6.855437651870146 6.624566758668896 7.961399167961319 -0.6055166488596991 0.6589359450211039 -1.535252491681343
Ni 1.1940753859449655 7.418577192812759 8.574401258681348 -1.4147412869674474 0.005257648854513525 1.296105959120026
P 7.920392232244003 5.078427168477159 4.5131615754939425 1.4955544017607727 -0.5413905078037515 -0.613814112981801
P 1.3320416064604106 5.209838139133436 8.127012409735698 -0.007917197964547654 -1.306387800662008 0.4007642775075356
P 8.089484299686218 0.2666345562235725 0.7175281922226382 -0.5654454918704261 1.4580486915058308 0.6223555747939088
Ni 4.182490480158144 2.3428017944342154 0.7394006595745155 0.06483447997688188 1.2724582377940987 -0.9540597642789891
Ni 6.434853933536738 5.5619487029973165 5.941269580526969 -0.0476836792292082 -0.227145394335383 1.2992303636816203
Ni 4.848446379924396 3.570302464314543 8.112478669772127 -1.084304651340881 -0.3848764026326855 -1.0222683029344266
Ni 3.483081480686264 5.7337389001552586 8.698352966944837 0.29686188499491456 -2.9295499089721417 -2.5210980330123616
Ni 7.805819074521599 7.386079101219569 11.162017991950762 1.537607365066765 -0.09079439437575332 -0.33950054560104753
Ni 0.4560052473814692 -0.2661412898975361 6.445029869492094 0.8521638606734355 -0.2929152416423407 1.5361593197663286
Ni 2.0903365915837417 1.008405119424684 0.5444779406716828 0.3131498235216607 0.7696250214382552 -0.9667977806709479
Ni 2.702867668593947 0.7305756428617063 11.444934045702905 1.3499209480579526 -0.26094254539048606 -0.4948453130543607
Ni 1.9879374693140792 6.698046751786161 6.635150659254809 -0.20125515683218245 -0.7714903567817681 -0.1521684266078605
Ni 5.929756633214198 3.3194227603691857 12.246238702002648 0.9799299471775317 1.2276277117429697 0.11664580822121846
Ni 6.661747171590061 5.629541024741779 12.860774368856632 -1.5394367049660198 1.4667338779846546 2.1734668878843797
Ni 6.069855396116643 5.363622261006364 3.215587417161496 -0.2859254405880689 0.44784169061131257 0.29940033514605213
Ni 2.6286088339092557 0.2764553775118762 5.334482460076529 0.010624826703697831 -1.78463587147932 -1.8686124716022916
Ni 8.121648602036224 4.1034658768346794 0.48464251006184583 -0.3553138584842203 1.3096672427442284 -1.8524548880058225
Ni 8.186728232533396 8.330294694795569 8.736431829245568 0.22450358583716173 0.5705272772687078 0.5179320196704951
Ni 3.030518898471285 7.255929112148649 4.795941331971785 -0.5676712958771514 -0.050196932569365166 -0.47593793462689643
Ni 8.238660275618544 5.938722583163018 2.1296838530085664 0.4619596180699334 -0.3719298697743465 0.5654920288376454
Ni 1.0824506998706749 7.11361435954841 1.1615476241968279 -0.9422409172671902 0.7179605031844281 1.505752425339697
Ni 1.5771912617311343 2.088389487665177 6.165561116868154 -2.0813427189536093 -0.6403646097768197 1.3210723992573765
Ni 1.8663361936379996 2.7233029878154547 2.221840281474236 -0.4025761339052938 1.3847624812171702 0.009889491199570066
Ni 4.946506242032687 1.3023992672811178 4.693443927313852 -1.3455007075030698 0.5200698919491042 1.4219110652430091
Ni 2.4639023862455214 4.169648866219038 6.305878697163351 -0.05827148204738351 1.4533991085489615 0.8296919048231646
Ni 3.047709044495186 8.38436855219114 1.4242406857738201 -0.3073157333383869 -0.18373540278086423 0.17773161978894553
Ni 2.5093069952417673 6.11067967494255 12.190803726248767 1.4363318686540296 1.0356624648531454 -0.1945975423063487
Ni 5.761350688105191 4.413472636440453 1.2369877019254483 0.36145519549526783 -0.4614901346326827 -1.3702095231036595
P 1.3429083007106861 7.74624696653694 3.164589056764917 1.4211289356613461 -0.13827521356553604 0.36825499202592066
Ni 6.095918772855145 3.7964354046472844 9.909375574520054 0.9324974647271812 0.30433402500224366 1.3930257496672267
P 3.877675997668543 4.989425975551907 10.681124120528326 0.7565669027027164 -0.26007017008786176 0.6515121417532069
Ni 8.349524663972252 0.7636142875903815 5.0083314274088275 2.561658213822911 1.7043539465991162 2.3993244166462744
P 4.60989833412995 2.96557834682544 6.065967678625909 0.6062902938009301 1.628715691138511 -0.0210035988348606
P 7.353423386928213 0.3199406983598223 10.742217751146493 0.043790771932705225 -0.7049185823988052 0.9886174476492006
P 3.87050880086354 8.451144944674487 12.628937341234838 -0.3748928090574124 0.4217701903352413 0.7512778863896351
Ni 4.239308826886547 4.925264265473486 4.733354921682719 -0.2612845021109371 0.6764202178487965 0.6772517126111562
