# total energy = -381166.9728396222 ev
CRYSTAL
PRIMVEC
9.25578557321876 0.00000000000000 0.00000000000000

0.00000000000000 9.25578557321876 0.00000000000000

0.00000000000000 0.00000000000000 13.54677777554773

PRIMCOORD
 96 1
Ni 5.584691145096675 0.1028521411175894 11.311586329510714 0.5732048241008709 0.6503410042632413 0.9581581027180789
Ni 5.427426091396331 8.79014556993626 2.1500634679693773 -1.2548783199288067 -1.9464698462014025 -0.1011626249839548
Ni 8.775558451777721 8.237149401471736 4.401822103852145 -0.4333337268031247 0.43338643441793107 0.3645703440854818
Ni 5.358951789279026 0.9583440445020074 9.188752457296799 0.041684267112663695 -1.3979972347398892 -0.920470615469634
Ni 8.746661889029651 1.493004501626389 5.789716978244912 1.1054743434399605 -2.10191925755338 -1.244313914149399
Ni 8.464739914416104 1.9521192364094013 0.2057792540988109 -0.6863757863996115 -4.374567221215312 0.8104705946997075
Ni 7.991861826395943 8.07805170221594 1.8050540584772745 0.3090046910050356 0.03234164955549914 0.6998905330565947
Ni 1.5827023202015191 3.5977053642055368 8.42556757845762 1.197974150542595 1.1800576752734901 -1.0375429697053098
Ni 5.26449649688823 4.906954753648245 4.528295009906659 -0.4548569455868812 -1.3944545116939533 -1.2191001338879326
Ni 1.3099528291508606 7.255425242459278 2.980846126026361 -0.559778523392636 -0.9762890079908347 0.7024336111934225
Ni 8.559158183664366 0.8772827995015812 3.2870987843349284 -0.6383334382794038 0.8981580680153628 -1.1635529927502477
Ni 3.7778229526352174 2.4557080211618176 8.846492941716436 -1.3703717597131368 -0.05414331881162288 -1.1238420473138708
Ni 7.021457493213366 6.228551361126163 8.44827202061682 1.3867268040323923 0.9269526236495521 1.1810678617055594
Ni 3.239034415118254 3.4278987209716774 4.128827334482197 0.9150535582191208 -0.4380738125912713 -0.34616998720142317
Ni 5.767678027072769 8.074321620605604 7.5799099473088924 -0.4646405073362062 0.31184293178477906 1.690834829066759
Ni 7.587532086778155 1.5752884359090127 9.778755107881548 0.17440872606329963 -0.5308600405860728 1.0517496002229951
Ni 4.808760123861479 0.8155559651111632 0.24048382233196022 -0.9199368544533512 1.1895296193196676 -1.076212875471682
Ni 8.539165686695808 8.251958658485481 12.593165547801803 0.20659739498070226 -0.6634096645217413 0.70147278994205
Ni 6.412380519594913 4.8536414283987614 2.3962895797084176 0.10780224178765949 -0.7892818764372341 0.5579553541409681
Ni 2.659150189388147 6.064585118627099 9.823839114124207 -0.29496261108967264 0.847279793108257 0.6615345589862155
Ni 2.560974071172648 0.3068385495391738 13.591482553719601 -0.7977009537388648 1.1851407462233525 0.49661140381584795
Ni 4.838026918034894 2.8439141822058893 12.230261002365715 1.0326748429797312 0.384187346985461 1.432705584755352
Ni 1.7316834457597992 0.21005727821865666 2.740838051075967 -1.7601170604023495 1.5590470229977795 -1.8043989130388602
Ni 1.1876746451454905 3.216700204384399 5.977448375936784 -1.4697209856374367 0.3606429840066176 0.6824908495229084
P 7.595353225638539 3.12594722624704 6.71733274002196 -0.3054689099376352 0.5882403782777545 -0.33342245772776774
Ni 3.0896367792064625 -0.09144253416706184 8.919279514360433 0.322100090736413 1.762977155558964 -1.0543453859746295
P 0.4711953861919751 5.954394990659199 9.117793902315437 -1.347620324949234 -2.2553683506458775 1.8558299751256426
Ni 6.56929385344118 6.902705763534394 11.861897394562936 -0.9839539807352602 0.9745195747952377 -1.0474517441785895
P 4.846542240817796 5.104547265354145 10.965114505888506 0.13465535742476162 -0.02608075624745186 0.11008666694646202
P 2.711806353857646 8.42472715312209 10.741565068951763 -0.05316758516191489 -0.8061012619874183 2.292470140594181
P 1.1359903381675187 3.017006629339674 11.679842570200144 0.9632817970978893 -0.2876002571873305 0.16520006298083809
Ni 3.0560938120703285 2.3378633584749378 6.5834357683107445 1.004006528510761 -0.8376823792278089 0.993875096503714
Ni 4.544535211379357 6.626985165295353 2.9241396297636024 0.7247361313453649 -0.8264667130176477 0.485694242682712
Ni 0.2708437247887019 3.667790173023088 0.26669713282485313 2.344717013714039 3.723156123816343 0.5402283691748502
Ni 1.387673661116124 5.719149942995851 7.1823665497176545 3.3892886081313565 -0.816234236656362 -1.78082909613872
Ni 6.715609312736986 1.2470227426280758 1.5497109978891475 0.3990521799124353 1.9854747667096904 1.537145852049314
Ni 0.19810528223000065 6.4943775245228945 0.5806681907732721 1.565156735439943 0.6770743064930275 -0.5840345677265232
Ni 5.883625253704762 6.325357623067891 0.7143198841651988 -1.0900317836326454 0.7930734822691825 0.2080276996693256
Ni 3.155510205560729 7.741400267150971 1.4983959967579557 -0.01924342161064428 0.5256666693105915 -0.8198083271608655
Ni 1.6024634225292358 5.208526761161905 12.095566181932883 0.9913129922034927 -0.4019600975878497 1.2196038129972286
Ni 6.492674459966314 5.430693383724989 6.367554749771432 0.9749612903183468 -0.4600014659022981 0.7210671671342097
Ni 2.878012496480039 5.694140810213889 4.567431248301172 0.23393079268833258 0.5323204271816833 0.38606913738920606
Ni 4.774245299233818 7.76699251442785 9.881832164590035 -0.3637493908460832 -1.630841479232262 -0.11345146965363688
Ni 5.032574276267342 3.5462431960827714 6.533868259507174 0.8553792822869397 -0.7846942570665518 0.4463147124438249
Ni 1.0407945829260359 4.2147978481826796 4.033946275952256 -0.1156343362375686 1.8686505239290785 -1.1158307469736202
Ni 3.6723347637691806 1.4619883639682258 2.1756122130537783 1.0617787023242231 0.3749804836752123 0.10426003296235592
Ni 4.3912131223589235 7.66865904785658 12.7257343142746 -0.5118996974334862 0.5783141203029782 -0.43675046579415755
Ni 8.944245144949917 5.500241356975792 2.5082938416605014 -0.7238426729968179 1.274547773333276 0.32960539797452265
Ni 1.713199641849518 7.751183632565676 12.597297330508638 -0.04348532487714446 -0.9535339736825063 -1.0107813853407497
Ni 7.88119965336073 4.539222390425676 4.570357927718513 0.03951554159611904 1.156343362375686 0.9990412140856859
Ni 9.013321073133406 8.361102882676786 10.29484660786782 0.16765263828638868 0.27101638468672035 -0.15617034867840202
Ni 3.6191232521616667 -0.339145869293223 6.6598265438804605 0.7485612587894204 1.2784481368289466 -0.8776365510232433
Ni 8.99930781368415 2.0146698357212087 7.940646787749594 0.5267545030581315 0.43816045876780674 1.0679418937121414
Ni 0.31518449144498273 0.9151334092715881 11.789070096462153 0.7353661002553851 0.8637140274048801 0.2904935195747255
Ni 7.699082815234194 5.490059992778842 13.187260181215164 0.6233739887560941 -0.6367666080129163 0.0952161775925328
Ni 4.93132523722149 5.271762288610598 8.778406457017178 -0.2630436508938889 -1.2292685897805025 0.11975684304637439
P 0.39016283412701297 9.135497443496806 0.7214949691883584 0.29744963917758455 0.22735468213271168 -0.0432248721269062
Ni 6.958814336045222 2.460733912760858 4.889546472028587 -1.0274112805879467 -0.40006802277145936 -1.2650071808326924
P 1.0099450494092772 2.077683224314696 3.677435627231853 -0.09240467628566668 0.4610713019277091 0.5719966627253827
Ni 7.111368194858068 4.937387776811492 10.623816666435472 -0.8726763788044907 0.6898637449482119 0.23211713651836155
P 3.4543980352406485 4.860324105626214 6.922390042841352 -0.6737334150452526 0.0883832138310994 -0.2765092894804915
P 5.528878757726122 2.6795962198527494 3.4217260375326357 -1.9701723320246651 0.35438749001520903 -1.531790758384988
P 6.921698635654523 8.411259985025216 5.895530970765251 0.9054540874561439 0.19455511910418752 -1.0164213572353462
Ni 6.874040595427163 6.698680480813148 4.100500928129155 -0.08401619511165531 0.754434686851062 -0.3227320678934571
Ni 6.760629454058773 3.626074347172493 0.33066294176003685 -0.7055449031288946 -1.0758842884876696 0.38335122423741075
Ni 4.413112311168 3.9024798735484203 1.049002613625904 1.353924927011023 1.9835474677799905 1.3749205554260837
Ni 1.863874576178745 0.7487004999011724 5.253697771789519 -2.426728776801156 -0.10887413469559959 0.7863279360152328
Ni 6.605150766985712 8.765580714864711 0.012953471994210541 -0.21334525522749706 -1.2569501148561708 -0.44484866942125967
Ni 2.2822823657452243 5.411644976891059 1.81243739867719 -0.02986284899770341 -0.1513029932837717 0.1124821637618321
Ni 3.5795270012211646 6.866598943777755 7.830525152595381 -0.02854490151722826 0.36253248771984664 -1.3715009882215734
Ni 1.3279183090656608 7.640160483890754 8.40015396784347 0.28747658712527263 2.522264799626953 -0.2768435328914587
Ni 6.639397173829998 1.1337041591160217 7.20702118590985 -0.07564134078439876 0.2864689717963647 -0.49738710563960786
Ni 1.9441407491932459 3.1098884381727596 1.9568730079108134 -0.9157094466355647 -0.10616856283897844 1.2149655428942687
Ni 8.246201559821388 3.3211424894738397 11.826038629861278 -1.8257295561958364 -0.9803829755545502 1.5487453839614553
Ni 9.053685554281497 3.714652215685959 9.875411426096012 1.1259904611154414 0.8673711645414933 -1.6979120476285143
Ni 3.135397383378936 1.4363128146206445 11.22780018121976 -0.004924948105443131 -0.689136122753568 0.4608702416604966
Ni 2.9124995537507985 3.8827372827919704 10.526523550169417 0.44097761650162765 -0.9752533676374687 0.7234235831815283
Ni 5.000280840191742 6.892478120409275 5.715480023992132 -1.8261954400886613 1.5457107109001895 -0.8360520427132375
Ni 1.311322685424632 1.6494180230484425 9.671220464811926 0.11827768739768663 -0.5427675906569362 0.1120623026155941
Ni 3.008324702415366 2.702078523156742 13.624129560806402 -2.3266136192451095 -1.658009555006622 -2.647530231196382
Ni 6.188131345264271 0.3163544227490686 4.137985008788072 0.492100660429688 -0.23800239165454498 0.5249102507605412
Ni 8.883203238696385 7.16820797443395 6.538948760241452 -1.0193529290598444 -0.12024535264701873 -0.041834162426966665
Ni 2.0002770890609747 7.690521213523121 5.600956337190585 -1.3186373074533224 -1.196756218975094 0.45897045353462246
Ni 8.47112640650328 3.384211412781128 2.7305696824940617 -0.45627953696602064 -2.9771220023241503 -1.5309525787544085
Ni 9.017652780809927 6.290185637660245 11.458148918282939 -0.09656189298714983 -0.4763873634594892 -1.6194507208968174
Ni 8.421172931438791 8.794903043751928 7.96725254355335 -0.805405264361658 1.2718686838392161 0.6175165015340526
Ni 3.84007736680675 1.2273912212992295 4.565724481430337 3.060676684418355 0.8642277338165052 0.19305359485799656
Ni 8.659638992502629 4.922078707373533 7.179873966646529 -0.7889797718157832 -1.5356119319032908 0.6612591938376419
P 0.08259215194422218 6.218268183287243 4.7235717240470345 1.2348293716977314 -1.0521828311056716 -1.1168941552411282
Ni 5.45062109019411 3.040358976493224 10.153960592424678 0.944192384566606 0.7099980538042419 -0.13863671067001285
P 1.3553061787554563 0.4820829668327681 7.52566826676036 -0.08742676345510103 0.338983496755313 -0.4748647561673757
Ni 3.286081573493797 8.482362930262461 3.83948221979051 2.0604275660674967 -1.9903657762534046 0.5918203823195292
P 6.7109443967776565 1.448021383447137 12.533384279551566 -0.10862628035085165 1.454962082160707 0.09690744925202666
P 6.960480377459268 8.030273336775345 9.763583024070964 -0.1329190914599453 0.7068073147810859 0.0197211325780112
P 3.4507975346291815 6.017852656963099 13.673440684347922 -0.011599531912141312 -0.8805308418519028 0.24626925964902743
Ni 6.938164678296681 3.763818948971594 8.57248188708392 -0.32677384206299853 -0.2783100901346562 -0.37389264992767224
