# total energy = -340869.4417370524 ev
CRYSTAL
PRIMVEC
9.24505066460265 0.00000000000000 0.00000000000000

0.00000000000000 9.24505066460265 0.00000000000000

0.00000000000000 0.00000000000000 13.53106615168841

PRIMCOORD
 96 1
Ni -0.14940002003503552 5.779349327010008 6.149423161291595 1.4319303971522241 0.7235120291302766 -1.1292002263019907
Ni 8.20403029573208 4.09673160136542 7.388151793993349 0.3142291726287685 -1.9976044600936886 0.5884113566379802
Ni 5.329485157770847 8.134544494334598 13.362347036984323 -2.5823041722080364 -0.167487316353118 -1.1186031675124348
Ni 3.491051346874373 7.361011098522009 4.196173216186017 -2.8599496321755002 -1.9696933355057176 0.3685226438650105
Ni 7.5536779560424385 2.2878727078013763 1.7575904646590752 0.2978147358264871 -0.5042426951088607 -1.0946021766121472
Ni 1.5385890800922473 1.3825233784702526 4.155904548657143 0.39993278274517574 -0.2643132616349319 0.10721731581846697
Ni 9.281753596198925 5.357322005563266 11.18468457911102 0.01178979354607647 0.014600009301361952 -0.9787845207191788
Ni 8.77961791004899 0.4836215475285122 2.8976106150642904 -0.1090620823366896 1.0633085087051881 -0.5593944005803397
Ni 3.056469246516272 3.0335877459230347 5.767495322945099 0.8333097040814101 -1.4929570733472417 1.1433379512549535
Ni 4.822024322391942 1.8684894708676316 7.098816836875745 -0.942278712483661 -1.1063469758529012 -0.4094078121151465
Ni 1.57526419639664 3.838646764775194 4.379708737085864 -1.5076748391733905 0.446272803462296 -2.0388657807363204
Ni 4.978136249267661 4.3724005244721456 7.042663323157255 -0.8464722096052969 -0.5300848529829452 1.1813059458582944
Ni 6.961569436044674 5.056303153314457 1.6470011676504677 0.09114432151600431 -0.703850289035291 0.17623986573476744
Ni 2.2655459102528237 4.171108034606872 1.4292996372183508 1.1272384745899298 -1.2443113430462376 0.7852200476630348
Ni 3.5942076230842073 2.2905260373651175 3.339507399571632 0.9314978198180731 0.9640389869788881 -0.08104631385005397
Ni 4.640858307997972 5.03755419040412 10.25579087904826 -0.21037537396589576 1.1182270151199387 -0.48585005153428584
Ni 1.4549860862075426 1.332969906478434 12.503490143343432 -0.4691954736967403 -0.9493070800853521 -0.5328834987740049
Ni 3.31268658285606 7.876237776526497 6.942816775114038 -0.6587719086394138 0.05660515008855412 -1.4138362586546749
Ni 6.337482285520845 1.0870238215160546 12.887569304998229 1.0484228498426074 0.0028377265591112417 0.4364115943975
Ni 3.7481469630349116 2.5420838681295552 9.36035871565102 1.910584188048387 0.9354593755689825 -0.6038253772002052
Ni 5.81389808164311 5.065104441623452 12.619437871763692 1.0449762860549037 1.3142769736020978 -0.18401462458417986
Ni 5.42394184122988 3.1142230785186773 0.5301990376855984 -0.30965980809053123 -1.9662305737680976 0.8997727208006504
Ni 7.4038711537746345 7.38105436853661 5.533042685068583 -1.066977472916343 0.4811991830258358 -0.49004480634192377
Ni 6.8542713771011945 7.15308066222201 9.59707084392955 -1.699362664032112 0.25255200733394567 -2.65116911350055
P 3.0607127248081087 4.852764116118211 8.678447470739128 2.897224714476875 0.2007350226626543 0.2528391995570613
P 8.341504200306398 0.1590194953349399 12.201584690728202 -0.6746271305041156 1.184983908930514 0.5356294369502582
P 8.19270510856977 5.563264755953146 3.8508058555146794 0.904690469817242 -0.5627090667758696 -0.40884191230934747
P 7.651009850283085 9.082670673461644 8.833147678366123 -0.6155912594868818 -1.3345943450032112 -2.53668380326576
P 2.2124978090794922 3.2792287442108377 13.023285725425973 -0.8072428317910291 0.1381533432756911 -0.49947586984783654
P 0.7735167547212475 7.056312716076792 1.2209152689267848 -0.09947135332446094 0.13204800170890163 -0.22665765606568708
P 3.9470819649602764 6.401273135659567 12.477374723999684 0.386083021346277 0.18816644196902432 -0.26861625988565996
P 6.124799893138047 3.305521668528885 2.9746015486563553 -1.2594039757133022 1.5180075885579662 -0.46716533064058896
Ni 0.21894683876743395 7.665727971068716 12.575543295332732 1.8321259466404836 -1.2656718109998848 -2.144643535894784
Ni 1.8911028649892712 6.587505437861655 8.323838757343346 -2.423586631627749 -1.6099116710581305 -1.008163230991612
Ni 1.7959897829273623 8.378493648336113 2.6705318296617815 -2.0227423928118973 1.8497542012452077 -0.10369336182560851
Ni 3.204343833178425 6.804338858028841 1.7745995090192521 -0.007302704309000326 0.5022462335041221 -0.5443187371941399
Ni 6.571640930783678 1.8125384237604512 8.797804773874049 0.10038409494671745 1.1325568014790492 0.4373724156488726
Ni 1.1029068186955218 4.27358942211234 8.47081287606296 -1.4144643791569769 -0.6347482920313068 0.44749253480200996
Ni 2.2072096400534997 6.796332644083894 11.029497157309775 0.35911703428039443 -0.06055616431650217 -0.26562966645351027
Ni 7.509033605996078 7.971360103639151 0.1465728835172933 0.5991991912821034 -1.1521396087069833 0.807388613340274
Ni -0.06258252200638403 7.390863367376783 10.037777790406045 0.4577314389211988 0.8236392708711816 -0.753880871230121
Ni 3.7468896361336266 1.2419338917949565 11.450678556613372 0.3904281856888501 -0.00745131407172265 0.8699494667916309
Ni 1.7794873673479974 2.0181298622220303 10.261162253530955 -1.9529852787224173 -1.1573124111571746 -1.022735215268516
Ni 6.6903751174984025 9.427363145428615 10.653793087124638 -1.9016645169612538 -1.8563642503625577 1.0959504631099253
Ni 3.851941147746133 7.228215189624531 9.299807331293257 0.9341514553908362 -0.26306910481518564 -1.3230187243504699
Ni 4.480807989504994 8.285331271981343 11.116934998243398 0.5698212523406186 -0.0710066702258648 0.6920137014116792
Ni 9.519998553890934 0.022698448588491286 0.682306933083769 -0.06799925085810869 0.38628099628969603 0.8103281555845723
Ni 1.0276613506840644 6.360548687128977 3.3924408621157283 0.1232064921578717 -0.953799311528751 1.575675632693396
Ni 9.108214748669367 1.7225193646588954 7.948310343122359 -1.0125032531278628 -1.7102127193727386 2.1166259676359354
Ni 2.491726076722944 1.386813082015813 7.568358172120014 -0.44843073034556324 -0.1372179759456153 -0.6715477202478435
Ni 0.15817912022224279 8.7192015034321 4.843824152048045 0.3425614439145584 -0.43090814808076755 -0.22975712092661724
Ni 8.661928414068422 5.590648596259072 -0.1243274424152944 -0.9927777496744773 -0.16923412384089564 -0.09034008044715408
Ni 5.453655434323481 8.36712223592008 7.692343547657754 1.1317962691639412 -0.40609443147119734 0.3059777312532537
Ni 9.38668492215175 4.661123459230448 1.836910226533741 -1.5056729782520133 -0.1323354510423334 1.3900628103841608
Ni -0.2586617277566979 8.443467864970161 7.18004385271905 0.38701067536686895 -0.5044301285293183 0.6934046682219349
Ni 3.8046527131867767 9.32418837911729 2.4433587447416754 1.7949071714983411 -0.03277488043817581 -0.25036091321989784
P 4.040087175452384 0.29770912408219147 8.820049290470973 -0.35337576092124307 0.10763306319964688 0.5582875406694062
P 0.9792080397308699 2.890335684633253 6.785531651298812 2.9817075648123037 1.7206606541789398 -2.665232533572152
P 3.097591232228886 5.150084948069123 3.219636071615303 0.2810753115846192 -0.10071345326167816 0.8325286029410114
P 7.3496859113597 0.20560992856306867 4.484303543191581 -0.8384369980056464 -0.6779052870347549 -0.027292002946733642
P 4.496053078183074 0.9466747061601217 0.26199919107554986 -2.1658523087619153 -0.1600228896552728 1.2676312487191008
P 8.762135519090682 6.023270745859288 8.279267443197869 0.02649007587072857 1.1071149643671774 1.3292505641927945
P 4.899331436719478 6.443569242816762 6.120412192054593 0.5948941361488465 0.5971600493648876 -0.0021191032255318343
P 1.673742476929635 8.922888461440262 10.891479643751666 0.03223751987746706 0.4964267986088676 1.4453060471281818
Ni 6.504475637123125 0.10092544546512823 1.6264068926114799 -0.8653968144239419 0.2973938462389846 1.5201740000816657
Ni 8.760073872774605 1.9090382634340712 5.66637758042448 -0.7046131353432445 -0.5487844862749774 -0.8551432550167338
Ni 8.019184751141703 7.2974513746519065 2.6760659170375836 0.41723733546189434 0.9311401793683383 -1.010047078277886
Ni 6.699444512278995 5.930154594758244 7.5104185145976405 -0.3784296185660773 0.9360365882286912 0.016484627918584516
Ni 4.114177012120749 3.6119303853618785 12.139869354481675 -0.15042213334071514 -0.5653123087266716 -0.2348803010857955
Ni 5.2143380507450825 8.480568253608812 4.397230881762375 2.840514149158708 3.065811948762391 1.234970782371602
Ni 8.842900282396752 0.8990811849261884 10.163616798618104 2.5222547723246236 -0.5029630570654886 0.9889090107476904
Ni 7.272656148554507 4.634220361563247 9.751825597355943 -0.13466872716120032 -0.31773410045823347 0.6001728680492825
Ni 7.285876571119489 6.830946114072209 11.601508785998618 0.5287764185841667 -0.5174676784395669 2.317366132504912
Ni 6.0173631584333975 2.0531686045446036 4.630763637089789 -0.17148178222449176 -0.5879575569300133 1.023274632711754
Ni 6.923618502737506 4.873879812019202 5.3229858870972935 -0.24593244513489904 -1.3434589944826927 0.4396450137331331
Ni -0.04062922450791897 3.3106434266414717 12.29420530710933 1.587668286278898 0.18741388007371593 0.18821992091477907
Ni 4.581024339578001 5.043184426307668 1.2899480628377755 -0.20829226618462193 0.5465368278913814 0.5390253500056845
Ni 8.443264473853777 3.075615746608633 3.7623667755853996 -0.6824615389468698 1.5941412955977512 0.2355073931468331
Ni 2.2032620033854946 4.188987962747204 10.751609422024309 -0.16870884746504491 0.8597177617612936 0.5296127984425331
Ni 5.879528696880035 6.454857449776093 3.4341711721673462 -0.15065430395617926 -0.9380469337905005 1.8085962389496593
Ni 2.6002167472124946 8.398444467843266 13.131331708974702 0.685083292840433 0.27183785214675116 -0.09949732146638993
Ni 2.237145114364975 1.3501749459143995 1.2194508528888177 0.2929844043173793 0.901593318949157 0.4118752998190326
Ni 7.367048116658326 2.293798785328756 11.296288982691399 -0.061346007207649184 2.3668009900972726 -0.5269342231691054
Ni 1.7954350798826777 8.736138436396468 8.823743612748572 0.10237412879355272 1.4412059089168792 0.016314163778991256
Ni 1.93221560565114 5.84596916267662 13.252001809315376 -0.016393353756358864 -0.6476048362790009 -0.10596621702018523
Ni 6.9663768624319395 0.6259907064721713 6.672750352758626 0.6510246605938271 -0.5447720226814747 -0.3855533740950521
Ni 2.560315108198187 5.3984255011743905 5.820347429042641 -0.09484233919288182 1.3029967727025884 0.7101037261441706
Ni 4.664100365570254 4.7380237913252135 4.742286684223615 -1.1580258922844315 -0.8824460565967448 -1.3778210169023302
P 1.3829578958552555 7.326323668127737 5.845176861827796 0.9406283213644316 -0.19702877745566066 0.43868393537144446
P 6.690707939325214 2.8340240805470276 6.682249642398849 -0.6877870649248413 0.06215256226934457 -0.4378200447092524
P 8.944226038559128 3.0918130755134214 9.79370475272455 0.3112325518942898 0.5569724214024084 1.0718898226162958
P 5.580451305287622 3.1517394944408412 10.499511680296381 0.040450394705562595 -0.46683417255341536 -0.16658305937129378
P 5.800381817454296 7.040115387172004 1.5153174383575818 0.3293385174663812 -0.15787344741243778 -0.38168000718257494
P 3.348501909441192 0.28996824309361874 5.4523435616228015 0.19939213548151466 1.494531616923213 -0.9903945941542814
P 0.5678347147623698 2.49688481503851 2.2453047961522845 1.2214321244552189 -0.7754529409739419 0.015181335726128693
P 7.421131663515069 3.418764295101233 13.489349997085144 0.4655661044742692 1.0066102846821954 -1.402139539043037
