# total energy = -381174.9758497965 ev
CRYSTAL
PRIMVEC
9.23918896041592 0.00000000000000 0.00000000000000
0.00000000000000 9.23918896041592 0.00000000000000
0.00000000000000 0.00000000000000 13.52248695510455
PRIMCOORD
 96 1
Ni 4.996895287588747 7.741331720213038 12.475373003282177 -0.04786417067113047 0.9272675837868096 -1.5356489557888133
Ni 5.29988525325527 2.812612408615427 10.18696261589101 -1.2964456018476316 0.2902369234792292 -0.3147179393397289
Ni 7.398982809198605 2.2883438652300154 10.578912113313956 1.9683471058904682 -2.165086377130168 -0.8040096695657121
Ni 4.51574603949411 4.075119874567533 7.308471093681984 -1.2229002243603133 -0.9321195125624722 -0.15369103389997404
Ni 1.874649936380706 0.3309588387550667 3.351183216648389 -0.6881351922928793 -0.17425934496962892 0.4466584689364888
Ni 8.856603469483384 0.2904847232889651 10.575233992153628 0.9219713683848766 0.5896154042484104 1.259877830025927
Ni 6.873309909077775 4.9196371887626364 6.6786614459542575 0.1276850967545156 0.0756721940223342 0.6875854904369965
Ni 9.058461271821683 5.474468969521497 12.066291277606032 0.8859846658776226 -0.7750078830167233 -0.07503070378359336
Ni 1.1466757528472338 7.263564015310265 13.484516035786706 0.08471090718583475 -0.6231143073368043 0.2006046677323771
Ni 2.861487718683607 8.781655167919475 0.6314338971625051 1.9718954853633588 -0.502639869398115 0.8971391398325452
Ni 7.821121356838523 6.505932034930127 2.723117927813078 -1.2045898560868995 -0.6944783609020878 0.5435486917973348
Ni 3.4057129104144384 2.155955525349683 12.744538297841025 -0.4796511218124255 1.0936359560441358 1.639469073000273
Ni 6.474213898925578 2.7866133306320884 8.057806282296294 -0.2717445211019965 -1.6280636593768092 -0.48415903698510815
Ni 4.656763781946026 1.4227704391926845 7.182401435192129 -1.0483074073106655 0.8109040826927003 -1.8145367728038106
Ni 7.9588407088000155 3.571214503845689 4.9238484111310825 0.4487508326891433 0.3883895579922666 -0.18792372983059893
Ni 5.741878818161069 2.9945228017973555 5.704988584126999 -0.13983484474317207 -0.7103932323601313 -1.8775185158426697
Ni 4.754227987221874 1.5693963693972255 1.7694580733844376 0.7825245031087427 0.4163132809857282 -0.49838083701144487
Ni 0.12993810694458888 4.660274673784572 2.951363777993671 0.1672515461932281 -1.2971516267757206 -0.3322639186432923
Ni 7.206789198605357 8.696266582730415 3.6247703870859938 0.2996481894908001 -0.2810915095345352 -0.7453926312534517
Ni 7.607548262786337 0.33801111175601983 8.61222876698029 -0.8669117084065714 1.5944829952078863 -0.7427140559800242
Ni 2.7567615108153984 6.351656056193176 11.479063204366442 0.3742405201853942 0.1688595141102963 0.3865172806702182
Ni 2.3791004192564302 7.471482725664581 4.526125344471538 1.250198140844318 0.2681974271806865 1.347600527454892
Ni 5.82309128990007 2.236946256551511 12.657940302805477 1.1517706554033391 1.6514393579882722 0.2166180124414979
Ni 5.4808532491542215 9.006777248282665 5.179774871701896 -0.6263220156408246 0.6571330874844102 -0.27912461561615154
P 5.120312374902689 0.4298689771170525 -0.09085910902485683 -0.6793335348408494 -0.9438974790340066 0.8193720109543954
Ni 6.755593401406945 4.027824465826699 2.5033370226390015 1.088575253691777 2.0434973659710614 0.1309444842320777
P 6.527551737304332 5.4656085872236915 4.593831969658993 2.2023863991322075 -1.5486538526889135 -0.2530615999805126
Ni 4.667915483127934 4.001853105410507 3.197027347369071 -1.013831227910667 1.0667406743151888 -0.4323597929256296
P 1.8544992650652616 5.234416359655435 1.532287166582699 -0.1220600372582543 0.5206905562522388 0.38249504688470254
P 0.3928734163278261 0.865995656976861 2.079366343810706 -1.3808222656224993 0.5526449976716483 -1.6153768079377597
P 7.579904609152312 3.474794326932356 13.367668011886463 0.9092868309386728 -0.01648694191142967 0.386650720924289
Ni 0.5854726273203179 7.42369763990416 11.135470698506039 -0.5478054101911598 -0.335084675921539 -0.6964457690411038
Ni 7.318518711772558 1.0092612941243517 6.130919818871452 -1.6319208283393702 0.6533962461497973 0.09008759811671582
Ni 0.26704028107762146 2.9132641341131125 11.932120698158187 -1.5353033995239362 -0.2906313307041704 1.0914322635245979
Ni 6.153115122723397 4.731462625405618 9.110004859687159 0.04673828459680338 1.8602365888337704 0.5432494153893612
Ni 8.866544836899898 5.245216971653489 0.7918742628328199 0.052078980083426436 -0.24150063461579052 -0.03308932635480107
Ni 1.9109876669096575 8.172727935279859 7.246727441106627 0.04384065133403418 0.5653326204416458 0.050986004129563806
Ni 4.488324126397256 0.9046182389575821 11.308247229394318 -0.11676227919442471 -2.0194241270719413 -1.493423471460699
Ni 8.659854938689074 3.0192006757467147 7.475569218980867 -0.1271212538312456 -0.47692780934399154 0.7986165235745988
Ni 8.02345035781831 1.0389468085381632 12.97110723520926 0.44490060570511764 -0.5504413051521101 -0.33862199965083617
Ni 4.486605637234177 5.4632710723943445 5.115530170651027 -0.9234389540693386 0.0813677017452147 0.8969738178992746
Ni 7.241343765647888 6.961802861787232 8.22096943697929 -1.4162050159971675 -1.0295440106602334 0.625493091981626
Ni 1.5145710215816146 4.40878394787609 10.683603212263781 0.6665893478013035 0.41759780412510666 0.20903197256412387
Ni 0.3093031035435719 1.2937451641261177 5.847867099253346 0.43923286589637894 -0.23553104729591695 -0.6278219972251188
Ni 3.7176833678364005 2.1071448896048444 3.924388048749703 0.3723281336540297 -0.5204434732384392 -0.12057136852786979
Ni 3.5203527681320153 4.65395506847519 9.390948272445423 0.9006702929142553 2.087372727197773 -0.6075804733672633
Ni 9.16877718906442 5.899628731980373 4.785175574859752 -0.38089736338027946 0.45629727757783356 1.1230758585718077
Ni 1.003921042854142 1.1835308779629183 8.343834020788115 -1.0345352932272376 -0.21579525942988642 1.0466133074376942
Ni 6.51318479833344 8.844666437232327 10.569202649542568 -0.541413647732203 0.48136810450353235 0.1316235125769733
Ni 2.4859424014168154 2.3009553582816342 1.585146414968724 0.44234107250805754 -0.10471408978063902 0.44216418061056106
Ni 1.43347865930025 0.9774230486621683 13.259433683936424 -1.9734337763847558 0.5453412649213834 0.01127557291381929
Ni 7.437343922129244 6.698199559035767 10.893039921378817 -1.0693516295754746 0.15238902725909884 -0.7801806854669144
Ni 9.153283069029571 5.665664747697475 7.495690324891355 0.3715321201152956 1.9037810490836244 -2.7262332416252404
Ni 6.885505638622198 6.387919873209736 13.312320649889594 0.06609483474654425 -0.5249544737349152 0.0468311014209258
Ni 9.15910375813032 7.858170504924232 8.75125361635438 1.7587510332927583 0.16712247681453155 0.5757453311345374
Ni 2.257826823801811 5.1047812981116465 3.9498373949846375 0.11235977925135487 -0.39761673301748945 -0.020872215463318893
P 4.013254264696733 7.928379102506104 6.244900922409849 -1.6474135246583306 -1.1554064523837133 0.48680624479996804
Ni 1.7982695605142323 6.481623728542721 9.26732515121569 0.5049186381299626 0.026931791393837487 -0.9482177036759153
P 5.271798118546902 6.117618158397887 10.605213312779192 -0.6026295571198912 0.6247726688758337 -0.07136251090338677
Ni 2.2919286705809516 8.749133222467679 11.664483565468013 1.4566016746466592 0.11963600119779397 0.3874428778082811
P 8.196869936264388 7.945351492788759 12.528286762883592 0.6937260561170956 1.3701974389188014 0.3715472896239472
P 2.1315178703155926 9.046653588217309 9.522116115452407 -0.8438761667433466 -0.6425004251729 -0.2515541621970506
P 6.115908908423858 1.343562871477276 3.6425659891128976 -0.7421977784652379 0.9281219613673047 -0.12598534045458948
Ni 4.8273284509760215 6.29400351652863 7.751211185062926 -0.35134613208572396 1.0195046241463603 -0.09156315422097779
Ni 2.0463233080965586 4.310830065580656 13.073148534739884 0.21644034921305308 0.19255480084470708 0.6611548070492936
Ni 4.196060859216395 4.447874956741586 11.499928988914265 0.34862410516887055 -0.5026234143378828 2.244621139431702
Ni 0.054688607817688716 8.284485166014209 4.718901947893768 0.017900791539820785 0.526019938884952 0.5806481677527935
Ni 4.0517077695178605 6.111797469297139 0.10452571746584974 -1.955372548007671 -0.18975692638459576 -0.12359755694870327
Ni 5.539032422594548 7.018457569034507 3.564919844346738 0.4337967824824722 0.35845780342984074 1.0081881706922766
Ni 7.174304209909756 7.262769445052068 5.879063221076637 0.31906156102040534 0.4530278627979424 -0.519803268551279
Ni 8.608558961090106 5.2044167128139645 9.439074284281745 -0.21186172870343514 -1.0975000669852324 2.703196414410435
Ni 5.671106630047221 8.588168070859393 7.596554551737165 -0.2290824634570958 -0.5337450754433518 -0.026561809648928448
Ni 3.15566349799757 2.510795819958102 8.957498185653053 0.20536197991170435 -1.4410940659293634 -0.4646389646743095
Ni 1.2359725150039378 2.6535135731949984 3.938289332592536 0.35009143374301643 0.45798263570005643 0.17074413272751884
Ni 4.482115391356459 3.9113367702993607 0.584922895571914 0.4162083799767477 -0.7372718019185303 0.4908734728908063
Ni 8.359627490548142 1.4484831023155098 3.866308658551103 0.24796824461800523 0.5390549176920393 -1.0672106719730716
Ni 7.194685860951421 2.036187917710019 1.635085155696422 0.4764470130528311 -1.5759810797489568 -0.43737421542108545
Ni 2.4718064421721433 5.908988030486813 6.571023045697866 0.09479914465977222 -0.2140541083690636 0.3880995375556735
Ni 3.645959543250524 6.59477607682344 2.5060681269218286 -1.9104294076380777 -0.544650666612262 -0.9235284284593513
Ni 7.149552422448006 4.2978028090218405 11.354493990178113 -1.0841910085811521 1.3355384540840354 1.095889527965003
Ni 5.978559124024317 8.021879695680015 1.5074864114189908 -0.3533549349856366 1.3762973811689523 -1.1113279740072604
Ni 2.03154060561847 1.7411990897597613 10.915107724421887 -0.3800794954646745 0.08950755724352973 -0.9858643103840956
Ni 2.979028681762509 0.5842410434201122 5.404627167744862 -0.008723238805610784 -1.6050931666235646 1.0361121507960542
Ni 1.5046204149760511 4.161663358387694 8.327039022935196 0.20036606935900977 -0.3731591141957573 0.1296285936341316
Ni 8.506299616697929 8.224079348013118 1.3200583745371153 0.2770201676786391 1.2460360390468284 -0.9608603321405902
Ni 3.9621430708787417 8.936346910163623 2.970944391344804 0.9354359785302148 -0.4576031408734506 0.6226273403980568
Ni 4.010464029603994 8.087708917652751 9.87374117227184 1.0244583686072097 -0.7000121462361235 -0.03734861585178729
Ni 0.8351654070399024 4.139757241152975 6.173150304175731 0.721269512953003 0.1488110800998534 -3.525093248669213
P 3.0722982952101994 3.620847427415871 5.382450342271014 0.6315220717845252 0.9583367943877882 -0.2230257157400546
Ni 2.0402901176476886 2.283225354496977 6.652035950953411 2.6797937192157786 0.8850397854658499 1.0397636315057126
P 8.755730003448527 8.850487126333075 6.865921329595445 0.39584215761556985 -1.3359727134079766 -0.003809346443761181
Ni 0.9013835988715954 7.086116150438908 2.8108384843180563 0.4955145712072434 -0.6011303468665453 -1.6204704204105833
P 0.22487539401558843 2.9517545956904354 9.703304004050718 -0.7250251233406934 -0.7875764637103532 -0.26882014836634993
P 5.179840469944142 0.9102633834664021 9.080728641348209 0.7151664853790587 -0.5040102673830804 1.9481325786158061
P 5.579379961170681 5.884919943014674 1.519007680162851 0.5925770579798957 -1.3811428821867118 0.9547264513287105
Ni 0.32992682133831513 2.7828991766344684 0.9543102933376769 -1.3710731566555354 0.4721836097907868 0.030285795467734942
