# total energy = -381165.6946127568 ev
CRYSTAL
PRIMVEC
9.30645671459505 0.00000000000000 0.00000000000000
0.00000000000000 9.30645671459505 0.00000000000000
0.00000000000000 0.00000000000000 13.62094011287165
PRIMCOORD
 96 1
Ni 3.069092520473389 0.6000170291526343 6.697470502075919 -0.3776557165145302 -0.7913953232358112 0.9734890766481944
Ni 9.217449518339691 3.6764597889444497 0.9931189584239988 -0.8814392125987851 -0.5858569656472427 -0.6037382168030376
Ni 7.761929033201016 1.7259288842728733 8.197068226338335 -0.3627278915601043 -0.05628093397991598 -0.8022865162270183
Ni 4.645261907263212 7.280999282304199 12.34168837725986 0.30722908716185154 -0.7873196105045409 -1.7088081257157282
Ni 8.497492739518771 2.6215915612096263 10.483478451396486 0.8458494884196336 -0.7551047163348931 -0.7156873908795351
Ni 9.046703961521303 0.35286918731455513 9.860185043971738 1.2735355300186775 0.7067936879343312 0.991889176421937
Ni 8.621138320152614 0.9691371507516106 1.3970452272132934 -0.9180944019279736 0.21902662188299055 -0.8487504641165124
Ni 2.5217146703950544 1.4957522964498382 8.861960563529394 -1.1695295220486568 0.9960512782194266 0.147142691258495
Ni 4.620748700926502 2.5444503435463774 7.942397045091525 0.41482924024103396 -0.479713856729561 0.2941668546612547
Ni 5.936644419675778 1.1127916127916528 1.1638710297619157 0.3278647611343321 -0.45650939358863957 1.0236975791817853
Ni 8.791418554147604 4.938284995614649 3.2941831298366626 0.7014452791382242 0.025800506002871693 -1.3865126311390572
Ni 4.068168541682555 5.094614851364107 2.364023280064328 -0.05093458206633808 0.3639162554412506 0.5883131404972191
Ni 8.58342855854428 6.13766387938457 7.493518730270497 -0.24929596229049325 -0.8147118864745646 1.4092134151706825
Ni 7.328936839570864 4.134309527800628 8.987436724150493 -0.6812695755212976 -0.10645626928272633 0.25838095531089694
Ni 3.304815756351352 1.1770154688773184 1.192961151389589 -0.1025070548269912 0.8863273939290219 1.5076167322419454
Ni 2.480198568091308 8.486808927493508 8.698032916719463 1.1534125618821363 0.3686578838912941 1.6167760022781315
Ni 6.2286624107286706 6.274692144419397 8.414403765526822 0.19833952584728423 -0.6874618203749386 -0.3628299643556074
Ni 0.26425217818061575 5.5692720506014926 5.607618373832238 0.18508548905085542 0.4563965221598591 -0.8118510199870017
Ni 4.107674449389213 2.9504258940499257 5.617384569249757 0.4015343229043407 4.244697972325284 0.5022984268982962
Ni 1.7437321354961566 6.782154602706481 4.032084618019179 -0.20160508397243343 0.14528095545940783 -0.6337098234644635
Ni 5.219758771489298 0.44427813338889444 12.38203372733993 1.6259769520511091 1.1645050722508719 -1.2567935346736483
Ni 3.3090781134136957 5.194622032569231 13.066499403774488 -0.372270798053533 0.5403360983973081 1.2982908825864867
Ni 8.471201999996673 8.30772478567979 3.6445684239199085 0.8653507916773548 0.20528304704465292 0.44573364312937425
Ni 4.465340184367375 0.9614500177090428 10.046586852506243 -0.41485829370675653 0.22915908233130208 0.010877051923819978
P 1.322987238577893 0.11699518684181068 3.0704326502047814 -0.10304261561548705 -0.5682811615470084 0.3586231253631114
Ni 0.14540779843861357 1.4519747252243678 6.138290203904867 -0.18362613089650956 0.8111262260058353 0.014163693094891737
P 5.194249774310511 4.419636176653029 9.024471767664897 -0.1144518858936932 0.05104513950227338 1.2125453634885506
Ni 7.381285657203362 1.034524313895776 3.3632556497421557 -0.5249693861332507 0.9976638741221852 0.2341969018655257
P 6.284668665753093 0.09849022880084018 8.27835733164937 -1.3879133681413258 -0.41497039380458856 0.9233224830961324
P 6.805132243725972 7.445574658484303 12.67418945394855 0.07425088819477535 -0.38935269323648425 -0.5103200116511921
P 0.9927104049850536 5.279431770362112 13.346259861013378 0.35369586326482305 -0.18355593978020648 -0.2606234714881705
Ni 4.576999049070435 1.990632425592187 3.141506058250894 0.06272488983304682 0.1846509726165981 0.002389326167782982
Ni 7.950263792743924 8.064379561954535 8.653314462745076 -3.477133690070799 -0.7297502967305046 0.8391697624066129
Ni 7.5723751278607985 6.03247300192677 0.5626841790312538 0.6493215618597914 -1.8773989595456702 -0.40174592469451453
Ni 6.889150932719073 4.248853394008767 1.8206016046305398 -0.5938168439242676 -1.4056465237550309 -0.2863198478130101
Ni 4.715116169512018 7.738290633772297 7.329059684796242 -0.5172077399099608 1.3772803139075118 -0.19815569197125227
Ni 6.808594245532069 0.1550427728199336 5.677602926471596 1.3388572340446232 -0.33415753612157933 1.1498328149506776
Ni 4.674456261203327 3.097961148437124 1.1863330930930798 -0.027449868680836598 1.1900302131051699 -1.702181621538146
Ni 3.7625538177299145 4.807864314672101 7.494976121353386 0.835486914238387 0.9602250125494367 -0.5959783703519608
Ni 0.864707541432893 3.5342943599392873 4.727896726179521 0.193810270518363 -0.927614425603267 0.02333687495372755
Ni 0.08480880714723392 7.104558174127393 1.914681503711195 2.055101782979209 -1.9424638103658032 2.6295991006392585
Ni 1.1271328622088403 8.587421028369052 11.440417629655489 0.6520649289328835 1.969298928280776 -0.7935522216778139
Ni 0.007332557051136917 4.804467458061282 10.062483210799234 0.5756172901971054 0.5889433178820502 -0.3471179529369893
Ni 5.744884884152645 4.223214106439428 3.9209096890524555 -1.82702102131375 -1.946561377473944 -0.3223538586184319
Ni 2.341988383085045 7.625468462010737 12.940955306021172 0.5240137070882007 -0.41040899968615124 0.34128926207035415
Ni 2.2322745677837976 2.8397162879066022 6.820971832634508 -1.6382765953540688 0.464550004504929 0.8927011586658498
Ni 1.604274885323182 2.6660764231266647 2.4995513443165134 2.8080256896126996 -1.2131606284750462 -0.6841067878597766
Ni 7.223047977877964 8.101158677916072 1.5967012910495237 -1.6091683651342028 1.7071207107109763 1.15090059409356
Ni 2.4754429688361603 1.4931185692693942 4.528144805841671 -0.5359014596647221 0.13840736826802616 -0.8166813514961098
Ni 6.8662012110689865 5.928678092939171 10.92558724978269 -0.8655942751467287 -0.6511958960643688 -0.027076544501817883
Ni 8.281703933395264 3.949194802195647 12.32644626285657 0.10269783068155862 0.5683384971475051 0.8835385183299752
Ni 4.8890817602683345 6.058670676884189 5.544267463363271 -0.3287811023010144 0.6029499165737874 -0.9627976583726192
Ni 3.458437433268622 8.301880331017886 4.849694975204467 1.4151207817940532 -0.313210501556267 -0.17663864383508288
Ni 2.2534560627049647 3.136294442628815 0.11196411647521007 -0.188223777569521 -0.36941198844849926 -0.46241238933663587
Ni 8.835903416064642 7.055941245538563 11.40434952696811 -0.743139830663533 -1.5190702254945256 0.45319369895184525
Ni 6.210012271966799 3.09760750309134 11.343341982237785 0.2575317199367242 -1.0855513792637885 -0.43232251192979093
P 4.238439469221076 7.259008125670316 3.1110767375374757 0.20491486507195678 -0.6633752117393802 -0.5747235747382424
Ni 7.839005105668989 2.9455400044042257 4.879537989160401 -0.46946749641120433 -0.13959136127379831 -0.26305753485095984
P 3.411216473149992 8.557361173977412 10.951480603613605 -0.8084810750735043 -0.04597543828884985 0.05249627012650314
Ni 1.8716214602794077 5.939743469679622 11.187258747584728 -0.0694696647560481 -0.15970175887042817 0.46590163343681695
P 8.98250802480504 2.5301835457809343 2.8866450252921374 -3.246536332631073 1.1549845343549463 1.5411621722975588
P 7.30290668082987 1.86491150516598 13.412090011485422 1.356272344197277 0.7371347621200338 -1.7987514849450958
P 6.3142538908648635 2.169865470709392 6.306930640270195 0.07166024464946369 0.12571537462265447 0.232098110354968
Ni 0.25851940099632803 9.076903412759961 7.7567983837502075 2.7547300635133527 1.0456578855029603 -1.579628446693557
Ni 1.7425967478070605 4.8845867417942905 1.84191897381614 -0.10911196173801853 1.3256255658456977 0.13978702222437217
Ni 6.786109846705382 0.892919133569987 10.341630372556883 -0.4658088166126946 0.0733196346297576 -0.6469368636776988
Ni 4.412693560127901 8.736287106031174 0.5157349674414892 -1.1047701182840846 -0.7100908706283642 1.3522567952799809
Ni 2.4951633500918513 5.095322142055675 5.66737326952197 0.23820216637017683 0.03438490523777304 -0.8560799078983902
Ni 2.1001973375899468 7.336921779220408 6.781974988096649 -0.10277110712165526 -1.286220581685514 -0.5884936319391414
Ni 7.316633704120169 5.305201348322003 4.925903685929622 1.5915131139462848 3.1978697206633053 1.2036105228927658
Ni 3.794232995546985 6.463157194352858 9.476837211724485 -2.2606614807240164 -2.4515422363004102 -0.4413640533067689
Ni 6.001463888975396 8.54825015309524 3.7374226626837284 -1.7856776824802731 -0.8189950872309508 -0.35092884204264724
Ni 6.4543905123600025 6.226121748112908 2.9611376254445934 -0.1974967182310147 0.9823023040644502 -0.03962069971541563
Ni 8.6803832220279 3.707543353547569 7.125277138162101 0.5470734171211418 0.43560555355643693 -1.2643708328002743
Ni 0.6137794169775123 7.259789868013627 9.40979442997466 0.6995632316241629 -0.4533001426227226 0.29652275648794096
Ni 6.148794401320298 4.297340032207045 6.397005971132669 -0.7326517866480156 -1.197970550998169 2.6459921972853007
Ni 8.762624377835612 7.89324313396449 5.936441538924776 -1.1562438606833443 -0.5929578383580819 0.12149233768024237
Ni 4.70165903345929 1.0711359136408867 5.175739232395659 2.337264928311368 -4.28397722954088 -0.489853259156408
Ni 4.343202249681348 4.593406331823518 11.086682011243763 -0.280293182002956 -0.06654246380692411 -0.884511937986838
Ni 2.57886561956504 4.277368376626718 9.379079401047676 -1.0232687191744827 -1.223059118535681 0.6746818950014509
Ni 8.04147637258679 9.179879353578377 11.974631497059837 -1.450533099855076 0.4123131586873996 0.46223215500502973
Ni 2.639525102823462 7.073046512526746 1.4525917432881963 0.779853898255115 0.19524263208951537 1.60759125045507
Ni 5.716835224358095 4.568111383143496 13.040510193441952 0.48538108231766725 0.9153659472532171 1.132927811665223
Ni 1.2801310065427545 0.05781449951615416 0.8935454580902834 1.4324469317773265 -0.9897523325845923 -0.1914934494597283
Ni 8.800845994549688 7.846078012584669 0.11379283517117199 1.497572717742382 2.0332345505924723 -3.908804941569836
Ni 2.8524847461806977 0.9469970908142393 12.560277496134587 -0.2303862698701839 -0.3389837538656291 -0.848465842996558
Ni 5.376740079191516 6.772969130172565 0.891872157217337 -0.6722347190125391 -1.5042591286236222 0.4823248119898467
Ni 1.7577476589369638 2.6354302619775423 11.223395718049971 0.004870697828739999 0.6789828363696501 -0.7338026124230072
P 4.2561403494232115 2.767442346976117 12.499745511329778 -0.5813552211221472 0.29212539875119364 0.3481003714549166
Ni 5.198419066808175 7.929854733709601 9.815112944651569 2.7524487236783437 2.730130262686801 0.6659388587014984
P 6.639319108835623 7.226407608662912 6.356674580737299 0.4402656780362676 -0.835904975612412 -0.4666809348050027
Ni 0.2915470843556119 1.3850519967629822 12.653458391520434 0.022610024090032026 0.7949496162459728 0.5312400496333108
P 2.9832962982949005 3.7120383720216124 3.9971872675554745 0.24075372914743695 0.6721781547429908 -1.5400069756471928
P 0.5953302976753497 2.551178911572741 8.42971381706233 0.14426922636544187 -0.6034353408506381 1.0576551670741525
P 1.5447694026667922 5.767108702198229 8.252383011647185 0.10965292184315309 -0.15827222551275322 -0.502673807959844
Ni 1.3257326432359526 8.927311431493335 5.314577603213512 -0.7149697959872202 0.3254957466815233 -1.1090985704561092
