# total energy = -381175.27540549944 ev
CRYSTAL
PRIMVEC
9.20729456767313 0.00000000000000 0.00000000000000

0.00000000000000 9.20729456767313 0.00000000000000

0.00000000000000 0.00000000000000 13.47580628738291

PRIMCOORD
 96 1
Ni 5.083181551164489 5.032163932450237 2.035332292240995 -1.3701573297094853 -0.3033040410758325 0.8842586843254514
Ni 6.71776174751174 1.239016410893045 0.8350887191331136 0.24666598086681388 -1.007269515532749 -0.29746455157591994
Ni 0.7763323694083332 1.1567768565967609 12.464986266793565 -1.8089237974924073 -1.3454893946491604 -0.6218992039827805
Ni 2.5501351448597807 8.54190172261536 5.180328635953509 0.22548651857572136 0.011099452347271206 0.009474515149338522
Ni 4.231598884699719 5.797483456930918 10.89164470676293 0.8847235397770118 -1.1098760720520822 0.27018720391720563
Ni 2.083039888589651 0.4091629594013185 7.6120782298470155 -1.2844856012722783 -0.1682139101064974 -1.809961237617986
Ni 0.7390897839657625 3.171480205555084 9.432363110751817 0.24091879397039156 -1.008794693928024 0.9254428718732449
Ni 8.568216170239497 2.2432283979544914 4.960040432599241 -1.7320874079586426 1.1655736227247024 1.760128630366575
Ni 6.914107302299946 1.1590234364499061 6.813071056322531 0.9766530761984729 -0.5957305160072128 -1.078326065159943
Ni 3.1641788210323623 0.75629637589018 9.526882433696215 1.7053883014009017 0.6902838632047661 0.765365731941269
Ni 1.0462064571851983 7.993506056085918 0.4213856428236559 0.7470743898312489 1.7490777718690522 -0.8030910144061846
Ni 3.5125368076870767 3.0135751052213093 10.768368240968824 -1.6413333799025218 -0.8560485404398224 -0.3559124113001677
Ni 6.254100812082689 8.372929454316502 1.996359656165613 0.09564812292362881 -0.05032703038932623 -0.579155385257351
Ni 6.7526758081802924 3.1462614259740804 7.540225424453736 0.49909920323470824 1.8040862668944477 -0.7796428106855735
Ni 2.0950093714137856 4.926335289695927 10.13713454600189 1.2204795307339626 0.32889834460516904 0.6646311956336682
Ni 1.0642987908386015 8.820459209816413 9.887347091862818 -0.6861163620906376 0.3578528228559901 0.3309829950483396
Ni 7.7319176126116975 6.2707383932082355 4.6059628746134855 -0.3933474162181742 -0.5579419844045294 -2.592549761195445
Ni 0.6875059166409828 0.3120775634853154 4.084166161107613 -0.5655640197261614 -0.8063146635498049 -0.8259694616662548
Ni 5.322414683641019 3.327193969802594 9.50441847662366 0.6536847239244935 -0.16343011556460887 -0.8849801358725081
Ni 9.148892611216183 7.619459717831714 11.779943301426009 -0.34704287672467976 0.8751117277188606 -1.155523694687868
Ni 4.28157607913772 0.514197012641995 1.7261964593420724 0.9772863389070976 0.13263781277410058 -0.9971789640659665
Ni 5.90357911122515 0.5860056230217701 8.82899805471726 -0.2834718368412537 0.48984117497154994 0.8137821755714436
Ni 3.01451424925828 6.66173536060031 6.733483202836517 0.1502329001480445 -0.4440889084370997 -0.8943374087176921
Ni 7.3059513407841905 8.165332585673609 6.722446418943218 0.09550234137438392 -0.983649562120964 0.2790508249554226
P 9.029961988416686 6.249644481554319 0.6924668069068626 0.07322398959215777 -0.21261300504716288 0.7488769902576264
Ni 6.613949502248574 7.181864633075836 11.351183536453238 0.22369497389293735 -1.2469513517722461 -0.15521364119208753
P 5.249962483377084 0.970117375601623 10.878722268960104 -0.6141815236235487 -0.12337875606967784 0.39625713366580145
Ni 7.767826061084102 2.72712696665081 12.084482852920464 -0.9111254268093083 -0.20304284486022453 0.29719895661935913
P 9.11036008381695 1.2835428869988257 10.622937183196695 -1.1552863818660812 0.7216374378153829 -1.3167262064735388
P 3.6818313312927398 1.2548621646933031 5.389432738702795 -0.1416904098946721 0.008769004441881672 -1.0747496606625941
P 5.656832826452856 2.0654631634271334 2.6378484357244867 0.016256313957862326 0.5685696393217046 -0.20849049823835705
Ni 4.689367151661504 8.655114615542713 4.007785208289019 -0.6276435626657255 1.4623090094440814 0.20780144259113242
Ni 0.006214923774069849 5.715584572530396 10.238121993318561 -0.4608118776187355 1.360678700795089 0.8290897524627914
Ni 2.244268822230743 3.879235724946158 3.172932195894596 0.5596216860997975 2.667546269306993 0.42396539821434726
Ni 8.242176665404552 5.882678552755315 6.691506226572277 0.8698574212984568 0.5188511890506549 1.902822027604465
Ni 4.181851872623719 3.696885257767709 4.66027025964548 0.1955107981492375 -0.20911476208591726 -0.573726758042612
Ni 5.528400275749893 5.704812037988675 13.225304388912654 0.6831935320168878 0.6033859756699415 -0.49328645320767306
Ni 2.4985742957712014 8.46090515307389 2.4142179844739413 -0.8989183432201551 -0.6989610792637898 0.6118919562584236
Ni 0.16775506396858939 7.819202764283079 5.62885738290451 -0.05355067953294648 0.3661135202028856 0.16641850876897146
Ni 1.7012041792052794 2.2422524247396005 5.193832054038029 1.1552884387486102 0.05873659460926014 1.1434073710403083
Ni 8.912366423316806 4.503370595868933 2.3219084122047677 1.3799532327539847 0.887746899984368 0.11734514828108823
Ni 1.9791263630872031 6.155196054777417 1.5554315308079372 0.12482577292884955 -1.1848448122494886 -0.016497226324074812
Ni 1.2751918709053718 5.266130492484145 7.948730983029175 0.028311959570815757 -0.040625743941162286 -0.0260226493160068
Ni 7.044823262033976 8.401085360836658 4.259082658722828 0.6492950794972302 1.4554071401179258 0.6311808863950227
Ni 0.4081777788919475 3.061434621928887 7.179033390023204 -0.6010025630394294 -0.32521575354725923 -0.8846260949671991
Ni 5.390060676186339 4.8411494011660094 6.548406455762509 -0.0014950964882877477 -0.770552418348531 -0.10097056357780675
Ni 4.046854520956442 5.034493377953702 8.591459985154518 -1.4255599748495063 0.47060006735375076 -0.5974649821998161
Ni 4.611224843408865 9.01956695294865 6.795135246675289 -0.42357459053383184 -0.6459153643917199 -0.261384260913595
Ni 0.6444010468029303 2.4137290771370474 3.060503764456949 -1.519318594059906 0.0419838006309535 -1.8550619866113665
Ni 0.5059555633528544 7.4451472187343954 7.885664698758258 -0.16541397876385708 0.6357651633315954 0.6517836502470389
Ni 2.432530372465419 7.305279208287143 11.113767003177635 -1.1701797540381458 -0.6467440309406023 0.4166269555714051
Ni 6.85739957559699 3.9834715057554098 3.4595359377418093 -0.16636862936764252 -0.7139503535837705 0.38345535391544283
Ni 4.266264348417308 7.10038007692692 1.1477656774890836 0.5586325827136508 0.3326639822951884 1.559989846527023
Ni 1.047366576289691 6.795719909874776 3.7384985458999846 0.38005635553622286 -0.5294724162099268 0.026454851757418955
Ni 7.646335810419137 1.2896012867667337 3.195180702276318 -0.32418834072400937 -0.8240059101819808 -1.8737189395909215
Ni 7.983258337329563 5.111641298402489 12.521665450883633 -1.0544878250897647 0.29007905774512627 0.8298831948983643
P 5.674667355860817 7.734956019790133 8.173008707081673 0.06839185831083705 -1.1269967908927687 0.48143649584762244
Ni 5.222147246752691 8.883197714403837 12.99997519183053 0.46669867541681564 -3.685015865301196 -0.08272421577310915
P 7.45353506400577 4.293343001483293 5.611932534191184 -1.0600437219109873 -1.7201999124924374 -0.05226692772451644
Ni 2.9990183726482655 0.3190281500883455 12.069511792095817 0.016697258150022858 0.2605918469192867 -0.4309747396526448
P 5.717020910469293 6.812062857576961 3.391401958589044 1.368898774712036 -1.0214866875733957 0.022630850025638447
P 2.972547401017968 2.9686619227473647 8.679874871858608 -0.4015986004833729 0.06724308941837451 -0.8907008404063692
P 0.040803966947474596 0.8019001054501325 1.560120805886654 -0.06552584961695167 -1.8239840342596394 0.5851131455026826
Ni 2.880594151045175 4.026690546045015 6.594574592474092 -0.387578632055197 -0.05637400791435452 0.6154629614391336
Ni 1.6697888904391665 3.7490814101754153 0.6745613813314053 -1.1561865250828476 0.47462307247021485 2.3490140984274963
Ni 8.47502914280637 0.515261375883895 8.447389765506546 1.6415943468733922 1.666685742624381 -0.43453880285481933
Ni 8.588739229635648 2.6390591949486204 0.9561121599679376 0.17776812945383577 1.1466793569233606 -1.0707150855819043
Ni 1.0060994824298675 5.645977426260814 12.374240093127112 1.3205052138999966 0.9259599207189795 0.9340918057974944
Ni 0.7622663856310791 3.437976136987199 12.05548355822593 0.3068171964354135 -0.10699928627038992 -1.5377546892779064
Ni 4.81365641984842 1.7411454226599685 12.976621810111196 -0.808858255907265 2.926747920746972 -0.31718979791898927
Ni 8.696685550120382 8.01069607488027 2.331367986553626 -0.1510322561208883 0.3467330587937448 -0.07987594769103663
Ni 7.4763967761998655 7.857413036375508 -0.1203577534439127 0.0799170853416172 -0.6132788093036212 2.2023493752466843
Ni 3.2030243964439182 4.974563098182709 12.95662356650041 1.2940295362069714 0.9774128371826328 -0.004921605671333459
Ni 4.647216157531589 2.2211861349691238 7.032632804142319 -0.685227274617465 0.8493127643778857 0.8083409499512144
Ni 4.644785431788843 7.887124975662802 10.229982744998148 0.793726285361833 1.9208061228867113 -0.5423531288273369
Ni 2.7244476439571 7.536087666314377 8.885192014388227 0.5367653503269142 -0.567522429004113 -1.0555787441610982
Ni 5.490254454718825 6.916050041435248 5.678462602645516 -0.27608839989298906 0.5550263534196312 -0.24861153462895894
Ni 7.183172068892011 5.944146450704486 1.8533280193349972 -0.3304458915979471 0.8129414248377033 -0.3323415659587631
Ni 7.287859007130788 0.3176120681973056 11.795993457163725 -0.011001493316826216 0.901753241565789 -1.3580808581609256
Ni 3.8164143547084124 2.9016051970487706 1.7394301036983253 1.106514611779017 0.6933679014467284 -1.3504107432101773
Ni 5.9422221261581445 1.8211015679251872 4.869670837277026 -1.1991781981530252 0.12846645500523035 -0.8786351674910867
Ni 7.695871054722093 7.884068153895408 9.296729535035965 -0.49645456652300957 -1.6011290397694942 0.7628712476541895
Ni 1.9715855889079983 1.2771806465130742 0.7600179643190378 2.1320214762553995 -0.06658077324402728 2.189576906072365
Ni 3.6475157447653936 6.508268176205946 3.6060046576018476 -1.2913964694594986 -0.578435476372191 0.14371772473734604
Ni 2.703003855112939 1.5235862613896036 3.146573553256956 0.8222009957627581 -1.11876154746717 1.6147458592219806
Ni 7.451187203913343 2.4917608978559245 9.610109009960768 1.3101174429077695 -0.48654553493941366 0.8319765870922832
Ni 6.309095982012347 3.555332312430598 0.6440060538697339 0.11092304680482831 0.23237733215828368 0.1374617165253052
Ni 8.152773836002748 4.746369511787824 8.620055079621375 1.7762707873440764 -2.5937980317802487 -0.8135242939243666
P 7.1423193032837915 4.577618218556487 10.665628645512589 -0.6165579942755253 -0.7230163204407807 -0.3599292457690446
Ni 0.34827051735715414 4.440493981864306 4.839161546287754 0.29837060832995715 0.16995017607131377 -0.20367302224505568
P 2.8345853005280977 2.823066975133488 12.694048101057923 -0.20476831219176345 -1.2656036767661107 1.2727238327506598
Ni 6.333615007212863 5.742690847479822 8.976908636892881 -2.7093760608585855 1.5333853565656175 0.35884269757308523
P 3.1984944075597075 7.556629140299488 13.003856066453894 -0.5746644393655329 0.24377683224447688 -0.1331119241970417
P 0.0003102858239794873 0.7584766632230684 6.321096769637714 0.4861616692374337 -0.6022022397744855 0.7434175098049519
P 2.298334055417911 5.420039627013555 4.9414030271126155 0.5810654577958703 -0.33520783176296465 0.39807464649051444
Ni 5.278808936983248 3.7879454001759325 11.846729332666888 1.9412880448901468 0.9798592418405964 0.7922425017274549
