# total energy = -340877.6109764006 ev
CRYSTAL
PRIMVEC
9.20416239894215 0.00000000000000 0.00000000000000

0.00000000000000 9.20416239894215 0.00000000000000

0.00000000000000 0.00000000000000 13.47122204184334

PRIMCOORD
 96 1
Ni 5.211350662241935 5.761557075028164 0.06445858928074731 -0.4470654745669204 1.7803814670783402 0.5669709273760171
Ni 2.7067508392010633 2.085341027015152 12.224850527294063 -0.4215609025379127 0.6777381653292714 0.42223530289711797
Ni 1.955820055408076 5.777526296584323 8.582515000634494 -0.4406971091467313 0.6848205260973497 0.05571400573285244
Ni 7.085087998435123 0.1822442539805593 2.085870266346264 0.5073161918278617 -1.1265802721806406 -0.12432055115765686
Ni 1.2268043820042618 8.71047862798376 8.113501264570658 -0.7640976638621227 -1.453124514731336 0.617971072572968
Ni 7.550606914081166 4.031551937002692 10.812326399632235 -0.6251076836177492 -0.016838925934209707 -0.8079676257721956
Ni 2.8841242505029374 8.938134377822406 11.859120377841347 1.3275410377008556 -1.1560032054274478 -0.019125665085857384
Ni 8.82859564252566 1.4448878030714922 7.428745646323677 1.8357416890161997 -0.2242847849581363 -1.2740201829645799
Ni 6.0406456836886075 6.533040753192854 2.0070909209737424 1.7078555319944717 0.4564757121372267 1.502709010527683
Ni 3.246354057040493 2.1350435033282715 2.549091823087166 -0.0403200397752854 0.7596612253573239 -0.6657426835302922
Ni 4.1127418524763995 3.763370260644294 0.033433199066624765 0.2945707749678927 -2.1019184862224316 0.4595538368419182
Ni 9.146709899254182 5.780480832676269 10.538388440183796 -0.09827887567825655 2.123819657170897 0.6887627985745493
Ni 9.07696075749477 2.5039187150321367 11.721431632626812 0.05520132776249203 -0.9795183135614097 0.5388533432041946
Ni 7.183241184991253 7.382198356840213 4.046526188616361 -0.34425014447089103 -0.07466097914900045 -0.5153611736195254
Ni 5.27057024235279 3.283124685349921 3.3132333410009345 0.9620139861290594 -1.0913733852622043 -0.2632447111611015
Ni 7.65786301713242 1.046752559478848 13.327052642013792 1.190836511056549 2.5256524851522633 1.7471535582631457
Ni 0.36175855342880914 5.09784493300242 4.874830842201683 0.08768104555775222 -0.27715103682954845 0.281276886072464
Ni 2.1101370401980306 5.918147487901329 6.167421974103726 0.33436913791175316 2.0272932454073733 0.25089981644250337
Ni 0.3247845131329886 7.052394814015827 13.151266948705254 1.342759911533139 0.31253764385895855 -1.218591055461998
Ni 6.603360553013637 1.4416571421111395 6.151970026467715 0.38900045210338813 0.06866439524593336 -0.4604328970127618
Ni 3.228856944545819 4.304565798558198 4.7607296036626385 0.7120091706969995 -0.3329702006816975 -0.6705676157227612
Ni 7.754064921285146 8.18551002816986 6.267189570723804 0.45282500275851695 1.2586167039253164 0.3885721063167179
Ni 8.19928865910333 0.5019508307835576 4.050984684824893 0.4015312375805472 0.5307127163749312 1.352593095573477
Ni 5.061074304692992 7.7351135511501985 11.372257009867504 0.043481468222402536 -1.5725409437191562 0.7497655635101668
P 2.347227056373889 8.668599689608817 3.0213260955328463 0.1751862276592725 -0.2186903215894943 0.3129675323075255
P 3.576185212351719 7.013507228381952 7.592784987730214 -1.1507838660100373 0.4516219835893512 1.7556492544389828
P 6.733470591006647 6.228382981717994 10.12488960891303 -0.36149144804984196 -0.05657352551967031 0.1856858416390157
P 3.5311124296655447 7.1006338285263935 13.122156024245413 -0.9407388788003669 1.0042507833110834 -0.7744198717237373
P 5.320539639372034 5.6648765544368676 4.258078336129556 0.09077022600603722 -0.8041829619187827 -0.9924075108192522
P 5.786509558969806 8.86013830665993 5.122432011701538 -0.47572967527083226 0.28861944248046423 -0.5863349337249257
P 0.08101319555792805 6.619154895486473 6.7873269057568235 -0.4851201153467967 -0.5914514290158847 0.3989825030167645
P 3.9414339841171833 1.3799616423469105 0.5071070024929297 -0.09532544947688744 0.38686849336204987 0.2796987429520667
Ni 0.9329338887218054 3.5690980073959597 1.1387638085453957 -0.35657781279830847 -1.1561024500094734 -1.032910356029305
Ni 0.4146235799014074 2.6250731031265047 4.735067478809191 -0.24299444555249766 0.823930062638723 -0.28570046906145635
Ni 7.254849567531266 2.538397506933793 8.748575576077766 -0.6289106023036072 1.5238841019434013 -0.07119564630821933
Ni 8.370817427357272 5.764391957010467 1.2108084683774898 -0.6163386791758676 -1.0034295729613687 -0.06206874430628665
Ni 5.755592777870589 7.183259593315814 8.105350978871535 -0.19251032076001684 0.01739994064400229 0.250157281849524
Ni 5.413667353323171 4.925036786191529 11.546373068138411 1.356257688909258 -0.03084629595689526 -1.2299021095994431
Ni 5.833607257357626 3.7010304695204503 5.539218569738794 -0.3042255244488373 0.5627602317287792 0.06665507812538843
Ni 5.1632128935164525 0.9862628049733261 12.23032056093719 -0.2586961725584706 0.9955162316515628 -0.9729617433898147
Ni 7.35938123854758 3.821043541492072 13.233212525902166 -0.5844503151077032 -0.544006862380676 0.6727314561432994
Ni 1.281440289299572 4.03278529474824 7.166002709456653 0.1339434189594016 -1.7404545489764154 0.6568919180078816
Ni 0.6597893280619195 1.131624139864639 2.2989852806146387 0.6929308139093099 0.5779711351412626 -0.11053043935209997
Ni 0.07737571062479015 8.109805793415156 1.9972433877501488 -0.7633641281302078 -1.2974154219600689 0.4574990111954186
Ni 8.30583604165901 3.715784741655622 6.5258366553761356 -1.677599047102775 -0.2941529707041837 -0.5683505813323632
Ni 1.3872053180614334 4.0486900871684375 10.759410750267097 0.5091840982745359 -0.23705648280150785 0.4360920062745522
Ni 2.737271841322231 6.591413550373929 3.9981509525040484 0.6369409288072514 0.5507516373036772 -1.2121535273667705
Ni 5.4837570490869485 8.628681237799558 0.3462118029213111 1.054640548617545 -1.345428716614554 -0.7545545002583779
Ni 4.813279847785253 2.6112392472193533 7.667254023906915 0.7239144067750177 -0.21977892666798277 -0.4807659521431592
Ni 5.116915957247009 2.5453742619421904 9.991578363278965 -0.46986190363614566 1.3770777109784025 1.5006559846533962
Ni 6.057056705034218 2.0389888657720285 1.1725025857997236 -2.6215245511612397 0.7398310780052743 -0.5692211568627745
Ni 2.6083951610747693 6.398926904607954 10.707223150138322 -0.700253315712652 0.22928249528304387 1.2676291918365719
Ni 8.512690384744387 0.7007073518948087 9.671245903440912 0.543653078585683 -0.16975837177548184 1.6470756817029375
Ni 2.4681237279244104 5.197019781571653 12.705113590496769 -0.9705132818493223 -0.17151057857989815 0.5703894661392628
Ni 2.963270841950439 3.4809957660498156 9.06483887577174 -0.07501759115747081 -0.2313710023809564 -0.38350497620645563
Ni 7.254315726119014 6.278877015987211 12.462860039281713 0.2454321084597128 0.28614912656310076 -1.1171867467808825
P 6.347825395628243 4.330770048569949 7.59846947835447 -0.4994226480123979 -0.1889830243330487 0.17826692346712525
P 1.9028040806740825 3.782027097586274 3.1003880086873705 -0.5471112123376126 0.44805200684990576 -0.21606779636498274
P 7.677053695486651 8.003074327613872 0.3464446682270003 -0.2006118668212287 0.009438005484448262 0.7771593821420874
P 6.852305530206403 1.7673096077471515 11.036352027867567 2.1030554280403524 1.5407837059122174 1.2167966825657366
P 0.6455909873284718 0.38555591500428493 5.7482644238630884 -0.5899203370833389 0.3438428817301433 0.6527596410070629
P -0.02604317717184637 4.817532170758708 12.666679770063308 1.0203746854561395 0.260442465825616 -0.5417244941044025
P 8.97739933410977 6.16511357020385 3.1634199528146856 0.5480640631691851 1.1495186261443686 -0.08129133998132451
P 6.0308340466979065 4.288467718730116 1.4466209468288553 0.6265919814727596 -0.6257170350669741 0.3908143653836753
Ni 0.6462831403319433 0.06978687882475927 11.933199157537365 -0.6355910996475763 0.4184100156137568 0.34642709751755174
Ni 2.0695282762177563 8.703971285251654 0.8238572023715255 0.3295046107306003 0.7696954696648745 -1.057159972605289
Ni 5.897401306121742 0.2271734517351629 9.984438694598209 -1.1404164067327842 -0.8700685088679984 -2.3390091646959847
Ni 4.845034207651968 0.27690630178380665 7.377137908418555 -0.7263875509058586 -1.5415761199065259 0.08406298918919071
Ni 8.191989758415126 5.308555820083205 8.428768673905914 -0.0023954968153700683 -0.4064266179996355 -0.6392397521437572
Ni 2.596144421079813 8.574505538618258 5.7395490025999605 0.954742906388943 -0.7139863490280284 1.0221950264943298
Ni 4.011661742315164 7.494111766005252 1.7205441796176466 -2.361396531252249 -2.0118807675070447 0.6474148317553818
Ni 0.6762887093654188 7.70716051030521 4.5552531236706075 -0.8816438724104235 -0.35738411074968773 -0.11778172159787458
Ni 8.01457032630185 7.738758399413161 8.715490294345333 0.7647322121223282 -0.41993622245029616 0.6471327817385887
Ni 2.167571012826524 1.312301845425107 4.471758485961936 0.1938678632291758 -0.7437517532159191 -1.0453817490234385
Ni 7.374706168744124 8.879384209987842 11.766411453273957 -0.14586331032543912 -2.9387917392853837 -1.9198949239263514
Ni 3.384526941190964 8.174225725214326 9.549897307522432 0.4272823784027222 0.5407703577212493 -1.6122053521883137
Ni 1.7065161158863829 5.6813243924315975 1.5262084176495792 0.2648305675909826 1.2191962931461646 1.1946322306535555
Ni 7.33806439870662 4.77228450898921 3.4595178533689523 -0.5631088733174495 0.07020551448080813 0.290992313588015
Ni 4.678052295564448 0.2543487408674748 2.353112197735853 -0.07527907234897357 1.74823779246626 1.6781780595346967
Ni 4.340526460586968 1.5037392166911372 4.96064308797251 1.3537832592268362 -0.014945822676554903 0.6724198384401516
Ni 4.560386284974279 6.957297409336726 5.772283605749517 0.7044637542495739 1.1218275879870034 -0.8895597848233906
Ni 4.123483109857402 5.020677236445163 2.3380247349261376 -1.648366375489903 0.5826685406169321 0.01571946761778583
Ni 4.448150730129432 5.518392311747369 9.361489026062818 0.35101266000570513 0.14172589111829784 0.8891581785095978
Ni 2.3097385034066042 1.39148525352173 7.383334150465591 -0.36010125257053466 -0.6030404194050647 0.7370332035451629
Ni 7.936270517784129 2.62398701197744 2.2921014876452714 0.7007670221242769 0.1541011248541991 0.7255156898238666
Ni 4.112106765279066 4.825070379666198 7.204099657550659 0.09949989256955123 0.24616101620593733 -1.1447435733532283
Ni 6.797467131340928 5.984748806160908 6.1141832586425515 0.49117660595352175 -0.8729404310991546 0.20040077925168714
Ni 1.7257620192142962 1.53628513451395 10.097084755080752 0.028541816193434714 -0.738464793785367 -0.7079175171261292
P 3.128485554880159 2.895077203616384 6.353836634013447 0.7621978757362486 1.6276108881101066 -1.0545829559067321
P 6.9688762454852275 0.423398828219357 8.048313705637318 0.14355780212071403 -1.2629276725958445 -0.32143417501764
P 7.517775667227665 2.731813773090068 4.515728610006941 -0.5986564314047561 -0.07762340421143406 -0.32013679636245507
P 3.728173544084781 1.0706189522714256 9.255901637632965 -0.3425082220791198 0.5398691860632185 -0.30559823642664785
P 0.6835599975667825 1.5457562175002835 0.12026710685055586 0.14192489450298137 -0.24787697045577953 0.7486054817637945
P 0.45434414222164177 7.9202736837411285 10.322054730366032 0.7602896029699422 -0.01651548115651994 -0.8800521024432715
P 0.3100642963982532 2.987082009769335 9.150623509055727 -0.1137602591433073 -0.03568074123106113 -0.7442531183323698
P 3.660476930513857 4.056154662777686 11.096299657214786 -1.9919048386057499 -0.7471533226983004 -0.0358990278894543
