# total energy = -381167.4417693186 ev
CRYSTAL
PRIMVEC
9.24492999193338 0.00000000000000 0.00000000000000

0.00000000000000 9.24492999193338 0.00000000000000

0.00000000000000 0.00000000000000 13.53088953504747

PRIMCOORD
 96 1
Ni 6.633634873247055 2.2465180124383264 6.3841308509289965 0.8529387911662473 0.33186642609455747 -3.0057710335194106
Ni 0.8129806624600888 6.609302217244018 8.93611059854829 0.5777487347178114 0.14582320111612304 -0.6744031874187676
Ni 5.337144366957646 7.202845219032354 6.617552392858421 -0.3939994479798763 -0.033354921311361904 -2.2731513856609107
Ni 4.4675015279616135 2.434975912370653 12.645130326944152 -0.43307815914889286 1.515765843711641 0.41218228953649017
Ni 8.142167096134344 5.596631064789412 3.7419538673568096 0.4354322612033662 -1.455139745389152 0.11958123670045857
Ni 6.8529893295479765 8.336680425277153 13.532242385842666 -1.511039127659933 -0.9368703969838962 -0.8184538700155001
Ni 7.2004045574879765 4.267256342161555 5.589881341328995 2.2141044589000836 0.4953965575721404 0.3406020061953424
Ni 5.740047665311864 0.30237207954410644 4.804738087869947 1.1719679562868202 -0.6978002261864692 0.4718987315605163
Ni 6.138208314528711 9.212397183343851 2.6467633933909958 0.9368755391902187 -2.8778730494231404 1.8049190472083882
Ni 2.3500704744026137 1.551400963725465 11.642234763569183 0.03512615427917176 2.128895786142224 0.22330545176400254
Ni 4.4589869473465695 3.443838153627216 10.202101155970063 2.31042749640355 -0.47210287715152244 0.09976703018800884
Ni 8.532663698304642 6.9317283991444265 6.922768212898931 0.0008376654099469446 -0.12629978637121472 -1.372166389719714
Ni 7.677405970532289 4.002028542742448 11.654181986727513 0.12240842173660856 1.1297697256522157 -1.4115736878727432
Ni 8.211910848750948 4.801548586988091 7.956027824669176 0.4689085385839408 -0.955205190737342 0.30860179913966207
Ni 0.9862768770409794 3.340609264216161 12.779965783354895 0.9068275707649027 -0.047515014861827846 -0.11028901276525523
Ni 5.155564695014021 4.25209465681012 6.37304895322731 -2.379728239681902 0.43542454789388235 0.8488450807128478
Ni 3.3885164919546606 8.993172156064222 10.659066956518258 -0.4592830996790348 -0.7630833636649955 -1.0430883250035712
Ni 5.30067311774337 2.8869790344452815 4.278927141910124 0.19693441796964148 0.11862710031730538 -0.8188359359452672
Ni 4.467473793171337 5.475097213795526 8.945893583572003 0.31559545684867585 -0.16881451980497378 -1.152456111506138
Ni 2.659951286167717 2.9779121668335256 5.4137228963915165 -0.5762919476666268 1.1406521768926743 0.04251704742660419
Ni 2.4570435605010656 1.7869617824782575 0.7816717822093742 0.6154745314033593 1.2586516709283098 0.0010356403533659585
Ni 1.7491407734704996 9.301693963105754 8.153971022876243 1.691579163431951 0.7573935123690697 0.3827434154500827
Ni 3.2101725455433527 5.982995183208435 5.418241818220652 0.548105972150714 0.4053827501161535 0.8601381371281638
Ni 7.21737824913751 2.822467912260941 2.178581643654775 -0.6331549794022581 0.031061240181178763 0.6886113605983496
P 2.8829389999949293 1.860597650663736 7.215062394149379 -1.9301065743520307 -0.33178620767592537 1.5473500462758254
Ni 2.3962489002138456 4.198196714371784 1.1016415861842475 -0.12477846463068187 0.6348639916735647 -0.3632094591822132
P 3.930574478058761 -0.1021712694084914 2.047616114980685 -0.39682329058191657 0.49346848731149207 -0.21492699789232014
Ni -0.17165616398250977 7.812631562992928 0.27553312299303767 0.7628943875826409 -0.5229700963150348 0.894339465600221
P 5.890388718473478 5.748183203793122 4.892242275686944 -0.3519125461121552 0.4605380551320585 0.07405754123704665
P 6.499786775370174 4.3676747728245395 9.280986244191924 -0.5641918219689832 1.9489651018194305 1.5324165648944448
P 4.8255299356476185 1.2650207642550864 9.77085844891079 0.7842422571307978 -0.06334066904017478 0.5847290226903865
Ni 7.963453352519343 0.9559997309885698 3.6329764804143383 -1.8659953456944183 -0.4959205483964105 -0.21297347371037514
Ni 3.5237051046949306 0.22708044437909006 13.126992724231014 -0.08609493201755494 -1.4636544677283825 0.7011963963522118
Ni 7.682416722642337 6.243970314785067 10.010625710855596 0.7080779539633935 -0.41454796155518936 1.4019888723977854
Ni 0.8497791821996341 0.35281611609994384 12.703178318500937 0.4943287784292583 -0.28382870596004023 0.8714273368887379
Ni 7.732256140770135 5.683496427937027 13.317034280688159 0.4051122700635862 0.9949953261510865 -0.9536800123420672
Ni 2.3351676470937632 3.8271237103254903 10.374187209201866 -1.1416677626413823 1.5553238085099215 1.9276444859647832
Ni 6.712651290746274 2.051311313538593 10.6593914535645 0.1410975135056796 0.7041788760193034 0.07714826434722842
Ni 2.706573468623382 1.858304908000836 9.447037207059447 0.33206157282449905 -1.0461021721292305 -2.033269774705782
Ni 4.452533986142117 1.560701363398358 6.011110864605255 0.34161553506152137 -0.12366209163805154 0.315559718514734
Ni 6.484255292815044 6.560378047195361 8.259200515159279 0.2841482940829881 0.01252615749146875 -0.2654466039084267
Ni 3.6578120606143973 8.463456151633395 5.665045396458738 0.6316202879252864 0.7706609189019373 -0.17323450324954034
Ni 0.9693678999020918 6.090828047805474 2.2759224370900193 -1.8251502866535987 -0.13195287089193403 -0.5072035775093975
Ni 6.258531079680501 2.5268058029778544 8.45374805054343 -0.9915757589465762 -0.4368306842127896 0.6011192911229518
Ni 0.2842067164056699 2.824658960692825 6.583115952757469 -0.3399224636298146 -0.442507937103225 -1.1456866539927881
Ni 0.31622930525951304 7.511367026073884 4.552170295719289 1.8056749515378063 -0.15986245281800854 0.058667431934221546
Ni 2.2804838855975795 7.848751504863697 1.1438483900278111 0.5325263725449022 -0.4473801775938618 -2.320594666744539
Ni 1.2274401234297292 5.042619384075918 4.564117518877619 -0.8254992068980557 0.2982127425958541 -0.6111311668329992
Ni 5.47420045557657 0.5165863547136885 11.915964200701206 0.40598001738052014 -1.2510509757629165 -0.5639239130195772
Ni 1.1019309524961376 0.3709934976475004 1.8443145552920996 -0.5078016161047125 -0.17373175460093307 1.3649001950756043
Ni 3.0668946189722863 6.1766394889225635 10.702920282411267 -1.169327690450496 -0.4880424311999143 1.9331052519690386
Ni 1.7032212057018528 3.3225261809555464 3.164049589312675 0.5560892474665068 0.04294256499979701 -0.00883302491059769
Ni 7.320523934177735 6.7791500729004674 1.791516759534753 0.7338154679388136 1.8143997330053139 0.8935941027937642
Ni 0.995762175315719 5.669481113917042 13.122906465130201 0.6232071241609267 1.2344311078180483 -0.1829638147221623
Ni 5.045383618173527 7.379987324531657 10.321430091136925 -0.20547048046511066 0.07149029473050268 -2.6121695923089012
Ni 5.857143949861427 5.039762700677385 2.224545587087865 -0.7636919437832718 -1.0057142552304874 1.037943290467522
P 6.7606602127157895 7.519678218226897 11.418298519914497 0.8813301978247468 0.29687139807661134 2.8481950627427333
Ni -0.03591470442271774 2.4837614084679247 10.733175240631454 1.2413381193505266 -0.9022237534443042 0.766243506560532
P 3.0290920998247133 7.263695348900128 8.910740661388893 -0.16263204514334573 1.0486984721014971 -1.9784422853429413
Ni 3.186218931674103 1.389143195674827 3.6687654537878003 0.8552787521533335 -0.005253535089455468 -0.6013985129262676
P 8.304998049850708 2.476568852856085 12.907616080097872 -0.6440338310982908 -1.8019692205514448 0.8712915826418219
P 0.8031939794643389 3.8105105709495573 9.009881442713116 -1.658877816544188 0.1305570189856719 -1.5967057138908178
P 2.167778942841877 7.715957329017342 12.084979088156336 0.9400508515944069 -0.1287320499617912 2.3789003444639674
Ni 4.598002961145068 7.420184280573146 12.533121527424402 -0.35390592239310015 -0.19966698640945613 1.2320101570813813
Ni 0.338139789578356 2.550047557229994 1.6249517785540941 -0.6912544546481515 1.4448152235346925 -1.156757052874337
Ni 7.376446516306292 7.578309564872509 4.5241202533261236 -2.499030511689361 1.1099524338159723 0.3439755506532656
Ni 8.181707662139276 0.8359173340191813 0.9769015934343386 -1.1666077204161716 -0.10416850168981415 -0.47891450075671715
Ni 3.53607482115848 4.573328242728616 3.6403234263587203 1.4818198257834998 -1.6720459784950301 0.33236187767373726
Ni 2.8264432322006465 4.091417771805271 7.854262407691739 0.5188002812080614 -1.261313791141505 0.5762232992122206
Ni 6.908542114472841 8.791087229175789 9.725151514534266 0.03683696632269139 0.9125518748431897 -0.6269449939368041
Ni 0.7075561021521034 1.4962272209343872 4.049849792631089 1.2893215892083407 1.4572336518037032 0.3038051490819671
Ni 2.5542632453521 8.31117366315239 3.5718702659830064 -0.4478902844610609 -0.09944589940316421 0.32859623998371795
Ni 1.5111300482432373 9.387209566459887 5.546014148040848 0.3522205642708772 1.0269009166104313 0.8424160372580524
Ni 7.921231756787632 0.4104083326031776 11.812534696307146 0.5304296379168736 0.20035089985035817 0.2876264824395756
Ni 1.8271772283799315 7.518762970147756 6.728789240715461 -0.47387128190585487 -2.387126846138818 0.5913244165197171
Ni 5.603814375471159 0.908305136642194 0.9484475475961384 -1.6506145480941314 2.953965104591713 -3.649180343659825
Ni 6.415565462228967 3.8340666528248364 13.593943973771946 -0.8026973785121918 -1.415156520127995 0.7839653493203272
Ni 4.4485401763422265 5.300146156728107 0.14844769147870246 0.38570404074030346 -0.29401284558189367 0.6518589835696644
Ni 0.32347640595889743 5.255262021129802 10.798678343814704 0.8994155945715477 -1.3882640666125252 0.3512332606569435
Ni 8.343022447320497 0.17595782995447498 5.9574884210836725 1.5354692356778394 -0.37194581061394655 -1.4543609582415984
Ni 0.2540063032730268 7.642284481111494 11.252585921488352 -1.415438055924156 -0.8656091875450641 -0.049987644772036495
Ni 6.98083746779493 0.4917221152303434 7.527680629714825 -2.1466855060254773 -2.1060088542417215 1.5706622386392046
Ni 4.350146385369465 9.082265547364091 8.131645441196254 -0.02514564602769218 -0.17198160467904577 0.15222576220835718
Ni 8.902812209341704 8.683550202341705 8.295815985282998 -1.2160400069053703 -0.4647045278049223 0.8958057657331023
Ni 5.062227880801768 7.1599117636835325 1.4983433854325234 -0.3535526528187395 1.5193103665297898 -1.5912423767834014
Ni 1.127668837873209 5.0074701598648454 6.784590714259808 -0.6664852181232716 1.5159283374314345 0.3799648242636811
Ni 4.896947020610935 7.239917388702633 3.8030323469978646 0.2079546803395451 0.4997442930178748 1.1850810966300105
Ni 4.372944382977172 3.0509840942833715 1.719207538817525 0.6056634588502086 -0.16280842282020994 0.43215873265841703
P 3.1563208277554797 4.43230607910008 12.305099024668904 -0.5626237061509148 -0.782349410983459 0.14876582868421476
Ni 5.749015247501432 5.328176784768078 11.55313397632524 -0.31990025487161683 0.06550605212260976 -0.3407619288119744
P 0.6090772578224921 0.20916469435314672 10.222221821823027 0.055976258255303606 2.053394570480115 -0.655029410877846
Ni 8.761614392041412 1.861198571119738 8.620759561647548 -0.30945746227173804 -0.1376602056893565 -0.857683247829768
P 8.482038461118995 3.3120794099512034 4.258306325339162 1.4838659096792508 -1.1473465581937143 -0.5641242019558413
P 8.09806877959389 4.773222121185165 1.7109407223289559 0.5115178886140352 -0.8238711843763294 -0.5733400641271545
P 8.827077742025264 8.193541172657472 2.5195060061769436 -0.10388645167302107 0.20940015453682 0.6545403870565695
Ni 3.177953964171552 6.334339506437678 2.511427786262258 0.3904371845499147 -0.8662781885876306 -0.3068583340859941
