# total energy = -340865.69608489313 ev
CRYSTAL
PRIMVEC
9.22623270506991 0.00000000000000 0.00000000000000

0.00000000000000 9.22623270506991 0.00000000000000

0.00000000000000 0.00000000000000 13.50352416576768

PRIMCOORD
 96 1
Ni 4.072892735255185 1.0370931361903688 6.0108915097577444 -1.128902492555914 0.6031725741075548 -1.0739970987672858
Ni 7.877495850582077 7.339191305215445 7.1525603028152425 0.9886729834774844 0.29012508049171326 -0.8519052076954102
Ni -0.030985379812482623 0.692390934632441 5.582464937176009 -0.9067157277773868 -0.3388479996187132 0.10483647429111621
Ni 1.9850977696802452 8.351853377284966 10.039829549930554 -1.1234450689857685 0.9037239921389146 0.09046503606079259
Ni 0.7496221785327538 8.140923245891155 3.7929780621576064 -0.5093944145131292 -0.8147923620035128 0.9578002051580279
Ni 5.478776843892122 8.492848665009586 6.659560250371197 -0.7794119256216899 -1.0298736260855101 -2.7148427404001114
Ni 1.1576707710073457 3.7916956158159154 1.8458240969726019 -0.3812999981353369 2.235005727829125 1.5769118190933422
Ni 7.585254930631986 7.497993222000954 3.7774355505949253 0.9914896269906731 0.3559995716973353 0.12802653925433433
Ni 3.688186511445905 2.4995063724211244 7.935467038342848 -0.8814620954169207 1.098356758558573 0.33897809743867424
Ni 3.4327767123305652 3.7637770357442824 10.507861571512125 0.12479132014648832 0.289516757483753 -1.0157261309405345
Ni 0.0855382483675229 3.3491962705364733 13.477569975439751 0.9997472390137749 -0.7227982908927035 -2.217242233198117
Ni 7.289323517612281 2.4518528806597284 0.27217478650733046 -2.988166690174086 -1.2077906224123847 0.2450652120385973
Ni 4.564946176226876 4.9255996114549445 7.0881750380994815 1.2108980576931148 0.5921607963780834 1.3479080313929819
Ni 0.8274592904872589 3.3030927858643153 6.745699126485799 -0.2930707933835985 -0.8080802400906598 -0.05570474976147181
Ni 7.9543964999201675 6.616389785066114 9.453290260144062 -0.8725334254687231 0.2579099292117493 0.48784188515333404
Ni 2.987786284229134 5.609890836422849 12.352632032713352 2.0652594402385014 0.3553966480060137 1.7009896581125736
Ni 6.166647847137554 7.121295368152736 1.6468760739525605 -0.4613492381794441 0.8067280969381396 -0.33704565630265176
Ni 2.2646433934708634 5.600692282446835 3.5069593135228847 -1.2175667279625417 -1.0333461580151428 1.4949237101553092
Ni 4.589838551981424 2.354903627720958 0.3153314124634014 -0.9677742856516042 0.5945688915989438 0.4652966528629664
Ni 6.473134070336357 8.722618763523778 8.549932289187113 0.5214595732077794 -0.23219092717909046 4.008124085587149
Ni 4.533678473694567 0.9888122606071381 9.5315028797684 2.4688244204196255 -0.8508173739478702 2.0033755582495107
Ni 6.202906941546515 6.182913695341879 5.8073792694338575 1.8075667692438806 0.09849639100570133 0.7283888976066035
Ni 8.759357622031791 2.23007269964125 2.5366096671197607 -2.452972026768401 -0.4586405809990295 -1.3227978665889155
Ni 5.074926187284218 1.9651875595696755 11.558854949849197 0.9769258702438853 -0.464634079578303 -0.0205611119808033
P 2.597664261840194 9.18646761121094 2.769235284646568 -0.46408643460494914 -0.2323048270491354 0.030035884240457947
P 1.943773473533238 1.5660607340908768 5.9704483188311075 0.7436252549403838 0.1871192316514326 0.2555594267017018
P 7.872264576655899 1.853227226070248 11.799608878361829 0.5811521039724056 0.7293579463880923 1.4330711956248867
P 2.5827362173736037 1.5678967543930098 9.715664019681766 0.008811684754359018 0.5510925655828638 0.5472716491748768
P 2.471200290577182 3.151764117544776 0.44370521388993883 1.2329154425044702 1.0089201637622947 -4.053622070018949
P 2.5021358487332246 5.9613826226055995 10.353800093074536 -1.4228677727293235 -1.1902202176287888 -0.6933133940597092
P 0.30984733976195444 7.949137547295967 8.72956888459713 -0.1455673763515751 -0.4157388965394969 -0.9268058136590425
P 8.425866215796084 7.42565955783651 1.5788455247072883 -0.21123437953208135 0.35062622320056386 -0.8064920696679336
Ni 1.5496103612330703 7.399401699646205 12.777763917607189 1.124637803742289 0.7833408283624509 1.5211649032400252
Ni 0.2117401946225922 5.513439800048476 7.850152064806037 0.2097333695065227 0.921987823445109 1.8352943170661358
Ni 3.0020500399431933 3.7717392745419756 5.933596900284472 1.829069419202347 -3.0388102233625665 -1.9200571605358285
Ni 0.7083707696238712 9.012248659627117 1.738754589413681 -1.2651395926454987 -1.7226080077132977 -1.1009489447657814
Ni 7.048491166121918 1.7103682393454742 9.990312359169003 -1.459389007583809 -0.29560230155620054 -1.8726293060711685
Ni 8.325337184579787 3.8052950827774445 10.711117322567672 -1.3398543078505698 0.6468576737003311 -0.0029593397386400645
Ni 8.807324805704104 5.65878986959524 2.6933458304095517 0.2768759287912909 -0.3633968926026709 -0.3716915285112954
Ni 5.4974876437550675 2.313726951296735 4.820555261967975 0.43432977216780677 2.614580258632923 1.146804055426683
Ni 3.45891462949611 8.632266266946942 0.8053393976512575 -0.23597096304681295 -0.35706297996484315 0.2816316983087214
Ni 8.466470865794516 8.762393052581547 10.505228404706955 0.15072372374153398 1.1832170468380783 0.0697655987299121
Ni 7.382416205293303 0.2200318099267484 1.1843225893328335 -0.04144258341550282 -0.3171617728945312 1.5209489305744774
Ni 6.956893128134087 4.7560583598368575 8.512851137446896 0.08522409937682741 -1.361123244531675 -0.6386111174208227
Ni 1.7278980814261429 5.4100690891685765 5.969192628564171 0.12657952239516265 2.4853131621032682 -0.34114065230763185
Ni 5.412993804926246 8.896966882365037 13.003961618829996 0.9441008532940642 1.6201634306931256 0.7071271600143498
Ni 1.2854356410773966 1.871845763606453 3.823684809743333 1.7501722904848118 -1.519834614464376 1.5707583978974369
Ni 3.478751029745287 9.186015525809912 7.933631018040716 -0.3375812170911477 -1.1037565894179056 0.32733999897911364
Ni 0.5828174275257868 2.1098364354332126 10.564252305615833 -0.07573544316010182 -1.760868593856393 0.08085476666453817
Ni 2.5394744123650486 2.066417784469199 11.93606209174102 -0.7510665417097775 1.4051284464680316 1.1177649878818556
Ni 3.801318576494935 1.7426692799372745 3.00789670358873 -0.3418603040824758 1.241548949809752 -0.11932849725970417
Ni 7.943869368439093 2.455644862288757 7.777084915144009 0.6816457279137937 0.284198173484317 -0.08271238869856723
Ni 3.515775901466194 9.36296544226525 12.03030344538996 -1.3007766251228177 -1.763521458098208 -1.6620384736603568
Ni 1.1837348783114974 1.213065071982258 8.182622127084727 -0.8302786305645701 0.5843410432233486 0.22220630516255277
Ni 8.075915210469896 2.7435586791147255 5.169243196041085 -1.0187991134389034 -0.27432668000687593 -0.300615695610392
Ni 1.7505208039428792 6.163658547751166 1.3662325284737324 0.07159750973232831 0.9994675029898272 -1.0671163124870526
P 5.728577093541649 6.587447093167663 8.722304148989593 -0.4365270369294417 0.6709525098660059 -0.8106546856860555
P 5.310647205873164 0.7530607954503671 1.4151555498510757 0.15031800366268303 -0.419737990396561 1.3303293990792702
P 9.577659876590067 7.033941397194963 5.613374661880565 -0.5502042494406396 0.8613005328673813 -0.374074169810859
P 6.869243917730746 4.1157578122587575 6.446501627099484 -1.275446116777829 -1.031754645158307 -0.815244361939267
P 7.3988942568491325 0.36178733922370765 6.822534269571904 0.9311728323784866 0.7460338643818764 -0.4914679119416955
P 7.440670638397167 5.516106181291272 11.533791888790178 1.2872127703954541 1.5862716630416873 1.2451546648831395
P 0.39950510101843434 3.6806025481878475 9.016694781152736 -0.04335831238097694 -0.5050196824842011 -1.3262493154726254
P 4.127798045898374 6.122814015703208 0.7873131842527259 -0.6728888076567702 3.227196494651881 -0.6691481096674153
Ni 5.857615183720716 6.8095963234931025 12.313606913748714 -1.869578949280619 -1.9415091597620175 0.4572295595841158
Ni 1.8494352444412194 1.622709802709458 1.5404007357778475 0.11676639295948277 -0.828392983506083 -0.2969811841815982
Ni 2.721849353632719 6.678565367056443 8.220243013436377 -0.7298927358456397 0.3542892738744479 0.9794679199394487
Ni 2.8878477319039755 8.56429661083732 4.822972534928572 -0.00479202207200465 0.4565932115516975 -0.3780254411491231
Ni 5.835416867906986 3.1327119470728917 2.555204216451013 0.25587078729453355 -0.6869637976925975 -0.6525912337499987
Ni 2.3256564701442635 4.403708534015421 8.280631474157746 0.18694928173247158 -0.06672886878611733 0.8011359475623429
Ni 5.738735175715763 1.577981026705731 7.524919982060127 1.088553399314906 0.6309278898439521 0.028195231487293373
Ni 8.657546144473802 5.619726000453371 -0.08082179822455568 -0.02843537252255748 1.1081668026704592 0.6208417092525437
Ni 1.2880189862261266 4.337796327792108 11.673972500169679 -0.49017387572062027 0.0478284323371886 -0.45367758056679935
Ni 3.4792307938443368 4.428951506611584 1.818829985414907 0.48279198143425234 -1.0513611065353248 0.23788077847501607
Ni 7.557751531030685 8.112358829532338 12.746138237247127 2.6376134863033025 -0.10408262684422721 0.18126560108413298
Ni 4.253892967854425 5.922558635513256 4.807537970288178 -1.8798157965172788 0.19353567670073768 0.37264875021824206
Ni 0.48233360484959287 3.971810130078447 3.958369354318911 0.1818908933729577 0.7055022228164172 2.3747492984100713
Ni 6.44141428240302 5.25876809954706 3.513738749291767 -0.18799006429216011 0.16230860036565598 -0.14219331767301963
Ni 5.520848464885727 0.4056350100070639 3.707838387041602 1.6012889623861262 -1.4574830488103478 -0.6904309303055916
Ni 9.246530385918915 0.9234259496462446 13.344857999409882 -0.9215165402356451 1.1712385343199634 0.4502976083509729
Ni 4.023919892221403 7.36441582534626 10.369140550141656 2.7979855317678783 0.580047300944001 -0.2038118618157651
Ni 5.693600445474378 4.77407719224925 0.8421778994721485 2.1495754259787625 -0.5080949789754153 -0.01837361741118126
Ni 4.978207590162298 4.126967684957711 12.26048411125815 -0.26249446325863823 0.35345597933987516 1.0325719988532798
Ni 1.552553529456088 8.644241916957842 6.836010105015601 -1.1487007582287636 -2.3015466489741523 -0.5647124703591435
Ni 5.687151308835227 5.27675925326143 10.500488888982302 -0.8975163206663059 0.7016715362164174 -1.1114444449804664
Ni 0.07033987528358333 6.6865829632501805 11.369940454862169 0.12735779532208388 -0.7035558977233238 -1.1360200774373015
Ni 3.6734245391674474 7.307111694207821 2.882543570739672 1.0732548212846225 -0.2976735822629325 -0.9878435455976534
Ni 8.673830445143476 5.072822606234538 5.852575815434158 -1.7050823401247088 0.3276302765260229 -2.089638640413814
P 5.546847988561161 7.563785487199504 4.153279055297527 -0.852604804865596 -1.2547811322293099 0.07964891928189509
P 5.390334177478813 3.4460532611485033 9.410632773375657 -0.4807664663637914 -2.477075347574508 -0.5071655251826104
P 7.910765645604651 0.5620491777765316 3.737653880551017 0.26692627377774675 0.6320977417823371 0.032552480014724584
P 7.850822811921439 4.1497749321279285 1.3662463678227432 -0.2862000344056942 0.6142607136009163 1.9771914436549756
P 1.0116564127080512 9.241271433294715 11.89776584515763 1.6229484496374307 -0.8442546331286881 -1.8578238656272197
P 3.5071032427525997 7.401662126651343 6.480881337912745 0.8256591295146878 -0.38976766928671586 -0.529790718781294
P 4.133269201874077 4.035849411068931 3.8130580349493783 0.8439293885787853 -1.2185820566009335 1.0362227082319897
P 6.074357841699172 8.698768952061394 10.852404159244792 -0.10519540029243173 0.5567842166510024 0.09335315624186503
