# total energy = -340891.51310098585 ev
CRYSTAL
PRIMVEC
9.05829169975948 0.00000000000000 0.00000000000000
0.00000000000000 9.05829169975948 0.00000000000000
0.00000000000000 0.00000000000000 13.25772552875227
PRIMCOORD
 96 1
Ni 6.404673998078351 1.8107433941000923 11.418560579152903 0.024199222954022843 0.3617799258245382 -0.15341978251645835
Ni 4.643280175567198 0.25393108303097006 5.91199081092823 -0.23013610153259076 -0.9662334235270458 0.44882076669513027
Ni 2.9212446292223335 1.6867625596034317 4.876549295897293 -0.3996545893831246 -0.919514679314268 0.002724340909698534
Ni 3.496409900443197 4.2492082661683 4.834469003163002 0.0496009508565791 -0.025555479871601148 0.33140465596679053
Ni 5.168316862138065 4.2716365956936695 2.771235700194899 0.7649546125457793 0.7486764442110461 -0.19266175873621658
Ni 7.387326508272861 5.952475032716491 2.6891304410467156 0.30892832924114544 -0.319664741822043 -1.064445964743741
Ni 4.975864402890892 4.8520828508052 11.507426947007763 0.41640378381700544 -0.9769029874257498 -0.5236087583402982
Ni 5.668561005126161 8.102668839027285 12.629282750409509 -1.1989889649603545 -0.7602145267576327 -0.21058131932911472
Ni 1.799574520794446 6.499930990521318 0.585758037192983 0.3794380052259336 -0.4373791005170919 -2.0160608670266633
Ni 2.5540849035955966 1.7421087201042424 0.39654663461147166 0.27485684147873307 -0.7204814698340688 0.15742787523458693
Ni 0.7314226096613035 9.054695265972489 4.628311349016038 -0.020346681977152052 0.22624165157419102 0.43401712602339443
Ni 8.380613452579963 2.339185998240239 1.4827046174047633 1.561087707576892 0.8817464594265589 -0.7648602530597601
Ni 6.925263063568057 0.48421096719653645 4.829285848819538 -0.9819570049098895 0.7062648120140547 -0.7352285462362564
Ni 0.8828120222992657 7.394817715266996 2.596909787883597 -0.5385556094581176 0.25650405000315823 0.4210906477697135
Ni 7.494187172009041 3.8005329761640185 3.993160260435359 0.325992998032916 -0.49122931356832816 -1.4383113609779035
Ni 7.638476695841678 3.8925652168658575 12.32395673358975 0.3247529549782278 -1.243016021273582 0.6218585805528323
Ni 8.034006990157211 8.880966295064953 6.8643061973693404 -0.600925944165223 0.5621223410344642 0.5673866747571971
Ni 7.001180603855666 0.7167690116511297 0.3883543158623827 -0.8814880635588496 -0.32987896335088346 0.7779559099014537
Ni 2.0503170852499193 6.493227854879649 9.121089824503224 -1.720513072857482 -0.11976687034870344 0.8106171475799007
Ni 0.23903744029849333 4.720647042480033 1.364339017751712 -0.6708560934974576 0.6218053587173936 1.898295086268389
Ni 6.526018869775382 1.8308528010251004 7.098411397996362 -0.39806539051913375 0.38789102108929324 0.16381243860469205
Ni 3.6048648234671266 4.410228454230888 0.5612535472769776 -0.24272962192688516 0.0037571530495870776 -0.26544737523937506
Ni 6.110922666019303 5.532922149587841 5.0058256075508725 -0.6246597974470532 0.7802750449529336 -1.082496651597865
Ni 5.205564556406368 2.7449521618464288 9.255535703063158 0.340291159823143 0.10143259081588983 0.4440097184597321
P 8.989194760803692 5.59590444974531 12.667491529396164 1.2288477001929998 -0.2728305550773237 -1.792499333387797
P 3.848025598014387 6.416431660325496 12.494345006626139 -0.05245873202034836 -0.415976980692232 1.0241722048253588
P 2.1912912744273525 8.5231275512967 1.2488720713491124 1.21820307599496 0.935754281101582 1.1154317117629886
P 6.422210850243585 7.711821681369512 5.838330596859409 -1.2242379693351304 -0.015451301558063712 0.3451952819929797
P 4.744905146869751 1.3975131983739901 12.880595987223664 -0.5307808506087053 -1.377616357090692 -0.9923298635037814
P 4.092083143411006 6.099472985680019 8.153235844981413 -1.3383257870211855 0.45995621448665946 0.18671582556542682
P 4.677991548241357 0.930141594904296 3.638171255143956 0.6050780186603837 -0.9103774928996903 0.6003484743951983
P 0.2522870031404796 5.521128254175066 3.625881871191182 0.5724082963415046 -0.6074699159313279 0.5894310561517461
Ni 1.70772344592076 1.1976329401725352 2.7359971349608148 -0.8528369754810602 -1.2043204044755969 -0.9394304444015885
Ni 1.9345521210600076 6.598122869380368 4.691696743141148 -0.6248739703403883 -0.6277443499096479 0.9283716154842656
Ni 6.1157597936309935 5.832380205233717 9.216651175537487 -0.6637441650430247 -0.6973338280730119 -0.2598313146041783
Ni 8.601708229258161 2.425819497263112 10.28450778637074 -0.8408728611406486 -0.6700945327410847 -0.9102034292156711
Ni 2.2806060277068934 5.460600750989072 6.974663361588878 0.1669988067524737 -0.9126400636816218 -0.3575067523704811
Ni 0.36428190644652275 0.05141576785902648 9.198275525587906 0.46743015426620144 0.7969370789896468 0.24474845212912688
Ni 1.4197784786540215 1.408564313891337 11.346584301456765 0.14436384296177718 -0.09307701976234292 0.6380531880348237
Ni 4.104393361434018 6.833756203767861 1.3505115359179172 0.6331896892949352 0.3993262595094284 0.4051544361554313
Ni 5.386984016719008 7.885405719614527 8.10972434220471 0.727025955820806 -0.04656653490562949 -1.025336400336789
Ni 5.371820436902584 2.4817363301226054 5.095553418918602 -0.4298809923678338 0.971252988228824 -0.6745996197002898
Ni 0.7498046004148705 7.545520509416257 7.090947365876449 0.7194774540495866 -0.9243285557631437 -0.015418905658231508
Ni 5.242603909972295 4.573214291528938 7.259571989575768 0.5200410955936979 -0.6269377948479525 -0.49497438243305725
Ni 7.965136800584761 7.38078642187653 9.115441979810548 0.11252432985367718 -0.6678643578589852 0.0988943977750684
Ni 4.615054539540926 0.3018494445774985 10.584981276483417 -0.39258714101338194 0.3826395428823668 -0.17485866911652465
Ni 8.228615322759406 7.248317968330889 4.551959916570001 0.6075861297942182 -0.468760957262483 1.1469053568912377
Ni 7.461423331987531 6.250556228068402 6.927572022047869 -0.2071751218610432 -0.7358808351082746 0.30685884830662635
Ni 2.4537552679643397 5.308810961870892 2.658982635583737 -0.8667121908012557 -0.9422391174949772 -0.2679889107143062
Ni 2.34104294797881 5.186524027867463 11.385362846972964 -0.2258189622144756 0.8982393148752595 0.3278493345153644
Ni 0.8304596271086869 3.2086370407132043 3.70345254966069 0.9167445727682985 1.0804019738523651 0.18469622403223676
Ni 3.6660264070516555 2.513820798288542 2.6295640225790753 0.56814823551357 0.900887551131384 -0.4186848665416983
Ni 1.076931207165448 3.6968970641689656 8.255996726026485 -0.1746519524223573 -0.8085836620896398 -0.6764227889519576
Ni 3.5993664405826755 2.924967586990882 7.3036804337562335 -0.3774826812717757 -0.9369107633035284 -0.7603829340146969
Ni 4.124711109061402 6.601619369863725 5.875611806805921 0.339353478500222 1.2659926846744134 0.18618566409356968
Ni 0.4711643100820818 7.1777448199738 11.20204839209784 1.8279273351781036 -0.7503905986886754 -0.5150313010839324
P 0.06863376816670914 5.667890691561994 8.119548059236319 1.3945807528591723 0.16565257713722437 0.40067686000005187
P 8.664291964593694 1.7723271802402008 7.999803787631022 -1.4397372947911526 -0.29648907503652805 0.828701001664805
P 1.62839998806387 3.395283135168066 10.348344283407952 0.7226034012730781 -0.702304798925042 0.6441973532593487
P 4.20222290863676 6.067922956707134 3.6046166262825565 0.6165649362540608 0.08684826524381171 0.8911826651387943
P 6.735011769132946 4.00023206853732 10.204020338067966 -0.07129360533866431 -0.8401184994731273 0.9690459532751761
P 6.127327231758577 7.752701750492288 10.330989502900014 0.8884038168420764 0.41894300529909134 0.7131060033056041
P 2.426471694244464 8.360630861734663 5.88030490758423 0.5654969139336519 0.5140478541247405 -0.11126937440065353
P 7.09207149984014 4.214641826156664 1.4655753883528757 -0.095294596238952 -1.4318944017079662 0.8787848056950737
Ni 5.733880344466807 3.1585175143546143 0.1967007979173658 -1.0891416677182082 0.31196814450873367 0.2081608828130802
Ni 1.377883880893588 1.0587512163102717 7.026766653765746 0.9198064995230739 0.32177536040714255 -0.3059671897302924
Ni 6.672808482036535 0.5527894797856588 9.154114543317277 1.0443767047976917 0.5069492954067463 0.6301534735717729
Ni 2.8489956969548267 1.5849745390555414 9.347319746580427 -0.5221090338663201 0.7557405501466791 -0.371744750346734
Ni 6.275692986724662 1.9067069332728566 2.3495468719523225 -0.5567083691077445 0.2623738785203739 1.6205167002674867
Ni 4.034472410058281 6.878395463824816 10.362092052277362 0.09701697824669743 0.824159919261342 -0.03137774298033306
Ni 8.499865858961824 7.331219451293807 0.43722108051929326 -1.696055968256382 -0.7335177341927367 1.3892218025401042
Ni 7.637570866700912 3.9024931042486544 8.051403438805623 0.261722103868988 -0.18683075387673628 0.5206602172349356
Ni 3.098008127751436 8.630749111511124 12.416708202629355 -0.25680358352144805 -0.3479869858055039 0.027039777726611494
Ni 8.802639249262905 4.7371331328419775 10.335390926694998 1.8450650232996546 1.4763503180284963 -0.9825663563591143
Ni 8.519703517144604 2.0514765465501 5.660783556123544 0.8012454765570136 1.1295090157916612 0.8167775107543417
Ni 3.47722443924177 2.852012107993578 11.737594508359875 0.619414489887714 0.08753526400850731 -0.934870592945048
Ni 1.1086352270922626 3.6391776313193476 12.72614306043163 -0.12128356410354596 -0.9711061782383147 -0.34699171177177013
Ni 3.0806252665401344 8.398902142932032 8.124187716095324 -0.5980087705184282 0.39021529834709573 -0.4938189286723753
Ni 6.023111589113433 7.588474927271388 3.5942620933744585 -2.8062223178553736 0.5667518693866754 0.2277002383975885
Ni 3.226056135090137 8.076200511534097 3.34194066872663 0.4738648541479517 1.1606098509615237 0.39201147101557005
Ni 3.368461534309981 4.257324495269565 9.289634735238156 0.3249460448256404 0.6969656461003159 0.1775668120763071
Ni 7.17658535867362 6.046001891500594 11.434204248413932 -0.47740397764946174 1.5218511306737725 0.1240086763441929
Ni 0.5842362442364959 0.1003993844750959 -0.03601938995342451 1.3433726054164734 0.22249195472377165 0.6267007391364819
Ni 4.517478624497597 0.28166123051724373 1.4940791139253637 -0.1791632100291495 -0.3747801947389481 -0.1552288107007391
Ni 6.082198823965609 5.718445015908152 0.35830162245918473 -0.27824786943815305 0.847801727049998 -0.05675298852032806
Ni 7.883168321636834 8.552557940080192 11.692677158756704 -1.2308297636200352 1.4758864910182001 -1.5239710052302529
Ni 0.22794375081153048 4.637917667053863 5.790006423857817 -0.4683236126147483 0.10985192522783661 0.1016184815744508
Ni 7.899690645164408 8.763326264553655 2.6596321150776663 1.9678673380405722 1.5987147739010465 0.197841246054627
P 8.331852669932523 1.675095480270364 3.5773321467335397 0.35134767474762074 -0.7499267716783794 -0.8520813282619584
P 1.8973950097057808 3.328632226990494 1.6747159378603829 -0.18505515003355227 -0.15919859398176453 -0.19648164670293902
P 4.593378048202392 1.0045464005268263 8.113330448014102 0.7596985063531626 -0.0707899262293684 -0.27307146744353616
P 8.464040316444525 1.610337754996993 12.428627102463556 -0.12649390465989183 1.7295127052529309 -1.2069915235498567
P 6.55864683542578 7.805022441662939 1.4898896541493205 -2.058978492325796 -1.1893488707674291 -2.211727988248107
P 1.847800864248835 3.0872649941419503 6.047153200338507 -0.7424371481695536 1.311312234546819 -0.24128106240581673
P 6.897743974271582 3.863162002956589 5.993101469679851 0.42742430329722514 -0.6473292140201109 0.9287549669656133
P 2.208800951718362 8.73208421748863 10.275916902799715 0.7402349983119123 -1.4988490133516443 0.2959560853511935
