# total energy = -340860.9080880216 ev
CRYSTAL
PRIMVEC
9.31808889697293 0.00000000000000 0.00000000000000
0.00000000000000 9.31808889697293 0.00000000000000
0.00000000000000 0.00000000000000 13.63796498758234
PRIMCOORD
 96 1
Ni 6.5271069173529135 6.151420211445603 3.1028276078690253 -1.111579427896434 -1.2551883949700575 1.1341668262786468
Ni 2.727507102853182 1.3163105020906352 12.448679694965627 -0.7436321969189192 0.2535961323277439 -0.3754054870277728
Ni 8.21135147543482 1.167798802136503 1.898500033856491 -1.184623440267302 -0.17094133633998948 -1.1576296852872774
Ni 1.074021556036717 3.7585070427091845 11.529275982500806 -1.191316278906445 -1.1637635660991572 0.8353359904828195
Ni 5.739700455988624 0.6355011134541214 2.499443151224536 -0.1511294438203849 -0.19530356723443784 0.7888123929999834
Ni 7.811568191783665 1.7827088028689124 7.948573915636444 -0.5301211055375192 -0.2679583145866869 1.5059974514709678
Ni 0.3355769924895309 7.416117819443759 4.1617613144537575 -1.0939786840955352 0.19825776476675533 2.2222808240632888
Ni 8.92817341382555 0.8684281756490914 10.130321486858083 -0.684323531856273 1.5981825555466604 1.5646851951201632
Ni 4.053117057607528 0.4292768984519332 14.218124198368816 0.27297350841309115 -1.6195707914144495 -1.083525092862379
Ni 0.5111903538388567 6.866285351179642 13.453593645110146 -0.6816495845685356 -0.7754238875082193 -0.28077526384569707
Ni 2.0151019385732707 8.992654588607994 4.996145852520817 -0.22229346555972038 -1.6943374429033788 -1.1693544299233731
Ni 4.0367172212466755 5.796894885297098 1.1943274010679508 1.2262819963483524 0.5610756449375047 -0.40611320052427474
Ni 7.867392862032454 8.398207110971285 0.3274721188152867 -0.7872185661503024 0.25401136548829156 1.1189402391368792
Ni 7.829123471160851 1.4758734554106605 12.25573002932689 -2.334615406503663 0.945026193321811 0.9922689283588588
Ni 0.7032296421977913 5.223618105508035 5.18284960320917 2.378822954258813 1.1643284374636915 2.395644653801842
Ni 1.1215344910389833 9.047538131883803 13.523446698109655 1.1176161210088171 1.2928375727813994 0.8116486741682087
Ni 6.0244798871592975 9.249582252231743 11.190850450252462 -0.2040183213996164 -0.07500010765597406 2.019513087241322
Ni 9.683171562199473 5.478766014163077 3.040543638435382 -1.661472316744242 -2.433849704116654 -2.290869885986597
Ni 6.4347832931123845 2.4125557000140763 4.1051772199643946 0.6864045827550179 0.3793485308359209 -2.8364883158287664
Ni 4.048215742876955 3.8868171260551754 7.9742955680742265 0.39930440513255744 -1.1907776327941557 -0.943160600867982
Ni 0.39935651518221815 6.402831566475245 8.010203755233421 1.9887544659022265 -1.3064178825689952 -2.35560794959493
Ni 4.682870773864279 2.338439621369631 5.498186774926309 -0.5904821231240798 0.5762796063714527 0.7907798011389994
Ni 2.338346440481217 0.5066226266888055 9.832317824003704 -0.9481680813849026 -0.3436737031421307 2.615620526971979
Ni 0.3096074788885667 8.154436588791587 9.30517024302396 -1.1565991871402337 0.7558781041658079 0.4963442661973903
P 7.470200007079208 3.9649865733456267 12.535813143721498 0.35993901596105754 -0.5766716996035488 -0.4402535938514095
P 2.1308512381610627 1.0362460238737072 1.6163855760944563 -0.4243124971411209 1.5658337069023098 -1.1865360839089822
P 5.385463990594202 1.9741303019376626 7.414347382563894 1.261967365565104 0.2937706476641005 1.9080454807869334
P 4.078732483832519 8.523516769710348 8.74901358786319 -0.32860780994794375 -0.8218559537185135 -0.5330642473262432
P 0.6807842297966421 1.4161724602038512 8.495593252879344 0.9052370863493314 0.5870340166744793 -1.6310196566813393
P 0.531123609488366 4.903318119673969 0.7859733393004829 0.5978123382369058 -0.11322469835481144 0.03224626162821543
P 6.6710247995082375 5.487320019719476 6.53452132064401 0.1142665093557645 -0.5975688547675322 0.12962807941349935
P 0.36212609121642975 4.938260952829196 9.346015153651324 0.9318729437693047 -2.1692063128358128 1.8867544326186407
Ni 1.9967080312003596 4.24983123113819 7.21561584279907 -1.6176756312742657 0.43351730356884044 0.1077150813904919
Ni 6.293986970718927 7.186958060567364 5.111672449785301 -0.570683600340914 0.8751587789067121 1.4648230341151869
Ni 2.4860567847949895 3.5955802593174164 5.073827963764864 1.7135399839737586 -0.008796515245707431 -0.8956337589316125
Ni 8.288235026465157 3.6056158409995973 10.180358692127482 -0.635410351095338 -0.5095157705823419 0.4113160848814529
Ni 1.8794864735756271 8.982824004880325 7.634709933765128 -0.8097756255152118 -0.2610289344567053 -1.590049899137197
Ni 5.906531518604937 7.126614117230499 10.220318384314917 -0.1753646622186657 -0.41252964557357985 0.10580398041070811
Ni 6.036453631320488 5.286794747852684 -0.10262383964580503 -0.03549896423755822 1.5055583070510201 -1.4773162814861913
Ni 9.120088771602894 0.6475848110636407 3.9014260257407125 -0.6834596411940811 -0.11481929653544097 1.6906196277321595
Ni 6.4709281597281505 3.143550451532568 0.9552764908864169 1.2087308748384669 -0.12950980866808018 0.9373414230830437
Ni 2.996156922239403 8.712152160215522 2.480732428831017 0.36863011597715223 -0.6964226291126522 0.7814883485347445
Ni 3.31893551970528 5.773469209949834 6.313872704115344 -1.0058664645376354 1.2115380052699587 -0.8561153891220159
Ni 6.951070641547483 2.995560564553554 6.193613449528318 -0.14543470742845277 1.0100625048968541 1.0021411931672484
Ni 8.74061892162598 8.50667898317395 11.892851036532074 0.38425445277797043 -0.821119075552489 -1.7763196383041406
Ni 4.89958156604857 5.127744289418936 4.924314569260281 1.2714981878736749 -1.213280184772046 -0.4364262496855194
Ni 2.3569453458086387 5.5065525550881125 10.819734266921856 -1.9297481625713475 1.323364794835979 -3.0307642131296384
Ni 1.1895658576699986 2.3902575134166213 3.0013210070753034 1.3826935145032833 -0.03740672278323235 -0.7131895641583459
Ni 2.4426810812383017 5.383274239716474 13.079954123321292 -1.0075459091225876 0.19962559164855942 0.5379511431048993
Ni 5.515143832999878 7.714604159300122 1.4287406984331228 0.6616170913976929 0.29835929547604745 -0.7576688775176434
Ni 4.216584290152097 6.96408801165891 3.34449224197057 -0.11434004290617727 -0.42353088178008996 1.2843945842203686
Ni 3.1345584958006234 4.1200395716664175 2.481686601128376 -0.6496792023095262 0.6751477788942759 1.9133072434065046
Ni 7.965913015352509 4.694220206073095 4.852565285181551 -2.1490357514252088 -0.07541148416177981 -0.7620667494750231
Ni 6.184303746966881 8.593784477663297 7.413175166987646 0.1955812463758567 0.6013098098672031 0.7182106715220211
Ni 2.64799585076957 6.757645753377834 8.37688825551106 0.9307807391463906 0.10826195503289743 0.7707246822603371
Ni 5.034386357317013 6.37685273478544 7.942655065604391 0.5236293271655885 0.4238538123371475 -0.3693302273679704
P 5.342293284992025 4.241761766201543 2.9479684257961356 0.1580850492026116 -1.0010536165300241 -0.8078480694751957
P 1.6004003946870453 7.647187786532639 10.82520305326287 -3.0134468048971135 -1.1524070034357572 0.22205409585540467
P 4.335753328344682 5.095363930695093 9.621884628271859 0.09097077205261753 0.8223760878880418 0.9781592284303542
P 7.476564261757879 9.005485596942593 5.423914152389329 0.04180793717472155 0.27217029578550544 -0.6879400455629379
P 4.737167277543079 8.982078557773013 4.317738667187615 -0.46376658937168513 0.2509257845844323 -0.9108804006780378
P 6.2188179480354036 0.8447835252140548 0.3561830141533888 1.2271482010033898 -0.23297562786391487 0.6232189512354686
P 7.276681938021143 8.949195022251734 9.517444693110866 0.07409970732889173 -0.6640113026614822 -1.7186608501400917
P 3.076963388671969 7.533898462398975 13.5851725140217 -0.11369675289522353 -0.08707143699821132 0.4662078518233261
Ni 3.4012142441747857 3.477902115339456 11.44916744092246 0.3183426805765098 -1.16247364364314 -1.3415527785989154
Ni 1.9196008460378269 6.555135728587826 1.8015751373460824 0.8332482547158553 0.4681793737274002 -0.24692514806547153
Ni 9.062260712253206 4.049296641182557 7.061342768514304 -1.7218590453624154 0.06428940610668928 1.3376076779082382
Ni 4.3184403192773715 5.673141347394549 11.756498510707077 2.1386140418712523 1.7305198063612068 0.9113205735392499
Ni 6.275406701569187 1.9444149166224582 9.939321165404964 -0.24455381961981754 0.2600568003514231 -0.6465144314282995
Ni 9.092851997919501 0.8616175845149167 6.265471755246493 1.2881041718614719 1.477596017510139 -0.0301433563525997
Ni 3.938905242678566 8.220753427075785 6.141325925803722 0.3960522167438469 -0.359456162787368 1.066519302333002
Ni 7.810394112589649 6.139604874794716 8.917796790091776 -2.2704159890076188 0.1759182207292906 0.780211795815166
Ni 4.254639364980349 3.824786608638018 13.480705556403068 1.2517924819146313 2.127292446210846 0.5293294628741594
Ni 0.33233522938161003 2.8474215881530776 5.114332764149518 -1.5942096869418416 -0.20783126738780336 -0.08730052228988192
Ni 5.3996927122550105 2.245910999174592 12.568898881770636 2.2586817312898257 -0.11927296143142041 0.43707519612342793
Ni 2.302564979330265 3.280740673544407 0.4877767920070868 -2.0569565767997604 -1.0076536383450454 0.5629579495618822
Ni 3.4066466899693184 8.173641169893697 11.282729601655255 3.7622723730915144 0.7431655416951459 1.2934687786074948
Ni 9.481341757894885 2.583738310119319 13.909223962423312 -1.2959776610722777 0.559120835203979 0.2628251071251796
Ni 3.3783849265133714 1.3473211017547932 8.122335772732985 2.059184694799331 1.6428505878779964 -2.388820174680841
Ni 8.756888304743052 8.110967704346484 6.896446141141466 -1.7451676381813686 -0.7362230489390418 0.6598463726505152
Ni 0.5108353346539996 8.523516769710348 2.279844683308295 -0.08520790142691131 0.5430943778687357 -2.2874001822704413
Ni 3.370362052020931 1.5289492894512389 3.9067447908513797 -0.4355950120334756 -0.9393070314498468 -1.1619211135737795
Ni 1.9272789512431352 3.1520858209112848 9.154265657855358 -0.6383792039156748 -0.40226503042277817 1.2711737146547204
Ni 7.67032460112582 5.731901215628378 1.2915150676836866 2.7273069343053935 -0.3037532127981091 -0.859640628666455
Ni 6.315791298607787 4.309383136923537 8.450137751893257 0.880811092096483 -0.9957311758758465 -0.5678690137102543
Ni 8.622558736005521 5.927925850584776 11.483916457829787 -0.43728371258980814 -0.5181544200939463 -0.18552000548511277
Ni 6.0554532144680895 4.291129000883247 10.809396779161215 0.12264676299965972 0.12337181409114238 0.5749675724282485
Ni 4.242246306821296 2.413329101387912 1.6265180659005878 0.8714944426812474 -0.7791404171278581 1.1086391143211876
P 8.629817527212966 3.1623357186368177 2.5872996836745004 -1.6513763659608207 1.0371583326723817 0.49971755354499736
P 4.404026965285572 1.3722283532278388 11.115268636233267 -2.1518853050588613 -1.0698031152905965 -3.067348954232208
P 6.499161968917574 7.462736217917252 12.455962713204059 0.09784281658210245 -1.272410158164983 -0.197141391774125
P 2.0015627554867255 1.4770848069600415 5.861937940836679 0.609261460614112 2.0418040374290385 0.4423498142588059
P 1.207354089268219 7.195139342570108 6.2609580730117225 2.3034621208293107 0.18212949174632503 -1.5730469368212974
P 2.4910233261474524 5.648895680229242 3.909173084803447 0.1794192919040136 0.13954688118910807 0.27299304879711694
P 7.703869720954836 7.732401708987184 2.442955033050239 1.0261928347998133 0.9166098469626472 -0.4279452087977017
P 0.5313882432114616 1.3793287369249805 12.120686694984105 1.880386324308768 -0.18429487482876003 -0.7260893029391495
