# total energy = -340869.4957731464 ev
CRYSTAL
PRIMVEC
9.25312324873743 0.00000000000000 0.00000000000000

0.00000000000000 9.25312324873743 0.00000000000000

0.00000000000000 0.00000000000000 13.54288119455722

PRIMCOORD
 96 1
Ni 8.990899080636874 8.623920208851283 -0.013487352584838033 0.06024917459904462 1.8740953490937335 0.8434187674909539
Ni 6.928905315500305 0.7832287747482837 7.997897373139845 -0.3091990664040288 -0.6065453472345297 -0.3180153791440781
Ni 9.2197195677873 5.683925329062187 8.982627713680516 -0.022441359722651672 -0.7106236032033826 0.44633373860721837
Ni 1.2612469772752113 7.874315433706996 6.554646086268399 0.6535032040413067 1.514000267170786 -1.0455290732345799
Ni 5.75170445755007 8.12472345761677 5.757891095817236 1.5920880126131483 -0.3946057141053075 0.0759421598542692
Ni 5.718772591572134 3.186044682604292 11.915812294689124 0.33679754484758767 -0.07601286519120456 0.2972280100850817
Ni 6.716610906640579 7.576438887047346 1.8647190260872886 0.4874968431090894 -1.3359189773519058 -0.5700480236394441
Ni 3.7621071294495696 7.402026765154089 12.844745376158835 -0.7881901860349522 1.3304571829063863 0.9630663386529736
Ni 3.2659361495482355 3.119274144560802 11.028415558594057 -0.46547842985646926 0.33522788636762263 1.73043855950131
Ni 2.176538179000255 0.9858740265858728 0.5173634082939349 0.641251126146831 -2.2709327807430375 -0.26063555567302854
Ni 4.549520166573583 3.1982125398004104 0.9462956421106206 -0.16404332366857557 1.3213505926194276 -1.4456333485606137
Ni 4.380558134329386 6.522489632026612 8.136996800418999 0.6753580951328692 -1.3043766837692505 1.2128361552560918
Ni 2.68246195090517 0.47130413622920636 3.192693977038612 -2.6790203313848635 -0.6892402524316 3.0462301699757215
Ni 4.654006435363368 1.4042447454187945 13.231773915604158 0.13368862263611814 -1.5937486881450231 -0.5984875099270596
Ni 0.04868438315715342 7.604531369516862 2.9532286967943353 -1.9559821565672117 0.5965895215733984 1.605329451004087
Ni 4.537685421817815 6.132433470623441 1.0362887438081776 1.139947951736798 -1.077648322366628 0.6847544487461046
Ni 3.5799038777014593 8.719412441751619 5.42984196456055 -1.3185645452338581 2.0722559261609925 -0.20722243015921085
Ni 9.077082671454095 6.1158981392094 0.3859921896309012 -0.6064471310937685 0.2505563170601556 1.7150006276796852
Ni 0.7230686680210725 9.194828665994478 8.745017684666523 -0.6816611545327615 -0.03201589078496422 -1.006985151523111
Ni 6.777200358290908 5.5310174658181905 8.796331805477772 0.06318768840207827 0.4798231286139155 -0.7163941871385726
Ni 5.235824324928027 8.484031490150967 3.4554391903016826 -0.4245634368096623 -0.07554029643016023 0.2855300049218631
Ni 4.239568293951245 9.10583212568097 11.340280977123738 0.16726851547409258 0.05997560922268381 0.13858168906236132
Ni 6.009931370684726 6.083058804464896 3.8838680542085053 1.1774786016924044 0.26231114360323854 1.6496701819029913
Ni 7.213549895779386 0.5574368348680406 1.7850468581665757 1.0108819154743558 1.6893705858164068 0.8355308801024449
P 1.8367079711031902 7.688577488841839 4.43509049143935 0.546762313638626 -0.3938480100036766 -0.9722911996853513
P 6.108699209248503 7.5082526211323675 7.779613417540158 2.9528973254488307 0.7587004041059515 0.3447250272247805
P 3.266380299468702 1.9166179442938196 5.102335066331767 -1.0421974377581857 0.14236969534988383 -0.20198020792366503
P 8.810120809883594 1.8429815887297818 0.37531963716702066 0.549895459950969 -0.8781651698332038 1.9152738802145726
P 6.332421225436905 4.706499404088523 0.5891250810686692 0.19991381231293956 -0.09787984046762499 -0.08836110234391234
P 5.380330352176528 5.282228738493451 6.2120658501137775 -0.0024651737110409156 1.6983136539423074 -0.3369045027390972
P 3.319844846144878 3.544344124694096 8.966268191609993 1.0380484485868187 0.21620097950873735 -0.6638871183787921
P 5.240959808383423 9.196309165729367 1.2427453571507714 -0.35664851813524384 -1.5672727533416813 -0.9882376957122787
Ni 6.924213981965376 3.0818545137614843 9.267610032961617 1.825792548223288 0.023971680324249036 2.0101804969864863
Ni 8.129544334878503 7.219786500912606 11.908526385368804 0.827111288580182 -1.628121509197938 -1.5834408784611118
Ni 2.412603861728293 2.5454694598112297 2.0297938212150686 0.20743351772875243 1.0051617251611271 1.0201216889050688
Ni 3.331624072160588 8.106180198437286 1.8577181129659324 0.012474478317926902 -0.8830428096404792 -1.3919656838338286
Ni 7.333090996248322 1.7759889757260585 5.6206478450807005 1.8883688282936124 0.6429074308033315 -0.04454590493117489
Ni 1.4717000145896708 5.965932769188496 2.424622743638588 1.3033086475160522 -2.0932327855229755 0.2979957414890416
Ni 1.4654634094564511 3.6518839241870897 7.99705811485263 -0.03260055964384063 0.8635487054716096 0.7847202252084807
Ni 2.3061836901598087 5.422857707061213 10.451583251886637 0.6036042623283346 1.388200046143809 -0.5178942244540242
Ni 2.5978976566729837 8.211776842028238 9.962725940675654 0.6908878153373521 -2.24915990784232 -0.5914665985245362
Ni 5.87489128861617 6.3009513529471715 12.381037128881943 1.5112013642694104 -1.0295998035988334 0.3829755860655469
Ni 8.001471854687267 1.2982409644007482 11.92978913749881 -0.1649673781447417 0.6212749401352203 -0.7546691714593713
Ni 3.4112657047742685 4.463864003786916 6.798851741601323 -1.2398525359439356 -1.2703242221702316 -0.07342530696968644
Ni 7.4831118850092855 7.939170575218473 9.616163160234182 -0.14336625493519825 0.3490030857748441 0.10434847891110417
Ni 0.22058890862444278 3.523543103418907 5.9914787921140045 -1.3028432778438594 1.166720334734636 -0.5207841444073096
Ni 0.611708253899731 0.8246142942124347 2.200433444721362 -1.2529795602441969 -0.15190154609971904 -0.9598786849536115
Ni 4.900629931825832 1.9373726999522936 9.645185581599677 1.4932638059543832 -0.377115270630028 0.4709469091702083
Ni 1.345043262269924 5.406498184990689 4.807817403445646 0.00863273597433352 2.55079915962122 1.5416936193209965
Ni 0.6385608178412788 3.8367243160879707 10.441128147821319 -1.1542273444739477 -0.6056351767154344 0.45606844939647906
Ni 8.732570383145443 0.2865988399291337 4.162919121426709 -0.9577084167751699 0.08578177165251033 1.4741399406407387
Ni 1.4028290175473068 1.4629743192771691 6.731421455863473 1.8250165892892118 -0.3496813427887913 -1.3432589626567446
Ni 6.810927992876344 2.5054867138458863 0.3120763897419034 -0.6096538109565242 0.5202575824798782 0.09447749965429535
Ni 1.0816068406931274 2.4609329249490726 12.578140685149377 -0.8059279696343477 0.5652423747206845 -1.548966755943642
Ni 3.570030795094419 4.89138606160612 12.582596064039057 0.5425408193581108 0.16103204764607754 0.43419170392804574
Ni 5.355920612797546 3.611383003314535 7.6942255953304395 -0.5761906462020722 -0.07297022171013885 0.494250102672523
P 0.3103164456820542 1.7723524982522374 10.097111826923856 -0.8849032598879856 0.6495812432790813 -0.6738324025169622
P 0.5692669530621374 7.377580013281735 10.039771146879273 -0.08325746256875984 0.11622080486865789 1.3259726647724712
P 2.9203597520551328 8.994119167560257 7.764770482385562 -0.272849067020085 -0.6023945582909496 0.5700189701737216
P 1.160748804646283 7.656459897718092 1.2381400776629325 1.9855860954765738 1.6622799002472015 -2.3203560683711717
P 6.399497116550715 2.236794518210234 3.550402144546794 -0.3403160995238074 -1.7555680075790863 -0.7099761994273708
P 1.4212149736299589 4.645993230548282 12.460588080886863 -0.5656540083368065 0.9468023113856275 -0.0872922947597658
P 6.24868045918225 0.3291511782468441 10.873308227931416 1.0259804616786912 0.5566219800415252 -0.9709133455012182
P 2.757365984367206 1.2800215645382715 12.071718169896272 0.9800541314602219 -0.934606540650384 -1.340068480743905
Ni 4.930073370303436 8.819198123883131 8.957383342575993 -0.4780182141946928 0.6076390945193405 0.2890804412772828
Ni 3.7328857659322 1.738226979363048 7.458403269746324 -1.1816093360313262 0.7100276214905965 0.6529591586123786
Ni 3.5224604879877695 6.53220541153682 5.887835482860772 0.07897220492984464 -0.13216601534400463 -0.9710313591363213
Ni 1.3230393349601375 7.135083409830274 12.563622534624121 1.20890930939786 -0.31156422420209573 -1.6523469574042058
Ni 5.067250923864237 3.459844602325311 5.242368133756236 -0.8535409435266202 -0.39040170332628893 -1.3283362799086413
Ni 8.245708045327223 5.809073822277015 5.237872041123845 -0.474815390986679 0.8613115886109747 -0.08191303272572344
Ni 5.251397331514389 1.3190234794292512 6.023548266996366 0.14996473408832237 -1.8003985336302153 -0.8999634966552178
Ni 3.898516673772897 6.323640011384344 3.5037062575960642 -2.739803781220823 0.14423400225213223 -0.49516335851541177
Ni 0.9951734155456439 2.2166042030756863 4.192374588964658 0.3611165812089265 -0.14451836626177045 -0.17161985046425282
Ni 8.33548184800155 4.4651594410549444 12.58728184569998 -0.4157826052932388 -1.5261978376782426 0.4229554688925941
Ni 7.21807467309414 3.9517128798721246 4.28567198100802 1.0856593655965625 0.5680297076578346 0.9496264110979838
Ni 8.254489259379783 3.0306939947977294 2.2846165102718143 -0.7054101773232432 -2.651247275036653 -0.23222100908607748
Ni 8.390463906905987 7.360322938246936 7.325344281385516 -1.6161813061169263 0.6448069618188895 0.2568200385816803
Ni 8.889910492470763 2.234832856061506 7.9544113946768205 -0.46004003244971736 -0.6686058640107002 1.7635021748244983
Ni 2.230252560006693 6.263013547240643 7.865772950236686 -1.6232245861169528 -0.5292320180643466 1.856198928429287
Ni 0.8095085703548963 3.8676852667938353 1.0088698887180347 0.22207749289417236 0.9040219829953077 -0.3469184353316735
Ni 2.6739583305529018 1.3039131290100414 9.629448794730141 -1.5817871449077725 -0.11518465029465969 0.07629594364926215
Ni 7.681942999404868 5.3088869868447945 2.3123249881225947 0.15800534500461175 0.7963392975046479 -0.47344499300171367
Ni 6.744481314149861 8.68352882942725 12.888773587649762 -2.429546191645293 0.8275375774843232 0.7718924773161933
Ni 5.148946749860077 4.209726971169891 2.8729597024179956 0.611646673016837 -0.3588966907394722 0.6698546488161367
Ni 2.7509350636437824 3.9756136974672374 4.026420747119288 1.9327640665795358 -1.5086204909161114 -0.18613861290571815
Ni 5.088440576319835 4.571302018923136 10.22876248991185 -0.6430380428439247 1.1396692441541145 -0.8707989592761196
Ni 4.41939349300019 1.386913645397251 2.547578246621112 3.433702101249725 2.101533334968871 -0.0819027483130783
Ni 0.754353478043944 0.07793165541988396 11.179662486197973 0.46259802298488073 -1.0814818371801054 1.5728386774652332
P 0.18352274713683012 4.25841690620105 3.4873735695832364 0.07245574396756554 -0.09637214557384693 0.2597009596739011
P 7.421985752205059 7.614987398894516 4.199092356511716 -0.06981804923440234 1.3890184282800464 -0.5238733248555945
P 4.221210097238623 6.49244474053171 11.054877640730528 -0.9790557721026946 0.11154139711511758 -1.8902773581702348
P 0.49310356951311135 5.668306056859108 6.848120922153758 -0.47033421528687386 -0.8807218748167864 -0.197007437299422
P 7.51909728169043 5.148983762353449 10.842715551534605 -0.9165885068064085 0.5636439198853131 -1.6675462908524636
P 7.4001668873621345 3.5165107296781843 7.205706948433812 0.790369195964142 0.2512348311844189 -1.093614101667265
P 8.818087749081965 0.36693168085654065 6.763260527974594 -0.9080503874284104 -1.0833464011926697 -1.0068303711128017
P 3.210500687599988 4.62584918103045 1.88981442190599 -0.9753672675075138 0.28908995435897955 0.23057910260728032
