# total energy = -340885.00665637874 ev
CRYSTAL
PRIMVEC
9.10573861750843 0.00000000000000 0.00000000000000

0.00000000000000 9.10573861750843 0.00000000000000

0.00000000000000 0.00000000000000 13.32716888889329

PRIMCOORD
 96 1
Ni 6.751531758405878 1.7973817214326568 11.443480234281791 0.389304099386736 1.4158460899958518 -0.07677262617536455
Ni 4.8434697855723705 0.9534618777608465 5.9162496182699655 -0.30329529932508414 -1.5534911261765567 -0.21949970486466713
Ni 2.8889503349398384 2.05979089336764 4.626713144153497 1.0957380899888032 -1.824457117241316 -0.2291979059890375
Ni 3.562611080241175 4.415836988654381 4.974632485142787 -0.5993958806739419 1.2083740057196801 -2.0969788828289686
Ni 4.128842322784203 2.6343903095871286 2.1469273473170682 -0.6736177154029946 0.10880805734435454 0.6954402105947249
Ni 5.513351649398483 4.576088880419381 2.879361081731263 -1.6133165829746212 0.7930266881916471 0.43685253858966056
Ni 5.862975584633947 2.962342587205643 0.16033930685454723 -0.005742816021048174 1.3532764947937468 0.11788919371001631
Ni 6.3199652824582575 8.311827366656802 12.373036816772983 -0.4211179014632231 -0.46996551909354545 -0.6577596653248156
Ni 1.8080900699022082 7.084646989750783 0.21496736380470144 1.3811104862868793 0.11821983757655771 1.1699185299569594
Ni 0.9357876393429895 0.2545654887958063 13.333832456317314 0.4493604412486842 -0.0032321337840524977 0.08063956532993853
Ni 7.974942359575167 9.21628215984016 6.710855513977022 1.3436325439460794 0.34729124529005995 0.4325631671856873
Ni 8.77602880936877 2.690891416945605 1.4959344274239816 -0.46491278716098644 0.8612172291249555 -0.6840887901376476
Ni 7.154369629403298 1.1929701173821199 4.712673136689433 -1.3363974596502208 0.6813235686876846 1.7256226261699055
Ni 0.3122539844539676 7.825353287587246 2.4150294269588226 -0.24207064818664759 -1.1203947121952187 -1.4048636228424192
Ni 7.804300820187924 3.9737260675301105 3.9349929876959844 0.339371476222351 0.6925016967916913 -0.08466437021861548
Ni 8.190994216834564 4.105076345313514 12.465580258240456 -0.49337207094294383 -0.5485240335247392 0.36137137753220994
Ni 8.564948685327378 7.151164409453228 9.236594330699878 0.13943606664285665 0.3692109281812867 -0.5645646319273697
Ni 7.336047323845896 0.9215007356450927 0.5749936946963016 -0.13129389715169645 0.41602223210787065 -1.3855736642645557
Ni 2.3033785038344567 6.816901855058013 9.028224074434453 -0.281466890596083 0.4394938328672495 0.6731281773610859
Ni 0.1754885239878747 5.234943694928633 1.1833835958950927 -1.2432736458103426 -0.520049323123814 -0.7620497801941585
Ni 6.564682004498395 2.443224435633245 7.054523385663223 0.6084762457086553 -1.7286565279002228 0.07287920465822932
Ni 3.7285449528267534 4.184123261184414 0.35947270199113357 -0.27340493952355494 0.41723656413094595 -0.15871316970491375
Ni 6.381820564051509 5.849881532678832 4.857033693633802 -0.5188846133917515 0.5158694807145116 -0.9255935385184962
Ni 5.7290301713796055 3.28949355983664 9.047948014587426 -0.3833651081944817 0.66149573532848 0.9483796831750763
P 0.3814958411139717 6.1414381735347625 12.386456854166202 -0.5159432713752405 -3.306343791707009 -1.6871560946635913
P 4.438209788135409 5.80159380144241 12.576115728399243 -0.42808739080252084 1.8174896847845474 -0.9805999766613629
P 2.2467681276140463 8.823733773341543 1.5803355175296572 -0.5840857326794328 -0.8571119487073303 0.5928683639680693
P 6.3499777965361845 8.054717734525628 5.506226409026524 -0.12500909258424922 0.027034121299656665 -0.13232259552652692
P 5.325900916750362 1.0484074130431724 12.837368471545423 -2.066174238743287 -0.6109121088436575 0.11339464827377246
P 4.160858099330924 6.707459984092417 8.053461142613385 1.9852983890328264 -0.927776405102428 -0.7012735294470503
P 5.000689466418696 1.2629021890200085 3.600987215126316 -0.026980128133269665 -0.47168224467433606 0.06263284433987279
P 0.12464025908679441 5.80939741933221 3.5028601348140054 -0.4320785142397849 0.016897032865654773 0.3796637480834945
Ni 1.0728563209009498 0.13446170862698015 3.972562354150511 -0.09077691087425657 0.747862432950183 1.9626333433351424
Ni 1.7618511298270523 6.725243491372208 4.54048635347967 0.6576401090278158 0.45227812911611137 1.2461201141202023
Ni 6.031040200027242 5.683137249367241 9.138679414094492 0.2515371929161862 1.124090158768935 -0.5798590961925949
Ni -0.05611047117706153 2.4713702733197955 10.402841837322141 -0.01689523309344187 0.1702517664721326 -0.7113931343795554
Ni 2.676231177969433 5.331255090985136 6.889813324331308 -2.185910512964371 0.638335752272249 0.6275710575565772
Ni 0.9286396346247939 9.11320520008223 9.261182556356623 -0.23282881787340548 0.716392901586992 -0.2586336947516514
Ni 1.8724585353199472 1.3585215489509286 11.264642619675634 0.3680199931969791 -1.4983687312811163 0.5211078462953155
Ni 4.101060714637432 6.83080631773914 1.2128106109878225 0.08350017470718524 -0.06818514161666966 0.31395663569367216
Ni 5.9651328648039295 8.456745194797035 7.57580232898037 -0.5927575494218179 -0.3166663213153514 1.4003076280406206
Ni 5.340870750835347 3.0570786905025953 5.038043026870902 1.052045534196859 0.1513947816666296 -1.3070017800969234
Ni 1.074604622691897 8.021263251296773 7.133766985485605 -0.47616984813204444 -1.7474996287486548 -0.7861050213711495
Ni 5.015686617719164 5.009868050821169 6.739642395653587 1.3935284003352582 -0.22918299359070207 1.713506816742978
Ni 1.5021190450094573 7.692318448182357 11.327147140423543 -0.9203772844248793 0.6044840938301267 -0.5509460127026705
Ni 5.201343519883866 0.12237475134935864 10.261320449640362 -1.539685330641716 0.9633895263203472 -0.2880273174224201
Ni 8.312546719997869 7.6872647633179 4.70279796329213 0.3687463298400423 -0.420657673997353 -0.3910799603402362
Ni 7.411014868871252 6.592682150369034 6.8975823404148295 0.5839098692232009 0.24860639242263635 0.45954535220148596
Ni 2.0134973188615164 5.892960781496391 2.293578908066658 0.8894420282986036 -0.9329780039080254 0.3458802238751463
Ni 2.5125191055765166 5.355958959520761 11.066693881117182 0.21198694142738975 0.7145648472393178 1.7979652415983745
Ni 1.2951911377215648 3.610088400751585 3.9522383458307497 -0.7404198606292087 1.6254658167426457 -1.461118074459774
Ni 1.655177403363789 1.7190450531643293 2.32504469800831 0.7367010170167247 -0.04385659217363415 0.07120927315497413
Ni 1.0867607835820767 3.358351154332176 8.125334557698304 1.5274628204335952 1.1328324237379395 -0.2219777340915145
Ni 3.746902121631699 2.9171781242728403 7.000761284443898 -0.01726470061771865 -0.40591419713959126 0.7295487222426597
Ni 4.158663616353746 6.863641610750367 5.581658346715099 0.11552120769847202 1.5819653223568497 -0.7621860486617067
Ni 8.418473775904582 7.719799566958808 13.22326966894304 1.1088090642401485 -0.11792416071300982 -0.43443801561089695
P 0.7468772568141971 5.934619535108804 7.9199764797268655 -1.4581826459805338 -0.7177674133370154 -1.856704921531428
P -0.11447734435306428 1.7128531509880578 7.948616759013669 -1.7572651927758511 -2.191117768196923 1.0475432754511314
P 2.4482963319746904 3.3250150457037497 10.419620071072137 -1.022683278984658 0.39888068733157755 -0.5677126906380482
P 3.8597495387942446 5.96993158899054 3.3467586386548063 0.6215533906075876 0.8517522270573138 0.8317066212603482
P 7.459302600107674 3.9547497085075376 10.150917923263593 -0.14273813443289612 0.8603978185474537 0.5774569145090055
P 6.770180310842648 7.823158804610068 10.127568988615954 -0.3935327927561029 0.03125355869764295 -0.17733078480610107
P 2.749559690065776 8.714665237654222 5.644962351302829 -0.5076391223849193 -0.5568721483791184 -0.5801558014974073
P 7.0481329783877715 4.478848699036437 1.380948072289074 1.0432032533148807 -1.8627840378459724 -0.9548197823734653
Ni 2.909756947399809 1.8948768634934474 0.09124496315815431 0.11369263913016549 -1.179979256627071 1.3024316442277375
Ni 1.7055321372384664 1.0742859218445888 6.726381708684023 -0.44133422851009796 2.449889274078019 0.047792951113562854
Ni 7.132342847985061 1.0293764195896324 9.2251857509401 0.925275493057445 -0.027451668453049496 -1.3994902743456479
Ni 2.655187816308605 1.745770395645736 9.020880296338627 1.3386219781053654 -0.5490441676942673 -0.3954210109177512
Ni 6.513198159050397 2.557774625894265 2.4972715464674486 0.3023879570194663 -1.3705008290918332 0.06423258472682487
Ni 4.415008366451381 6.800329410997993 10.533207784774286 0.1796604613805422 0.1085792291630001 0.12565058282299005
Ni 7.533541686053469 6.085619996563375 11.250515976975239 0.01042273799522076 0.17062174821704162 0.057527147682191256
Ni 7.977191476983313 4.475825593856257 7.938554917977228 0.16279788129724868 -0.06229757248764109 1.1029940002202683
Ni 3.871814642299479 8.527888329654695 12.23304792487983 -1.05950893245344 0.13002891439634381 0.6563563572193858
Ni 0.441162103173142 4.959549739900469 9.833331618347238 -0.07610105402963667 -0.13207654095399188 1.3772934265336345
Ni 8.80525822993617 2.802846471735688 5.989349576330097 -0.21686740944814262 -1.5695733764504 -0.16377104384379537
Ni 4.140279130333316 2.5637024616541955 11.552256475763437 0.3937191977352962 -0.7435200968210872 -0.40027113992120095
Ni 1.4879231986965058 3.4891095591134356 12.434635316540689 -0.8380302494855311 0.6795273960192104 0.39079148256553986
Ni 3.646711680976531 8.873542162906551 7.73919387937828 -1.1664416271519527 -0.4565039942720009 0.666304212460717
Ni 5.699172454856085 7.873449798315284 3.3220766238915695 -0.3032266508706778 0.7576681061866951 0.12878115803217174
Ni 3.3185772885881266 8.514976392469471 3.518385418947157 0.5971083701913459 -0.21557363033738355 0.24306000868311042
Ni 3.6024122632007076 4.670169370544728 9.038006369299113 0.6523138117188959 -0.8501272898593811 -0.03544522818148734
Ni 5.487026959410834 4.358935228802146 11.302558914766802 0.8715250388088667 0.9252346125171808 0.1658515805219079
Ni 7.678678051917571 0.4252079387568992 2.7636153080059125 0.8018010919501675 -1.1102329411708687 -0.5094514930033097
Ni 4.230999602954186 0.22826629487594313 1.3881844026706662 2.032220764615978 0.4703594120978544 -0.06471003858387565
Ni 6.313491102388656 6.232568404387886 0.27499512368210405 0.40713804224436334 -0.9335757853930244 -0.7692259862276237
Ni 8.360934614357731 0.057445372440357675 11.164142583911651 0.9355455075248855 -0.6284434328592016 0.05492776238613121
Ni 0.1417945598366145 5.076476527908558 5.7815120057666025 0.3201640500559647 1.6558930228842512 0.15225815810818938
Ni 7.246419539844367 6.267579968899303 2.5197809320258937 1.4221918297082217 -0.22088115859322605 1.2295318707442178
P 8.915920269860031 2.036115973281896 3.7254371642785746 0.053377387179875814 -0.7556374489099116 -0.38370089426734566
P 1.8978635457196489 3.6641400644550366 1.382347624295681 -0.18571695198726723 0.3339125099903088 0.13179654781972786
P 5.0220970576193045 1.4693110692137137 8.347565569100082 -0.6645322081619588 -1.4143070276435064 -0.7295502649045564
P 8.927484557748066 1.808964220797682 12.568306647066345 -0.60633014589993 1.6479359728207037 -0.8542194576508836
P 7.020943243243144 8.024668797493723 1.3486691398998614 -1.518004503234173 0.26081141912926054 1.1241132986973865
P 1.8064419312347009 3.403023907386275 6.009659926042116 1.179251634432427 0.0529122746179992 0.49365129274625946
P 6.961409924965993 4.224734854869959 6.085332255226948 0.702296828505242 0.9555054955865803 -1.0668540599646013
P 2.9705923862816754 8.637530526867172 10.0884671263728 0.18765967753593488 1.3983849570966111 0.3886237854902597
