# total energy = -381164.51493014925 ev
CRYSTAL
PRIMVEC
9.28024411492825 0.00000000000000 0.00000000000000

0.00000000000000 9.28024411492825 0.00000000000000

0.00000000000000 0.00000000000000 13.58257532365685

PRIMCOORD
 96 1
Ni 0.16143448805348368 3.268669053101199 10.117958856128789 -1.514731488909856 -0.11135730612876951 -0.9054026653929181
Ni 2.5321517520821613 8.221359060222076 3.230615411742037 -0.21554946196766747 0.7846572331810293 0.10896078087213494
Ni 1.2819636541186044 4.144213692542774 8.095391809468056 -0.054787380153524995 -0.8862145225002416 0.21826249002345635
Ni 6.261148758442362 5.049742801007994 7.160488872047826 0.9688289521683637 -0.9675333732853918 2.470882845610551
Ni 6.863167480210493 3.7219254602766294 9.828935858658818 1.102123938910489 1.2092877757832012 0.3305965582431984
Ni 8.154958912941304 3.363958600589525 7.314896359189919 1.127543407424858 0.4909413500142642 1.1717640678061305
Ni 2.362276881924993 1.320031215844073 13.408270366738513 -1.8577531602902846 -3.219388054351055 3.5461366996030734
Ni 8.838170491251642 4.580190285010056 3.3156836982638995 -0.08763939368653939 0.854615921758354 1.0028724149063177
Ni 3.9486139854516713 2.666492567181596 3.7229026699913277 1.036329666123499 1.7471592146901007 1.3442640068824914
Ni 3.2028814019379017 2.6696385699668075 8.572601454958846 0.031234532534249435 -0.2912810484730274 -0.18721230558587112
Ni 0.5040165588989299 4.58153592041966 5.918988010683784 0.2657235117188972 1.2703414485614122 -1.1060039906911854
Ni 9.166626174369513 0.7728735857132595 9.974608779955956 0.7474770245863063 0.635482341983854 -0.9727483418274281
Ni 5.911756844399902 6.701626269348662 11.946798948978822 0.7982367716376768 0.16290046831338395 0.5595216701868234
Ni 8.21911324112467 6.596054211282126 6.431335444804789 -0.7352604279154563 -3.242556522047719 -0.1579284690200893
Ni 6.660644710943087 2.6612677896946537 0.3791536572052042 0.115877048375994 -0.07463501100707146 -1.6658141386527054
Ni 3.609829390534568 8.461448258027927 8.138611762775675 0.09576073724209315 0.015379824890179966 -0.6784192505566962
Ni 5.759625801161089 5.550263491915216 5.190418310801189 -1.6677653488418052 2.4983460840278267 -2.859562938260043
Ni 3.3023934605391205 2.324905338514837 11.962772105303024 1.4477815052518677 2.1948193854182265 -2.57440882862036
Ni 5.873642881453413 7.090737628584931 2.408381135131265 0.03502356726303646 -1.881274383340676 0.4150524119954336
Ni 7.394062410397935 6.26281920239911 10.132736716999496 -0.21238186287296326 -0.8783412903997518 -2.021955635244544
Ni 0.21990559468622084 6.402653922067409 0.700716902952646 1.1436122879622626 0.8575040419394265 -0.8428374410661871
Ni 5.021373094475873 0.9045862356540766 13.17462258643477 -1.4585030054344301 3.7905645351679875 4.688784052548905
Ni 8.344758467404807 7.688301833135065 2.4612033571169296 0.12696827319314904 -0.585529921325127 -0.9003530187841526
Ni 9.037389493582367 8.694252464133513 0.02775071424370281 1.5201955973482206 0.7627000121836478 -1.0228586282202576
P 2.204373526791193 7.073661979249275 5.459705940946592 -0.1681257212680653 -0.03423063904809589 -0.13107406783140652
Ni 9.015915008493938 7.8330829229641825 9.078512111699846 -1.8298980857512293 -0.6265976378997143 -0.07959441189487583
P 6.9838941770624245 2.0535045967641463 4.693255212247032 -0.26982364993019986 -1.4232696361534325 -0.014160864881414322
Ni 3.415807324958173 8.641048824111056 12.441000721607432 0.7136873297303709 -0.5473688368743734 -0.11072995695741575
P 4.790295013792263 4.280512639169288 2.6449345598953307 -0.14828734638589947 0.8211712689466631 0.24640938477131755
P 1.3133865609938937 0.6474213885125696 4.168560413212391 2.3007861166590438 0.6000337713682569 0.16611254749277846
P 7.175540500122554 6.489340683178478 0.4085488307218843 1.1724315261868001 2.4165166121548447 -0.2484233298775528
Ni 2.7565294964503675 1.7440919747532124 2.347666993474382 -2.699329732366177 -2.4285648015686303 -2.0370153577911436
Ni 6.969945970023571 1.5680457422002774 6.933985951756867 0.3664400503043689 -2.4368440108582874 -1.6127697093322162
Ni 4.133263004381864 3.021099978466795 0.9762464253497675 0.347551440929982 -0.3225132670144316 -0.4660142477552813
Ni 4.3532697537299105 0.5409315142942418 4.502841305617215 0.6238781820860223 -0.6111972441842441 -0.29572262918414877
Ni 5.386355818781324 6.405391594107637 8.808680659244079 -0.3986024939695264 -0.8869578284241693 0.5764133037358395
Ni 7.2726396952306915 4.061109105694512 5.101507075154383 3.0694770563188043 -0.3679762844432372 -0.4885355687862489
Ni 9.23022368790063 7.961465821284547 4.6577907590208305 1.6536188821380942 -0.2454274804740225 0.7634947401708012
Ni 2.09129375116349 1.3554075067503348 10.131800340359296 0.40489809717025105 -0.28708269412096366 0.4124442849486251
Ni 4.386066136747416 7.899278904872463 10.208473717974075 -0.2485500852634042 -1.1014649651702513 1.817278854325322
Ni 0.21498428118475424 2.097223827209949 12.064369434776918 2.0892516893880404 -0.35831253610122804 0.9830921469555971
Ni 2.003279915131227 6.764704089204345 11.94927120603481 -0.7016134292849724 0.5281395563311163 0.3269180809503467
Ni 0.8425812120283949 0.1320318903414402 2.034629508077303 -0.3785023807855417 0.9044775824754875 -0.11172780209431082
Ni 8.214538080732018 4.730437438675424 1.1654214193783292 -1.078860083286542 -1.0253461705288018 -0.6379871106835786
Ni 4.292493434436859 9.135769362390677 1.8298989687137266 -0.34755118381966593 0.11477353089917008 -0.03047939953577976
Ni 1.2824091058404041 8.831247429075336 7.702053298996792 -0.1880414863553858 1.6091413685510094 0.8481208009523135
Ni 2.3604208330841607 2.9635253434241795 5.964122478370721 0.9566977161224685 -0.8361134920787924 0.9213111090930585
Ni 4.616049148614935 0.7781855974957212 9.639200337880325 -0.18512611248080374 1.1290356756996685 -0.8012521614252329
Ni 4.20455384035823 7.267257153592278 4.58887288148747 0.34543568013855996 0.5608457883148857 0.17609485551647092
Ni 6.944777947741886 9.03253592586359 5.177392560036229 -1.845047539798158 -0.47381908851168075 -0.40223931939116536
Ni 3.3074419133861843 4.791668489934478 4.872382485875749 0.2319862673674521 0.9595071605468055 -0.2785368614334816
Ni 7.895891615737945 8.603528796793633 11.104013571577935 -2.6519841532026778 0.9769682934460465 -0.9571078070766935
Ni 5.820476362407774 4.941887802867234 0.6369003756583121 -1.3313434421660812 -0.3308474979117399 0.5009997626915307
Ni 3.8937120607398548 6.413660291693544 6.975603206890428 -0.15209540727808 -0.2978489314985322 -1.5088740016878144
Ni 2.2290032949090364 4.042604298751415 10.652786753809956 0.4227670070308719 -0.6496912864943843 -0.30280473284191073
Ni 4.483258134297595 1.0633025401801615 6.9307944757750555 0.4643384027147551 -0.1882104078330823 -0.056438542603702804
P 5.78699324131916 4.2765963761151315 12.136506629024701 -0.2664344217429927 0.2156438214536867 -1.1780432159466228
Ni 5.594483855548043 2.824275279140743 8.08081718594542 -1.2727248611919242 1.1107484473547065 0.7753788932028969
P 5.6355767768840686 7.853777867539462 6.725085798672361 -0.27657742371426564 0.4356142953071853 -0.11885592849865981
Ni 2.461965265166091 0.27665707206792695 6.011552878473768 -0.042070703917804965 -0.13708376436059616 -1.6493215403143207
P 7.743055273939616 1.1205894876524476 1.344035495502556 0.9277041571035959 -0.9131396290258598 0.33218781398971825
P 5.441155660806894 9.216386843792225 11.64936712223546 2.2208119528272463 -2.7973350426680725 -4.723633813238239
P 0.9374995497485542 4.907467377114 12.145837914571986 -1.026328074826097 -0.5760713470153885 0.590794512158176
Ni 1.8663127909220136 8.062369916516388 9.836718271448428 0.7137248678365256 0.3326544692134916 1.1127132843905612
Ni 8.015551084506397 4.114971643055463 12.271652969321059 0.25986936693096535 0.10547899297112158 -0.3624245013870726
Ni 7.4305523306086965 1.3899764164108348 11.922078234467778 -0.955556917649806 0.20163593721036885 0.4575046676223734
Ni 1.915433123494638 3.5076817425793676 0.11787023768589042 -1.4987618529544768 -0.12166614425394529 -1.1883541109543279
Ni 1.7132537232627854 4.835137153786769 1.8754686798538391 -0.9129673651140534 -0.7192823073196452 -0.6259605185363478
Ni 6.38655269837319 8.436289515990447 8.706322349745443 0.6712451014057601 0.5512393755733732 -0.3247177308649182
Ni 8.623249315727476 6.8272436548961855 11.860101051574707 1.6827469098523018 -2.657504825910591 3.0406254221944344
Ni 8.614275319582053 0.7586414032017581 3.792635352965814 -2.7684939500666643 0.820784832141522 -1.783934474536921
Ni 4.495164687611533 4.25487132443319 9.89823422620455 1.0930775124375047 -1.6878137828522481 -1.9772562354546397
Ni 7.039844769369312 1.3560107226236053 9.369274226933676 -0.1757474994793812 0.13822250595072968 0.2787109251175007
Ni 3.9017301917322498 5.5045304484771105 11.45430845338146 0.8234693209522205 1.9568761291363912 0.13719097936242178
Ni 6.514657189367429 9.145003205373818 2.71201958919837 -0.08903678825469828 2.447844989954481 0.3131611363755703
Ni 6.794605036030151 8.742556135216171 0.08373471542972481 -0.708978868511108 -0.9451542342592433 0.1822441629473184
Ni 0.6782587119785763 5.820931094373777 9.959613761370873 -0.7612843627830437 -0.40971840137702986 0.07416192802539485
Ni 0.20307030367545226 2.4192111801175216 5.212001374746808 -1.8918966389412128 -1.0932312644065494 1.5638621849982357
Ni 3.6070638777617283 6.013208474039791 2.1775990942377677 0.5853602285164822 0.969365541398124 0.9114105621498948
Ni 1.3615417481692855 6.525357310934827 7.492352260837467 -1.1951827038403868 0.30106358178108794 -1.4815164356104678
Ni 1.393437947498987 6.187760587275855 3.5981464911059495 -0.3583747567977312 0.21554791930577075 1.0015236141879074
Ni 2.0356215661827277 7.890434832145898 0.7473677625425432 1.2193410462541452 -0.23687727691116622 -0.13559612407147617
Ni 1.428238863264591 3.2462943843249668 3.6095287106223535 1.4302954326519626 0.3050433923644424 -0.17796559017662253
Ni 0.0012129279174838503 2.762997826660668 1.6507039493023195 0.2014608450850853 -1.2801193538837825 -0.07170138230004426
Ni 6.749122559185559 3.3986017522036587 2.498365167008072 0.07203074061500497 -0.4545954643953784 2.0640538499661742
Ni 5.185113723214091 3.1678299195787853 5.547993544182879 -0.5970741745193008 -0.6217997022904388 1.2239939716451245
Ni 5.44569370022273 2.359056637186149 11.129766249244483 0.31289039921268696 0.19885426070017367 0.3561715784988253
Ni 3.430460830556543 5.170655102744008 13.515993585411575 -0.2415245458751905 0.605526419051712 1.464983213842135
P 8.517398850334814 5.297877970538852 8.249608123579543 0.01401019823616297 0.5171969412766835 0.6054803963051251
Ni 2.832395492819384 5.866098042915429 9.010734776179175 2.0413204129244007 -0.11334245487959836 1.44205925805611
P 3.8248433685007757 4.253488568046771 7.243356812668882 0.10921866251921189 -0.30073319502486273 -0.24856936853711387
Ni 8.44030786173085 8.632028426744611 6.8129650711636645 0.1293696835457901 2.993654195651218 1.8344021442691696
P 0.48925818654105263 1.6698129001431075 7.80071714327775 -0.25502515146478655 0.6154976713318109 0.2537444849801501
P 7.433828256812766 6.75093220680537 4.281866626798675 -0.4251069680179582 -0.3683611785864817 -0.5786414217354099
P 1.4793358878527016 9.178866816474802 11.872936557333484 -1.7104127511986866 0.31667146352167397 -0.2532292359066284
Ni 4.675925284220183 7.300517548819991 0.3734444509708043 -0.3771942034970794 -0.1988501469351156 -0.2654329770616719
