# total energy = -381160.9763243757 ev
CRYSTAL
PRIMVEC
9.28447641248752 0.00000000000000 0.00000000000000
0.00000000000000 9.28447641248752 0.00000000000000
0.00000000000000 0.00000000000000 13.58876971893029
PRIMCOORD
 96 1
Ni 3.054184272413978 2.5196676721782465 1.8003760616145486 1.154799929147966 0.16938427626551475 1.42484777927383
Ni 5.929057448957592 2.223010077022143 10.034912950669337 3.1827945714977384 -3.211160524234941 -0.8820660475495068
Ni 0.5285095438991636 7.038970199738029 13.068496826484278 -0.5022986840086123 1.6119078755525529 1.2617519071201884
Ni 8.36728169272105 5.103138267300682 13.33880414870559 1.0452704202565546 1.0291740289153244 -0.9730494180076145
Ni 2.003775731928844 7.118705284465138 9.273683359468428 0.3263377829668444 -1.2951708489002662 -0.22904415401999265
Ni 7.178534451440161 3.8278875578779124 0.9828741864100845 -1.3956302771696092 -1.9296481466583737 1.6180548689905552
Ni 1.1557037891914868 -0.1267423895679763 9.839668764568396 0.6339270816815921 1.4967707906663772 -1.6194152396731916
Ni 0.17460015246205662 8.091560592215579 5.333497272212336 -0.37765057430820764 0.048272976073774926 0.3629592908446201
Ni 5.584120575671426 0.8722700740047378 1.2631985303957263 -0.10416541636602061 2.0824539497399166 -1.1864507232840278
Ni 7.454682637867553 2.8308090507733694 12.488554996214098 0.6174123718560206 0.39321628995694863 -1.1913957259941288
Ni 6.375000142777786 7.105177802112157 8.826829858497359 -1.8810769226178894 -0.7659959093261001 1.0684561143443987
Ni 8.30494571707389 1.5045587115874388 3.8892143109226236 1.5194396930188026 1.2827436788805069 1.1930103787794164
Ni 6.147706872027392 6.029664036999391 2.9388162950839125 0.14628471413357386 -4.404182987199215 -4.351845868358395
Ni 5.494562514740161 2.448075073397303 5.333809230624868 1.8602754124915062 0.1493227296289493 -1.93578022769804
Ni 7.616408935126697 6.845788095881836 4.161968092718409 3.6969902640542522 1.2144685486531923 1.7339684270314395
Ni 8.175158019193093 1.2444726696148565 9.951599628674664 -0.19366911695480837 -1.839496785183258 -0.14717765826148846
Ni 7.90047678006273 3.519680073876847 10.039478127795595 0.7599659010819364 1.0994919006042805 0.07530504049090257
Ni 0.48868006788951884 5.34978967168592 3.6766044398573627 0.09694473024786529 1.741073670617653 0.16820311147321998
Ni 8.24555292049735 1.475284756982807 1.4700603820205405 -0.659160145216768 0.5280092014008391 1.2486894175092753
Ni 2.116656397987554 4.895128854372624 6.734512715820951 -1.777657383278958 1.0638345564119873 -0.2576654173011111
Ni 5.69396521789388 4.636008397962643 9.214558884264573 -0.14680279142057298 0.4195976081639548 0.40284301441343523
Ni 4.179546392196033 3.9683431193301386 6.300663981172336 0.45843129320170084 -0.06756216332069008 0.5565134794881189
Ni 8.618101827083287 4.204438073862706 5.391710940265314 1.4545167670931725 -0.3641772224121212 0.5901651061042933
Ni 4.384510496811274 6.029209097647781 7.154297325371214 -1.156471146202802 0.5474146025106443 1.6750621396135346
P 5.562339193653517 7.245772630712835 4.328499106599151 -1.6220750458935418 3.3351337193555075 2.7610863447486835
Ni 2.932594767338729 3.11553609354541 13.033532416193895 0.34208013340276566 -0.008117744011127956 0.9449246347469404
P 6.3159972942169125 0.26683399953891473 8.799109196821796 -1.4348102898031805 0.2943607158396156 2.172905616064271
Ni 2.5845661633569263 4.595695200724041 11.27809507804187 -0.9941954559576104 0.5806967616025418 0.2945036691753832
P 2.5961624745847045 8.770460087489885 2.2689988747839958 2.701723172299018 1.4019865584049405 -1.6619664827718412
P 0.08855255211944088 5.727352195616132 6.816412012035006 -0.21123309398050072 0.6410978883984184 0.40276408154638377
P 3.131672513812727 1.9047103669965817 10.158678737051064 -1.5814115067359087 -1.1524162594071379 1.531105302282189
Ni 4.245456891320131 2.9033858040700418 8.775382716963838 -1.253367796821551 0.6252375243273942 -1.646538835362861
Ni 0.9014446847101405 2.578067029762495 9.71427169565447 1.1910188022706842 0.06827821555110822 0.35593632255956764
Ni 3.621391514629699 5.638583315192761 13.507250550101377 -1.7026868433093385 -0.22701092564004774 -0.5155954011175184
Ni 1.2329970565824033 3.228008242635328 3.8523623665468842 0.13556269973037943 -0.6253326551443619 0.18058708695986964
Ni 2.610544128781525 7.190028633425742 5.990731441425778 -1.020921816208861 -1.6630646009320262 0.47039155088737056
Ni 7.90504474253196 2.005855454679062 6.451417884028768 -0.5336028934385326 0.3217149394828524 0.24951707716236385
Ni 1.823591895261514 1.1299486512044115 12.030423641561375 1.151134821591553 1.217199317320794 -1.3226225173533157
Ni 6.561070337586359 0.47732515305239076 5.6640302085579295 -0.6645098395644555 -1.834692421816079 -1.125935696618106
Ni 2.5501021863533126 4.803147545058292 2.3324443453804915 -0.28644120388222283 -0.1844072320369082 -0.09915202231182924
Ni 6.266687439188305 6.6830683596304 6.352885448051249 1.2425817619496407 1.9836667669666739 -1.692682423798459
Ni 7.376163819570257 5.304193607282702 7.761959817316957 1.654416952559357 -1.4793459103217104 -0.5846812001715866
Ni 2.5361569025549757 7.547146739963185 11.619294949511238 -0.5126756563675622 -0.03771782626574795 -0.6265212761358242
Ni 3.408201363779221 8.852432731068793 4.888668715579758 1.0806966222746486 1.126221346179325 0.22416060067544621
Ni 6.449257386332447 4.652766878159712 5.478135490356408 -0.9224300531888501 -0.46417025256800704 -0.5321301655477482
Ni 9.189765618049474 3.3663562279076458 7.703745220816322 0.3553542248038525 0.7022096681080746 -0.017503813211718244
Ni 3.696614343746961 9.145042294443222 9.602585941729478 0.3075430188578445 0.8233027134673693 0.8963215290272563
Ni 4.3259811565551365 1.2300353085586553 3.610631734740289 0.8309640866673689 0.06245826643522147 -1.9603028954297528
Ni 1.173065760365182 2.0275811298375896 0.7392383800126645 0.26975860102021926 1.3578440595597712 0.41323772738419795
Ni 0.9897437706193986 9.008727609538305 0.8921899184716701 -0.7530527189018709 -0.103682306082015 -0.80255802472085
Ni 7.382560823922491 8.529769317058399 7.446877178420641 1.1400988754923655 0.5224119098187198 -1.6989492306437772
Ni 6.847821396249236 0.6501036912126938 12.404481275588878 -1.2287790517385933 -1.2744822102026632 -0.04471199819539397
Ni 0.5121224427646329 5.719961752271606 11.367644782944227 -0.42115801067253916 -0.5175494395200958 -1.1128261558193415
Ni 5.936420038872426 4.670212409622479 12.711682322330462 0.7624608995896481 0.5712327879761646 0.7387339882863535
Ni 2.2598601645025687 2.816640939537509 7.457638815205362 0.18421722751328917 -1.669860026587305 0.7406247775511632
Ni 4.3134285442413205 7.842012431142538 12.97224744329372 0.16256133980641035 1.4438955399339004 0.39248275422503376
P 5.684467198369448 2.8923372769595086 2.932034913401952 2.3908325771251793 -2.5843492276625235 -0.9611490670256027
Ni 0.21868191873777232 7.948347541224 7.726479190129644 1.5810808628693673 -0.8772076910159409 0.11547209962809145
P 4.079153347115195 6.4171795198056465 9.260203227945922 0.3191919159506825 0.8409227405419775 0.34552566874920493
Ni 7.718073953496732 8.485315243272488 1.0616279019644355 -0.8165293992992776 0.4752661053708524 -1.0517123192271565
P 5.462410372400853 2.5382644787348845 13.307223930122591 -0.8889943992382237 -0.3874755308184294 -0.4172414492269524
P 5.579014113561516 6.608551150731961 0.397660630347163 1.736928538101028 -2.3588079445894667 -0.7834207896707669
P 0.3692742717019992 0.846901170242703 8.000456665936495 -0.1375704741890276 1.1556291099174807 -0.3395324272802475
Ni 7.611905963993412 4.073053446012993 3.22503628168736 -0.6701233290964911 -0.28950261641636593 1.3322649255390862
Ni 8.411355102967859 7.616408935126697 9.932018667602298 0.46244478523646815 -0.22957251571963688 0.5422623688857435
Ni 6.568822875516858 0.3072836785829996 3.300386308133542 -0.06159694687619068 -1.1299098507745058 0.06977151226718306
Ni 9.007427782819418 1.0398242372027744 13.017512051883621 -1.0583092557183837 -0.7158614545635542 -2.310424668190073
Ni 9.25903709768955 8.72286786062552 2.9758864246588934 -2.1057291182177735 0.6487322650152247 0.07928253708141185
Ni 4.9879086286714145 4.48436504225143 1.3829831332270355 -0.4807901205128752 -0.49492887390710244 -0.06950411753840934
Ni 0.44442561034972256 3.4676034448323243 12.092456014824911 0.876342257691852 -0.7590449319295637 0.1537933638057932
Ni 0.21897716509249077 5.2671206923647516 9.172269950413265 0.053186097104676144 0.26542989173787834 -1.1010739003794199
Ni 0.9466823683180086 1.6487094947119278 5.930655307374167 -1.0100859019356219 -0.7639814499992327 -0.17709681441842404
Ni 5.219184939867538 8.07354870768244 10.811632762568744 1.2093217143449302 -0.2118146775155836 0.1069964580569125
Ni 7.347400511176616 7.243080132509429 12.11248634456295 -0.2954542060141105 -0.6647299259950616 0.6335450157518251
Ni 5.44278298894567 7.992996589017744 1.8724235997471028 1.06925495609661 1.9169381552908726 -0.08269567652801887
Ni 4.382235800053222 0.7659145380748366 12.046920299519355 0.5123771512905368 1.1350535997589744 -1.545529705237635
Ni 4.870961361877902 8.512760155994116 6.863334828139144 -0.12382535668879319 -0.5238725535246461 0.48710654964920624
Ni 1.741489269010718 7.61973277773642 3.6768086983417594 0.0839622019452683 -2.1495947092524723 2.9435881322327626
Ni 4.5528380569070475 3.2486569185124927 11.212283922817003 -1.3045029249344695 1.1860398609988543 1.9485611815127926
Ni 4.694667720890668 5.699118102386608 11.219364264644307 -0.5686619419251949 1.2681313282839708 -0.9345070389580421
Ni 1.811549929158689 6.914734618842189 1.5186813288881382 0.734626136765567 -0.3099467432033307 -0.471546233317104
Ni 8.726683780493108 6.617919187584507 1.7791099680459126 -0.15458037848346284 -1.1033572970969576 0.6179800714340326
Ni 3.959940668040195 6.808343801901347 2.821585851755215 -2.557831126767337 -1.0645570364003085 1.2254456164899865
Ni 3.1736569168327544 0.670514684489834 0.29431790706210886 0.12490110625147521 -0.8724418941961813 2.124303281675535
Ni 4.485172791712452 4.291897843090625 3.654400614155816 -0.8726624948474198 1.1764905267475223 1.7142570646454411
Ni 4.355171550870698 1.4719609143730832 6.9901310676711885 -0.4295698888853183 -0.7657614247177909 0.398917454106784
Ni 3.0329970968961315 2.267826245394029 5.15532073937803 -0.21222091181506678 0.4761163691862897 0.29097842963094406
Ni 2.6431604949490075 8.957115204321955 7.70897702335984 -1.6305979957628884 0.4898841123943434 -2.0059615738091323
P 1.2936061195887583 5.182297714480858 0.4844110655656337 -0.23478131361408597 -1.8005684835491764 -1.1977532927810406
Ni 0.06358102395432265 3.848573371661331 1.774625565865755 1.257630428752647 0.022426447324316215 -0.6699459229783623
P 2.88758362495901 5.1162572326848705 4.745184557872527 -1.5951229427847302 0.7836480751902245 -0.24000348124497375
Ni 1.902073575652555 0.9508232448653178 3.5477424042899455 -1.3681554687881083 0.5394634659843678 0.4324680363687198
P 6.098137051655008 3.0194510455900234 7.580835463173749 0.831854202581806 0.7253899628792797 -0.8605628833704082
P 0.6061454084752723 8.74649685347956 11.727040371582692 -1.8365492725191597 -1.697529724588431 1.3840425723320098
P 7.218253442178701 5.433962736210369 10.660131459348953 0.2621802744523291 1.6891805812927876 0.4552945473449321
Ni 2.7458282367878972 4.717191861033655 9.006935705561554 -0.21950047619561552 0.12323168896885228 -0.11274081673985745
