# total energy = -340857.68389400607 ev
CRYSTAL
PRIMVEC
9.38067371568719 0.00000000000000 0.00000000000000
0.00000000000000 9.38067371568719 0.00000000000000
0.00000000000000 0.00000000000000 13.72956419594033
PRIMCOORD
 96 1
Ni 0.686526471462836 8.74099605995903 2.324813269285071 -1.3572714748857528 0.42469816261531373 0.3039851263032571
Ni 8.852475984682396 8.205106320841594 9.510853868959318 0.48731198079179294 0.16897444242160578 -3.1373264118626096
Ni 8.32475681224571 1.1195177260400906 0.41859942518390336 -0.5235100279789048 -0.03481659345855294 1.775176782948949
Ni 5.014495341671373 0.7620868590136795 1.4460524065915037 0.0008204390187663289 -1.9770088953305238 0.8047730300942978
Ni 0.152720179945623 7.097051777905842 4.469549500288037 0.6674972043275537 -0.6449370596388505 0.39593291755716326
Ni 4.017170269573266 5.465152280718422 4.937261441955378 -1.3430067374366226 2.8609227947220472 1.0617496488585003
Ni 5.8923669165103645 2.544704700406571 4.432246313763725 -0.16214610664586265 -0.11877725274192448 2.552211466587714
Ni 1.5161232239683222 6.7346482158191945 9.185284459718408 -0.017714386560627553 1.3515029478330916 -1.5500108809374402
Ni 4.517450971813398 6.243804471191962 7.27389529800786 -0.5066852431120822 -0.18934580698910616 0.8367488116699461
Ni 2.265094963261728 7.392308478567898 1.1242362048465404 1.766868263083254 -1.3559165035197551 -2.4610162372291167
Ni 8.705330739040297 3.180911362697321 10.691857219923616 0.8917213112510837 1.8385267079605045 -2.949373114345656
Ni 7.255800916755849 2.8770056810023674 12.39743909381287 -0.7497568217594185 -1.1315065058376643 0.7036106622206593
Ni 4.833560909824835 6.2799013030949835 12.697800757032523 0.26780790505175167 -0.2104766754304504 -1.473124869112663
Ni 7.0725776005578735 1.689506213589825 2.7624845419071327 -1.2281537594497687 -2.1693829476229927 -2.3442110206118985
Ni 1.663343514998992 8.985099947635856 4.608328123171741 0.43632983331697117 0.32623982393639944 0.4481157702083056
Ni 5.680804585452973 4.614963073588841 3.782234114177841 0.910763158373883 0.6574135948393065 -2.1570282827123815
Ni 8.865496359599597 1.7196838404692483 6.0696888509645275 0.6433046662417501 -1.7219053252193182 2.5477130644967283
Ni 9.139186891720842 4.54111841123422 12.682918318411383 -0.8917117981693868 -0.6599229915247216 -0.25250109949135224
Ni 6.593103232299264 2.768302435656159 6.980151699992882 -0.38669365834708236 0.14438364045611907 0.5430786941394518
Ni 1.4420252834272713 0.33270528762672713 7.460905592126639 -1.9173495317966784 -1.5130754413636716 -1.2437572703149806
Ni 2.4067806568852297 4.1431996190059825 6.804495773165012 1.7329782952040285 0.1653982950345732 0.7112895189221556
Ni 3.6659484703838117 3.29140631669568 4.3742118386464615 -1.3534652137657852 -0.7799865671782373 -0.176726832673515
Ni 4.591248730800163 2.890485708924572 2.1233182771045835 0.008015671215624905 0.0757308151744115 0.5804422223895744
Ni 6.484878401305201 6.543751508639755 8.967560902259276 0.6228435701739209 0.8487196108785771 -0.4033155831744796
P 4.773984251972421 7.8835086887908465 1.2576556489188613 0.28118252658644477 -0.21443334608535325 0.31936186586964355
P 7.830029468759889 8.701503424223137 1.994315254149711 1.1564055830721889 0.8695874554665218 -0.2807901762440326
P 7.962240682076205 2.507838653270689 4.50700371565685 -0.09729954248412276 1.4735236472129782 -0.6279937469162926
P 6.349684133793158 6.6258793057579854 4.183878909948667 0.02759822133324279 -0.8261306698344676 -0.20386585498215212
P 6.145373063406514 1.456312049276622 9.341416390641974 -0.09565660756406107 2.076352979048502 -0.6867259706501786
P 1.7177420410399535 3.8052514729201596 12.73106743971903 1.5913583335359756 -0.6486695300980893 -0.2041461052267323
P 6.147371146877238 1.9330378801787895 0.25630908206066544 1.9935719418955282 0.534675300567105 0.39472218507851375
P 9.398965884935594 2.7882176056483923 8.608478098616928 -0.7644830722259994 -0.4721237030871288 -0.45379687975348304
Ni 4.459159466240276 0.909193643894134 3.7785137390393952 -0.6688550039070287 0.2660520987029096 0.3296516778314258
Ni 0.7755312403763122 3.4649300164207553 4.390014521344962 -0.599252156007226 3.1400669507222245 1.8686644078861496
Ni 6.429260387699949 7.571094736166569 13.491012690956344 0.782103099300608 3.1508912950312378 -2.4039197493264406
Ni 6.478565207991601 8.855036908567406 9.548912199706134 -1.256924660934874 -2.5268089673542096 0.9778000453187224
Ni 6.173233663913784 0.6270136021907082 6.461489567889452 0.20981204526325803 -0.35643974455854743 -0.6980493660827979
Ni 6.716262095619111 4.891148864880097 13.620619829289218 -0.4112836889816207 0.6505261236908539 -1.353136369671457
Ni 0.770824956445505 3.1063350078041245 0.901949887762244 -0.5255450561310626 0.06298045748727864 -0.7299256459661042
Ni 6.660287616418142 5.086041739000983 6.569761302251373 -1.1036522026295574 1.5453407291552805 -0.37580966444472697
Ni 1.775226808685929 5.215194852732999 10.996214112017359 -0.13807595307053638 -0.2688805692906402 1.444154192911926
Ni 7.43930565316097 7.685191868816374 5.691769654790666 -1.506760040668605 0.10949814143284368 0.5907081230919569
Ni 3.337981360978035 0.8550343250292449 9.8778033054587 -0.025078026014550357 -0.5571107467524856 0.13977005294350767
Ni 5.378465476244456 3.0026504228186535 10.712547233552852 1.3174707979490472 -1.0475059944552927 -0.16344477085262818
Ni 4.234257817364253 7.8894841778558735 9.574970772820322 0.9652124384616989 -1.8105603046545657 2.6670973546950325
Ni 0.8382738755590974 6.167173748786613 2.1201607423804263 -0.9355493641796275 -0.995982115544388 1.4496874640253292
Ni 4.413241069107925 5.131960136133335 10.67046646997859 -0.5055521579489035 0.7046982388578831 -0.9429225167152471
Ni 1.0780270068334732 7.691899050419975 11.185105231187215 -1.7337989913331107 1.0136844179201574 0.3621339667298473
Ni 3.1796918751330296 8.783049619579938 2.508858332487908 1.6254215937682714 2.5063776960830513 -0.28189112261769517
Ni 7.981245926732005 1.0561325147176595 10.46244909546386 0.7863027392042523 0.9058158416709367 0.11195920137882652
Ni 2.433825138791781 1.3192041243559984 1.4184976160426643 -0.42742893128291554 0.897268723431874 0.03956902054187379
Ni 8.814343546614365 6.68635650827326 13.0286289718776 -0.013234239302086885 2.2976159464611783 0.19216245050229488
Ni 4.596098539036613 3.0974796519526557 12.99985094149504 0.3032839864711745 2.339057758545733 1.3366558555179302
Ni 6.124501064709992 0.5847077024507301 11.883912880489822 -0.47910039151527817 0.4074686861109047 0.6305213984341528
Ni 1.8587054227984516 0.5679303677681539 11.938267317364998 0.9256200208810575 1.021943058384524 -2.660914108702456
Ni 5.97822822171004 4.402997373567877 8.872414606358557 0.13739898160816982 -1.0633645587541043 -0.271075777169746
P 2.1614479009705425 1.7804706052123815 3.599068020088651 0.4607599413348774 -0.23136611728494993 -2.971659179437366
P 7.1797142734176465 4.757765067367348 11.18914173502502 -1.597435650078307 -0.8469306372989543 -0.002314249955473434
P 7.898377056401628 7.570109765441564 11.116786723633549 -1.6337427120394572 -0.781853445183647 2.257863863374221
P 4.690674489984186 3.8282810265381215 6.275563679635535 0.7799724261108504 0.013085372429048434 1.0051987490466494
P 2.634168184257692 5.0326844677264555 9.031114965705994 1.5693738588450843 -1.5257892893859142 -0.8098504446172052
P 4.892968715552962 8.19933720659514 11.787311642118167 -0.1710686059464731 -0.42442973944527546 -1.2609402098521705
P 2.4739275183098206 6.992729307117511 12.380249947560507 1.7989949684144695 -0.5748814404723454 2.5374044834818688
P 3.6654231526638097 0.8340291207680066 5.773638545318325 0.3984703392670363 -0.4578404536952373 1.3871188972644883
Ni 8.328302706855727 0.18907122810243115 4.264745944538892 0.5748485303518809 -1.0011993980792693 -0.11174914225054947
Ni 8.837016634636612 5.702051811092356 10.227151784135932 -0.23518780502388528 0.42479380765291364 -0.1677310569328079
Ni 3.0460829414545647 3.031946266382358 10.79150623913864 -1.3709633705505486 0.9219654548476057 0.24991379838015024
Ni 1.8177963053532658 1.842908368504094 5.583704295247318 0.48428527815032724 0.3186987783643479 2.7972049448481116
Ni 3.53222696862249 8.842532470696636 7.855273799408075 0.4584809154927136 1.4067731811603064 -2.5353283176791304
Ni 8.626645649122796 9.259400223539245 12.288975993710093 0.38930384227641984 -1.0929127047248661 0.19224498291377215
Ni 6.920169797042181 6.62711755466942 1.5475137719405367 -0.3719355262013014 0.10689721347488686 3.5230592489583197
Ni 7.8088948112033645 3.465361527405043 1.5518804754880564 -0.2165979578368399 -0.6352419438382737 -0.1717167810534333
Ni 2.1229120939389388 2.2861639561032523 8.241281012335259 -0.6191861759269918 0.9137718632932198 0.8644444778130015
Ni 8.563391767230367 3.8980638572362962 6.758130855970658 2.1065266744184044 0.2463299376836338 0.18471062220993995
Ni 8.886584113788265 6.143487548018649 7.6352163303643605 0.05863992113039578 0.22406984073385278 -0.03943763717033208
Ni 4.519073828341263 2.3201407557791214 8.280217374128364 0.1181031094930353 0.6419018723569525 -0.8439581849341916
Ni 0.26088403656147197 2.184608784018505 12.386661637946608 0.6804409089724152 -1.2810187257696002 1.128662865741282
Ni 2.0329514343885298 7.251842272508689 6.833918255821931 -0.9296666801466054 -0.789911282491117 -1.0233774768382053
Ni 1.2154726360026695 8.867644533847464 13.622597275278086 -1.671303701012367 -0.34755221226093047 1.1178742597662101
Ni 3.7188742306740528 9.25667982820352 13.502325783283538 -0.6672614341676638 -1.0003218805703225 -0.7185127761434723
Ni 3.2460413793040455 5.287960737626902 -0.029708593200849374 -3.850404904364388 -1.3202704721813714 0.34827494935956793
Ni 0.022774399296817842 1.9655419141039374 3.043487309077339 0.7502365896093144 -1.5234339017798602 -2.873936433372896
Ni 7.9417345296489685 0.6074839778822623 8.194051197037616 1.1194997111847753 1.4340854958220142 -2.202484358162652
Ni 8.04496884230301 5.376307921323018 3.319204066690021 0.5646895875410081 -0.2572085322693506 0.3520513856828647
Ni 4.752577554882324 8.384277186056694 5.543600039594564 -1.1597140786201316 -1.7821778968571307 -1.7439759318661125
Ni 2.0378856686871236 4.074701940587099 2.5033800191221687 0.70110486507967 -0.539496118994516 0.18727169806889682
Ni 6.2247241811475895 8.69227284142881 3.4806088742281123 -0.36396099263625703 -0.5701009883645666 -0.5614566824260072
Ni 3.609711332322842 5.8238129540500525 2.4481597460763465 0.7023657340699646 -0.31411090188334934 -0.2352536252648142
P 4.887068271876507 4.646313284664698 1.06980109417865 1.3535292342345013 0.44645355201453435 0.10895898109992203
P 1.2562598046914266 9.353497760134672 9.561487930696048 1.6341875128863597 0.2948741651409244 1.1241292395369864
P 8.556215551948192 5.333109919526393 1.0517667492374967 1.4060532722751462 0.3069768619417294 0.1760532036452581
P 0.8810262953610775 5.162803790836333 5.882857727710964 -1.728480664443991 1.7537330112528764 -0.6390947419254607
P 5.659182132870732 8.132237248538406 7.404807288034527 0.760460838440484 -1.1952693500169222 2.240872471022547
P 3.9572183847779936 1.4407401311479797 12.026164228729682 -1.047266367640661 -1.029751498685349 -1.6065702653897234
P 9.233781604015558 8.086759743063913 6.6863386849934745 1.7213350545381452 0.8509037630140894 0.09518712412681027
P 2.7752159920783335 7.293548747207449 3.7174849529181175 -1.7714962487735684 -2.3231135765116506 3.0081984120139804
