# total energy = -340864.96226666076 ev
CRYSTAL
PRIMVEC
9.32981511064335 0.00000000000000 0.00000000000000

0.00000000000000 9.32981511064335 0.00000000000000

0.00000000000000 0.00000000000000 13.65512748659264

PRIMCOORD
 96 1
Ni 2.1336167050838726 9.255409605492325 3.0125123231632887 0.8953013152928582 1.7491567047361036 -0.7157868925718769
Ni 0.31631990962579865 4.988008258656754 4.466278479744071 -0.33123496315814566 0.6693643394432794 -2.0124507810779018
Ni 7.9741367983232845 5.804012527617284 9.936549534411714 -0.596536813958592 0.2896445413108689 0.4249336756648875
Ni 7.896932580198289 7.213103798630728 3.240443432586962 0.5641270301693189 -0.5929017883091661 0.5574107944914078
Ni 7.2162479462450015 1.9744314036157542 7.138381311263586 -2.2450901086483204 1.8422499224483628 2.1278161799248
Ni 4.010878086733242 1.648242415810787 6.8649244371555955 1.0252808645085052 0.8080992662540535 -1.2234512117677767
Ni 6.79278630850998 8.64426941164825 7.723558496261954 -1.1615241352456769 0.9747766851113665 0.01469873966275533
Ni 5.24079959280742 8.472320923425448 10.89572634356327 0.32673398996399855 -2.9738119641143106 1.717294051699552
Ni 8.482956912387683 4.243759595931794 11.293514196713836 0.6856736181262644 0.6107642704118836 -0.009812100994415358
Ni 6.885226114332633 2.284685067607127 -0.20092316131149968 0.19802739392350413 -0.7590734711746541 1.8831014092470861
Ni 2.84195491033897 6.465869595144439 5.334006309413141 -1.6665425321782974 -2.0174888577224417 0.9293866870123413
Ni 0.4175651947313973 7.870184000939755 6.279965569825401 -0.036377510187769614 -0.04030924114200799 -1.8223992062710226
Ni 8.439694560793049 0.6407017122886738 5.991296432556949 1.3839649250165391 -2.004990468145115 -2.408467516598123
Ni 9.316445254431747 9.107494720398224 8.27433758678237 -0.1687841807876706 1.5499311767394404 -0.08645925733550917
Ni 2.7512224606392017 7.224467513153536 12.554673788966399 -0.7756005222953998 -0.9933439065905925 -0.05689619896641168
Ni 4.559349914034043 3.1958627781499023 2.0538953029044813 -1.372683695675765 1.62806957291408 -1.4154252004083494
Ni 6.972170659191465 4.737437420447327 13.875657087205578 -0.6950617442093836 -1.2983929553819897 -0.6158504266855394
Ni 3.7285765481198134 5.403259659298121 3.27951109941193 0.581480948066734 0.6527514134769468 -1.1467983989997281
Ni 0.858152640658594 2.0410462818529105 4.447269914909284 0.5193420126441443 0.22210114704325618 -2.7819526466747315
Ni 3.4547558112315353 5.792546185130804 7.951326333925242 -0.9141523865610902 3.0150640287855626 0.5609396335802727
Ni 3.691425225271024 2.8542049572752988 11.178510233605952 -0.25552857346376634 -0.2433492577887551 -1.8404478362426178
Ni 2.693629513390187 8.237153609581503 6.788892043779421 0.5607249464663052 0.31449631024722613 0.5084677889338017
Ni 2.350161708429027 3.9125045186474465 4.68286173533023 -1.0377160049480643 1.611404196443257 -0.187417993838774
Ni 7.910507460847457 4.546670695613273 8.073074820209268 0.6002338031942049 -1.6939384076927473 -2.12110585778416
P 7.530690697117115 8.924798285434639 1.765634811527737 -0.02858603916780883 0.089850028184613 0.02860455111057009
P 4.663349360491969 3.1906847308919724 13.002016020866101 0.4733904856146944 0.9638135012316434 1.6044696741069528
P 8.026337112572149 5.80957309728526 5.597099625153367 0.9102260549234905 -1.0485994846297877 0.455140538265571
P 1.380999198412312 5.521785627522888 1.5169346012015796 0.4976262182336075 0.4768180232390046 0.36914279394751265
P 0.3621022442192931 7.852009521555164 12.446648527388117 0.779643839126838 2.007748490506226 0.6284447184107822
P 8.806029742023012 2.669465292853179 12.428651314486231 -2.2558010673079214 -3.2653712059493896 0.32916471089267824
P 7.5380892403162845 0.6549716641463392 9.335354923228817 0.488915577833487 2.7844643573529915 -0.27177640278119647
P 6.053043946371651 6.4350252271539565 10.907675037479002 -0.9016470550052278 -0.8407659032491391 -1.2768900483132073
Ni 8.616858415533295 5.216877947457271 2.022324142334913 2.1079063283747503 0.6074868852121924 0.19384678018325324
Ni 7.525167446708656 0.6652512541801906 11.621591539050344 0.0857545179590007 0.5151943090243579 -0.9839331547996538
Ni 2.5565652030005417 7.4900127042440054 1.3923311915645318 1.7203888885747918 -1.689629238794432 1.0074898590736712
Ni 4.437754436714035 4.6819903306205175 9.514797118762552 1.7826422380880589 -1.9027078706241036 -0.1475160154375137
Ni 4.76054737190299 1.046627962958327 12.208229773058788 3.324119627633191 0.20758624125653283 0.3894894759246647
Ni 5.180258424056593 8.077193933478414 2.327775750607986 0.2730609259205749 -1.4635192277020987 -0.1852289566072552
Ni 6.271902743806836 3.3640700106061625 11.578304929937024 -0.6150569842499666 0.8095817643368508 0.38167357942467167
Ni 5.314141267572446 6.637939370960668 13.034993184537958 -0.15961511269389286 0.8090631728292195 0.004754998186482133
Ni 2.049023273574587 2.8122767692083825 8.176553662996938 0.23227834468657416 0.47390907712232583 -0.45894345695142896
Ni 1.8683793978844154 9.157847731301015 13.593665298446137 0.40235476192310704 -0.787989897098688 0.5382154525098796
Ni 1.1400100800837751 3.350933631256314 13.378460989499116 1.5761062924729115 1.26042753188181 0.7072901679547754
Ni 7.727885664402906 7.115765839996518 12.033567241687642 -0.6185351726065541 0.22860629515162564 1.234090179538862
Ni 0.9304810975277442 1.0631603949241872 11.968036487939443 -0.40240438421411995 1.700988372560993 -1.7266433541249362
Ni 7.740126381524354 8.068041385081965 9.871113944775281 0.025302997541162872 -0.9879990973389112 0.9223794024565728
Ni 3.3791376616359954 5.137985032839148 0.37351167483500997 -0.9588615565430066 -1.1865875059722082 -0.4355986115779014
Ni 3.8939381870379313 5.317005520740347 11.489929191475731 0.24828526163779177 -0.5495925839985696 2.247000695407472
Ni 6.689570566501904 3.3206397223437025 9.448159848969686 -0.2094448917318264 -0.6797904198726099 -0.8390574051984646
Ni 4.80949158075903 3.381134242020134 4.898135084907356 -0.2671157640807335 0.09117800296741717 -0.24857991006007513
Ni 6.036278269033812 2.213423941560152 3.289055500033304 2.3897565704521813 -0.8695728001785024 0.37068597006491644
Ni 5.163166203197984 4.227152525446901 7.102905623167093 0.4864020673830139 -0.15046892741825055 0.7808427445309455
Ni 6.366273821309474 9.14402094565011 13.535877358066148 -0.7076035854301362 -1.1060145322141468 0.9118998430814875
Ni 3.0367801046454552 0.11093989574652723 11.235821420445616 -0.5138329099004569 -0.2523301211311267 -0.7189056407065167
Ni 6.470058682025179 4.966754940362042 3.142577406430593 -1.1294072001064743 0.6061730514967754 0.26631280856346395
Ni 7.316814020827399 7.745295098967405 5.669512983337918 0.329949925798135 0.3469166355594606 -0.31613873094665557
P 5.8319833126249865 5.353429118028562 5.262849677292811 -0.153295084013136 -0.5203236598311233 0.3554586115922007
P 0.8521041216724389 9.249363885450633 4.673959225972542 -0.6190501645697596 -1.1099904861427594 0.5835519716631499
P 1.247890729531428 1.5711781449089783 1.065453663421483 -0.7054122342057723 -0.5263693518045709 0.5895809514660492
P 3.207403759155415 2.3712564198707935 3.768746999063497 1.4245950398330756 -2.2939405544921203 -1.9048370011519646
P 7.513383890516286 3.503625381568541 2.0194020443147624 -0.9079310882417267 -3.0156520400785483 -0.32402970365895806
P 1.1599012454061306 7.3505972805048145 8.29327804396854 1.219210691323868 -1.2232583790306804 0.9476428050090516
P 1.788581491223015 4.886397244807893 11.8735422568804 0.45840506794945574 3.380002040623108 2.5579797365300587
P 9.292906131491643 2.558552453569801 6.536723008281195 -0.48019799545483105 1.4519870586927832 1.2345822886839317
Ni 3.191850957751867 7.106687930119102 10.29748181984516 -0.04633513562111375 0.6935342518212636 -2.396280744723944
Ni 6.25577149388078 6.437684224394515 8.499619961761852 -2.6371560870509096 -0.5861148472943196 0.4215233644317579
Ni 3.46451479759513 0.3076282540843791 8.587709274906356 -1.807669356260016 -0.6373602757328571 0.8627678614415271
Ni 0.14857077108010525 5.944575518586612 13.187084094771969 0.631161603121313 -1.9567565728393914 1.0059263712412934
Ni 8.368004263261632 6.692322861891254 7.8039049960382485 1.1308735002393557 1.193447209206519 -0.7894019469548663
Ni 4.33793474732197 0.5941645956714559 4.371306562163215 0.3461604741197264 -0.3383170668159077 0.5325214874488958
Ni 1.6167916098531603 1.229305738292154 6.339993598757874 1.11718160457456 -1.7688464698555473 1.8654096483942775
Ni 3.107630718837747 1.7540238569106301 13.527875175844299 -0.35431472779574463 1.5163080893683563 0.9307807391463906
Ni 7.343385333603228 6.804905738038 0.8825538384935323 -0.8015064435278841 2.221779716057154 0.2873632014758599
Ni 8.671409843131705 1.6227160423014229 2.3107749619351923 -0.1641698219441108 0.05676610114645062 0.2989876730886657
Ni 8.961856310134635 2.3482584261936794 9.121857037423192 0.37911584599982445 0.105751787016534 -0.0969537291089298
Ni 8.837835080946048 0.44421207900774784 13.701418129429946 -1.4612651415605995 0.7504011402116367 0.0024458904373312715
Ni 4.976084755241196 7.342191117298697 5.555370162143378 0.662799027520936 0.934378740910294 0.6455512961840818
Ni 0.9400441577788766 8.46393341984909 10.524484612688358 0.11545667300912374 -0.2410625186371074 -1.3850219055261437
Ni 4.22484806117175 0.8179458034368817 1.8813758300110763 -0.30338503082541296 -0.04757800688927935 -0.5503767704627619
Ni 1.5340361518750683 3.56999768461884 10.504274367697136 -1.040170637136144 -2.7031915293144286 -1.6865685975912375
Ni 5.394256387939738 0.7566143993657899 9.581556609130335 1.4284375535076175 2.197956645495627 -0.07162142099172826
Ni 8.28413855731292 3.146442748735026 4.666039146121628 -2.041701193302587 0.32293749903604385 -0.11936963491028474
Ni 0.8171117179866854 5.452269176858316 6.624907485537467 0.2495402170908154 -0.2591466298323279 1.010714793768872
Ni 6.819982718882712 9.154974148318235 3.875024786314911 -0.259200880109031 1.3449186097473547 -0.27101921290019776
Ni 1.2716724276583904 7.2136635875234765 3.694545115366613 -0.8003684732686991 -0.7146586925047047 -0.2849563918065802
Ni 0.29610499972713655 8.050296077181816 1.3530386762009765 -1.0019162216406357 -1.471721561007233 0.8960952719490631
Ni 0.7814074494256527 5.21169990019934 9.125352919058411 0.411408130374627 0.968803498247067 -0.5933314196474169
Ni 1.9381850728102425 3.3166279019456666 2.175562619799059 -0.2346219052180862 0.6464087590883706 0.20063115009493834
P 4.537219593140692 7.738335057067558 7.940620371351414 0.0038749095743739717 0.6122321132066617 0.23058604458581577
P 6.118697853676255 0.4408841340403538 5.916356560503124 -0.5349740627544465 0.3871091486179462 -0.7186413313015365
P 1.885676874670366 1.4589777911722774 9.909006987906963 -0.31357662664643415 -0.6929395556600583 -0.014419003638807425
P 2.8435876279428216 4.569696678735024 6.514656130129021 0.6468448181845248 -2.0673996265099555 0.5024650343831475
P 3.6156018197481425 7.755809800336212 3.934328821612763 -0.17314528596984374 1.0327692024657504 -2.158495868396844
P 4.076438695889054 8.665644017536389 13.475985544430909 0.663960909039521 0.6111833602271732 0.7154817026266324
P 5.090263029732278 5.7876480323192485 1.388275521036564 1.3952214717669649 0.31234275423933305 1.2268137004821067
P 4.827992603664391 2.5966834069809015 8.681875096481653 -0.8931403030857973 0.9144694035808767 -0.5805918605935614
