# total energy = -340858.93693183764 ev
CRYSTAL
PRIMVEC
9.40598852837550 0.00000000000000 0.00000000000000

0.00000000000000 9.40598852837550 0.00000000000000

0.00000000000000 0.00000000000000 13.76661498316282

PRIMCOORD
 96 1
Ni 4.846642429475096 6.807791000609481 11.932447168366956 1.1530420659165947 -0.40080824337159365 -0.2949721241713694
Ni 7.550252691077072 1.3196695716006022 9.761011737471035 0.29944610078232303 1.110713480351713 0.5527961785375318
Ni 1.756953970027641 0.5721455782026293 3.5211834720445983 -3.282736950921346 -1.2238744153481245 2.2477398875663415
Ni 7.068468561762567 4.64687804888156 1.2781863411772256 0.9530590909286167 -0.6609604316503004 0.4612865032623088
Ni 5.538029603198036 2.5828185592014603 1.1975535060402973 2.258789203401968 0.9604708100116555 3.317628620592209
Ni 9.029532479001796 4.962223214329289 13.153559853429414 0.16569628589096624 0.7047823139312571 0.007276993277387467
Ni 0.13250121729838363 5.097161523209356 10.835826501522208 0.9565843304730557 -0.8255244037090362 -0.5200228407612528
Ni 8.15855676969771 0.8979755988649551 12.438039735394918 -3.763883426332376 1.2129994203068335 -0.28533023020623116
Ni 8.14229381583924 7.555275488856381 6.732508291646469 2.7612745495000897 -0.24208890301909275 -0.8726480966697165
Ni 6.771088834064799 0.4962590047874969 5.791339453675968 0.43734567617599523 -0.7604880921339935 -0.12048009436564412
Ni 2.934151036079214 0.0819694260815718 5.451400450487496 1.826082825770197 0.6565602457000758 0.4024691760137843
Ni 0.6503168661881624 2.190871024625106 10.295665986706354 -1.6712931594894056 0.848119772511049 0.12352993693556147
Ni 5.258615313250227 4.947248880874872 5.962430619381033 -0.33244415297489843 -0.750985809070513 -0.37482467482363835
Ni 6.64116391697569 1.5612811943666882 3.4337519885277374 1.0630858511714207 -0.20296108377969563 -1.330555141936831
Ni 1.565052995695345 6.086351694105849 9.10547266655053 -0.36098416939612027 0.16230885747597207 -1.4245215062826628
Ni 3.443212531610936 5.393092728701107 7.610280768132816 0.7271200581965089 1.8525613316766998 -0.20753610474488773
Ni 0.03159001187604238 4.613251640527578 5.337991508343493 -1.4041748243055108 -0.3992884642929575 -1.512172727043744
Ni 0.801667684141478 8.799546657837256 5.9236920563584095 -1.0641040080232902 0.4340711191897815 -0.39794866243561144
Ni 4.732444324908465 3.795335111510154 8.67427488318527 0.16843579630931635 -0.5911187282668142 0.0971146801668263
Ni 7.723539214463207 8.73167304589814 8.522497973959664 0.6491261580195337 0.42235614474569844 0.9872658187173127
Ni 3.4602185585491183 1.60596904502117 7.490428723968542 -2.0388272141889012 -0.5494583724135504 0.3294629588593874
Ni 1.8508351397566207 2.8976746132549493 3.0286831002020667 0.12035745274485078 1.1340477842022791 0.9400886468108777
Ni 5.286880308244275 2.2721199519990094 6.616262503415876 0.6523354089854507 1.0485017827096588 -1.56098357789886
Ni 2.4437416154470575 5.570442639054771 11.60421015528567 -1.142221064041691 0.9900420959108691 1.1823061049880348
P 6.20078494838125 6.242980212122778 0.4261232526500218 -0.425972401342047 1.928895070542433 -1.8437537606873986
P 4.139227451602452 5.163643048872559 10.579629953219426 2.442704326293806 -1.2697727205421359 -1.404377170124304
P 4.8028951776556905 7.862964179786587 8.64235001812394 -0.12918199301501623 0.14476699193746678 -1.102301602138934
P 4.397666387528056 6.531433656875672 4.222358517245344 -0.3504804416513189 -0.8541171277450644 1.9704757221976965
P 1.8365568494401605 0.2598695867537551 11.391680907901312 -2.2655609749081624 0.7014095408042824 -0.6555256337879743
P 0.5261371267837002 2.312669167779155 5.022652927087611 0.4426609177413215 -0.017240275137686438 -3.4776047161699464
P 4.270281087293654 2.140163341426135 11.17718298715514 -0.4258952682472084 -0.980116352156725 -0.1055234730558118
P 8.004289154756824 8.3552924220423 4.5837732730362815 -0.3975773951391217 0.3695323160764475 0.5839900876418329
Ni 7.49915936235572 7.637342737216801 12.447428792966651 -0.5297922614431908 -0.4321181092284687 0.8519571439792682
Ni 8.755855841947954 3.0931686751372376 0.8325729400655848 -1.0929834100618014 -2.522315193248914 -1.463337707818912
Ni 1.2702128848522825 5.760236671996495 3.649034368702364 -2.3921263562359383 2.0158654631864055 -1.261217374772957
Ni 1.4388904739465413 7.056287806848328 0.9368044593757457 3.747655651619604 0.4502235605799279 -1.097268924811033
Ni 1.5017036641529462 4.415866974986786 6.987878994172053 -0.5693630817572775 -0.9927823776601676 0.3074782270581801
Ni 7.445799190441834 3.997385147272925 8.71439142350128 0.05923770261539476 -1.3649480175944042 -0.1557754272328285
Ni 1.5297617274032766 1.153954868836834 1.3137579079221466 -0.3530605436736694 -0.016927114772641815 -1.4639259762222143
Ni 7.368011666781013 5.496125925095381 11.279110979918201 -1.3276752492858748 -0.3169918229755702 -0.06313163835316224
Ni 9.344661306717459 9.074756470992272 13.765513455530149 0.259966554630462 -1.8910628301860075 2.0202180837281465
Ni 6.157310470224016 8.230418520697551 10.201667242122989 0.14824183785994471 -0.1274056178408838 1.2672815786891658
Ni 2.5054354930397214 3.2725220610096137 11.616999477646205 -0.32790075657859014 -1.0572227075224243 0.9361908544183682
Ni 2.360263468834023 8.675500483467374 13.261779511800299 -1.5697317564051352 -0.1020995349759274 0.9285672764348395
Ni 0.6009608235151962 1.763773311581945 12.825130017586936 3.128422681615077 0.07321293384856424 -0.8583717892563605
Ni 6.157921859466815 4.087090058174166 3.3945854530351545 0.2685959481706858 -0.5849894754406247 0.14360793863235913
Ni 9.309699248017665 2.584267081407478 6.879080867517596 -2.1047911797845362 1.0532763212801666 1.7671549410857372
Ni 4.147448285421021 3.2033692346547937 4.344206512137652 0.48384664795101184 -1.4954546429581148 -0.2004087496714871
Ni 0.3904651508122738 0.8550918167761499 8.147302504636022 0.4506123113779143 -1.1972246739710801 1.2535685999784476
Ni 8.93297060259285 6.769000704650929 1.2829015631374638 -5.308750301175031 -1.3670946316237618 0.9201224881015959
Ni 4.103456477904495 7.71510204291257 6.622127137152577 0.2946581924753764 -0.8742054138545072 -0.5286581478387476
Ni 1.4117636035429366 6.555719918797345 6.34548667316941 0.12526131780437139 1.0608140244181086 0.2540015952962787
Ni 2.5082478835565998 8.931004751027539 7.915348950708499 0.29249409494452205 -0.9991445724327696 0.35775486382554517
Ni 5.92295086447637 3.377135463446816 10.751905332857852 0.35323332180610784 1.0227123324503806 -1.701788242754469
Ni 4.816816040414822 8.393170337130828 3.200627389050546 1.1828678910287758 1.5063918586959089 -0.4647222684167351
Ni 3.5508640682854353 1.25726083889328 2.6752248699570402 3.799028606774941 1.1690374129035865 -0.884165867501329
P 8.313050128359018 8.913584860601924 10.951011294266834 -0.21212243856398952 -0.8863723882343445 -2.105763828110451
P 5.596243265100917 0.9883906618866783 13.710488423678179 0.24280624080109153 -1.6480403596090518 -0.7820599047674982
P 0.563257859809992 7.988468282350838 8.113285747765483 -0.9140359155878839 -0.7445997030385112 -1.6796212197391265
P 3.8859429972930677 3.5987311430024755 1.9588789061453467 -1.5631332772520112 0.5647687775183757 0.8980822204721048
P 1.095054569784347 7.974735539358722 3.055706504733813 -1.062046354163313 -0.20360283112875258 0.18763885160032845
P 7.135486228761764 5.609543332628898 6.810385172196622 0.8535039196410977 -1.5101919491682894 1.7579236522954562
P 8.401758004495077 5.110847236259718 3.259521103911187 -0.15292304538569793 0.39243416037528545 -0.12213202814677031
P 1.3216730471193148 3.462541837671757 13.696101964495682 1.4474750297550425 0.9983945816406224 -0.18260617427242745
Ni 6.38339280622299 7.066728453917676 5.567040493068299 -2.657825699585119 2.092090444388416 1.2579307336018852
Ni 3.692151419302268 2.301795845245671 13.715857361828794 -1.562413368366851 -0.2075908692422231 -0.9455545550214555
Ni 6.403493403328573 2.9906245901372035 12.880319654235048 1.9485884352063023 -0.6357811041711954 0.8003998407272668
Ni 7.182121119004855 2.99045528234689 5.310017158389485 0.991499397182686 0.5471873169911867 0.48042605230523716
Ni 8.659500897282724 2.9463600089585062 3.0947488811801662 0.17739711926766225 -0.11942774184172981 1.5552862704037667
Ni 3.0444738734453303 7.128977284823035 2.636265266208174 -1.6435530132616598 -0.16413511205143347 -0.4291438570914932
Ni 4.729566092473131 5.709463146879068 2.113560384573668 0.5874425649668077 -2.112956232093832 -0.3614078871971001
Ni 0.7745436355343785 7.921460021339992 10.239359859241008 -0.14213443941062617 1.1242017446461348 1.6791306532559536
Ni 6.398367139677407 6.51739051626798 3.576580040436425 2.7246442998715654 -0.3969546739534583 -3.6174074221236023
Ni 5.49550512986423 0.561927853057194 8.390242252957236 -0.0646259635105016 -0.04199871302928896 0.10785494940246586
Ni 3.350290772693734 7.238651108992949 10.056815021521215 0.18312528000069106 0.375131921651412 -0.3551973875110141
Ni 4.674352940854143 4.589360430116636 12.935758549574453 0.35408744227628697 0.49051943198549713 -0.611470809560605
Ni 5.941000956121487 0.7480497881467805 11.61485114990689 -0.6318300899432473 0.21664115236994946 -0.38941491393298744
Ni 8.513792731741033 6.054851039119139 8.69736188159222 0.16958147987798533 0.6432319040222857 -0.19960039483757885
Ni 8.297737179323972 8.746525101503996 2.386002015357055 1.1469107562078762 -0.6095959611353953 2.0821888690039883
Ni 2.836563906940033 5.04344392373814 4.806957624024386 1.684097253232609 -0.18993278984082773 2.032537524525448
Ni 2.297882954091753 3.92411249802047 9.28003370135819 2.1939179566498797 -1.1709356583675643 1.2263724991796299
Ni 2.755258543636025 5.096192706409227 0.404641856454546 0.17783703501855824 -0.6766377331762412 0.46273300590084826
Ni 6.0295865544089855 5.8852892871199085 9.237605169105562 -1.1294604219419129 0.48606859530299523 -0.3647611199400492
Ni 2.635435658035637 1.2778411414047526 9.656812198521267 1.3768900204476289 0.22474938329938066 0.4943040958389099
Ni 6.4528372182166835 8.483458419309816 0.9814744386523613 -0.4733298075800881 0.23410742747551294 -0.7047614879956507
Ni 0.8008531255503017 4.581591083738904 1.6967076740421594 -0.38713023166386873 1.2656175607231817 0.5177664406269082
Ni 3.7673617021549806 8.984741162475457 11.653191839622277 2.8252945039954764 0.6500057324110096 -1.3428051629487776
Ni 4.2401348946294535 7.174963161869923 0.39363967188065685 -0.6685549561681067 0.9928086029124128 -0.30343953821243225
P 3.397226654564049 9.020747285882182 1.3118400268974257 -0.01905007465291558 -0.1706268904233642 0.5628394217061468
P 0.3588111782154463 3.970944914018926 8.729245360304807 -2.4384038991462393 0.3552686070685817 0.4215575601038031
P 7.131338187899077 2.030028623827034 7.629801956355993 0.6176607404214008 -0.4990786344094179 -0.01940154445506336
P 7.990161360253976 1.1125120841633658 1.3869449626806096 -0.07022556908546615 1.0234121867308825 -0.39568712009494433
P 8.114263970553962 2.9370480804912495 11.39128209399524 0.0586715456992796 0.9713596890100175 -0.0805007257592291
P 5.010344250731801 0.802333628116712 4.383234779601478 -1.9264484087741531 0.12387112232506406 1.8169659510705933
P 0.893804043031391 6.8527422189377845 12.439788308629325 -0.9901511106849077 0.047181285671492934 0.5557292930239268
P 3.302545975825254 3.486828099593431 6.51097563221276 1.9082100313892556 0.2065251469818701 -0.48241248660764663
