# total energy = -381175.5696768877 ev
CRYSTAL
PRIMVEC
9.18852938999882 0.00000000000000 0.00000000000000
0.00000000000000 9.18852938999882 0.00000000000000
0.00000000000000 0.00000000000000 13.44834155304721
PRIMCOORD
 96 1
Ni 2.295561093264576 3.2693889969405285 11.309477122167673 0.7459652159274701 -0.4422415708157158 -0.3965312132627945
Ni 6.3604653937590045 4.164921442220108 0.9781152714599859 -1.8854963918418237 -1.574652333635204 -0.04880776553132239
Ni 1.8134665250586732 0.7952074878214411 10.777823302183027 0.023419407365204828 0.6282649982998083 0.41562114001471
Ni 1.908025680364045 5.519090140333458 11.773256194865832 0.6233953289123327 1.4192381463965364 -0.3906976373001529
Ni 5.778133159123571 4.07009581956425 4.754970203784455 0.6074053812419796 -1.3399535524325956 -1.430596251721833
Ni 8.185794310178986 0.13643404000784698 0.15002846914731813 -0.3954050700781513 -0.4324778065607326 -0.829074840064456
Ni 8.515662513022525 8.941229248807998 10.941543598880685 0.2784715554131849 -0.19198041639847582 0.48419194710557256
Ni 8.952264672529866 6.424959681106046 2.7007228619733175 1.3738064964262986 -1.9549755696795688 1.023188757866167
Ni 5.781358332917389 1.9100655338746653 6.249417422576119 0.9577639526034538 -0.1749255177987181 -0.04324338406966746
Ni 6.538612600353169 1.0219114776447613 1.5664632362458837 0.6112854330226762 0.9346250525931453 0.1457329553951619
Ni 0.8103933702403692 2.3163823007198254 4.867613303658528 0.43165839598323075 -0.21841778465439804 -0.19560001542893407
Ni 3.1110706366342846 5.917256681665465 5.6995014005538245 -1.578403058926888 -0.3110541173348966 0.8623981368069342
Ni 5.239768037318396 8.442191032522889 0.3968149086679875 1.0961543515906154 -0.9065421783140001 -0.5124085187491046
Ni 6.849129760433796 7.251045221731267 4.564030726661077 0.9215417370466259 0.625868987263806 -0.9746964666927341
Ni 8.014180147936402 2.9262893118659403 0.08333812329109531 0.5764158748390008 -0.47208256543654825 0.17500367933482117
Ni 4.634115315250738 5.77376860769319 1.425067390401393 0.4624355292650874 0.608101635978056 -1.1272983812935875
Ni 4.098773219594185 5.267728732060816 7.784801377225959 -0.14379897159724267 -1.2146608671696566 0.36582761353135057
Ni 2.5359513975206385 0.16003018331988614 7.995321610345425 -0.7465555412133014 -0.29156438404140106 1.4101631806784616
Ni 8.049666248197733 2.9309662732934436 3.5692171408549194 -0.6221735406900898 1.8675606332990093 -0.9221274343467668
Ni -0.02100130263006102 1.0269835458333305 2.768166667234364 0.6051937183026416 -0.3227184410467023 -0.1971809867628088
Ni 6.545834784404284 2.732778884236834 10.748748038833225 2.640206700951776 -0.23698989122963057 -0.14581600202727146
Ni 8.813894609392795 6.3592616964171516 11.101310071408882 -0.7694098201036556 0.9186541310861855 1.3393462578659
Ni 3.8276472847389127 0.49159734523600834 5.974654667813174 -0.21097084145804954 -0.18537808059060976 -0.4755234727972972
Ni 0.6652596306656068 5.992290212150711 6.10448491179362 -0.03503333745504934 0.1374030953732279 -0.029852307474742133
P 0.03737985615564895 7.399991282123851 8.248190856280647 -1.0788770525674065 0.18051149652692783 0.41055246724255107
Ni 6.234472279625562 0.10649781146009636 10.612314917678313 -0.7224267664858978 -0.2534696340522086 -0.6705311060578709
P 5.837950485043109 6.22685498881338 8.637452793841744 0.8284282076193927 0.3101781424878464 0.06928608799033228
Ni 1.0736612748150902 8.390082882708803 12.62464418869914 -0.19730259994233762 -0.9155122430230943 -0.06522657320897798
P 3.5951499271748446 8.660308341690017 10.319638206139217 -0.02067732584369342 1.5678304256173645 -0.49455349284555467
P 9.01895501838609 8.189534041615124 4.256695554286431 0.4693903633163658 0.5153395763529706 0.45275378320094933
P 8.076579450596862 2.753921690218533 5.937348319892141 -0.3534600931049332 0.8127311085991099 0.7879826980098364
Ni 5.939658316164979 8.566668039317356 6.3035874783712105 0.17452108327144783 0.3081328299230435 0.4197976399899028
Ni 3.3437977074315306 8.899632776544133 12.469437064423056 0.73311638498926 -0.6803501490308218 0.001658361539029402
Ni 0.2954911580719913 0.47806264153716344 8.94426330119181 -0.44685978631401746 -1.7543014821618368 0.11663038160225074
Ni 2.079621465547975 5.363013781183031 2.1437325912220753 0.6167963355385765 0.7687755289537663 -0.9986272664767188
Ni 1.711097119825251 3.662520224201274 6.7973698558812075 0.27272976783340125 0.340455196204833 -0.16033630713063352
Ni 1.9675214077571346 6.903728001695532 7.826383147842898 0.13246194931786864 -1.4040272429840528 0.627012871060262
Ni 7.276249357675552 6.410790968883629 1.0127624589937498 -0.5094823462412451 1.29513871011075 -3.151075900238218
Ni 6.986002093290547 5.061675961900195 12.33001767123683 -0.04961277793112101 -0.6909970872217067 -0.17602029352479362
Ni 5.181641400795048 2.5596945573019116 8.940551135343656 -0.5285838429573864 0.38045281964369315 -1.938431292167642
Ni 1.8088538833364598 6.930650392623988 3.8665726515273833 -0.7671439068876144 0.5752398522530288 1.3079656866720892
Ni 3.332073144010128 1.918693562912829 13.223135371009242 0.09262399138532434 0.7162481484790116 0.21755517954378661
Ni 1.5303863135488203 7.63882872492363 10.346279428070265 0.10872501071224501 -0.2955112845042911 -1.0777475669486534
Ni 0.6497953358080673 4.618412118630692 4.121620497766064 0.6937877625929665 0.6776252939004911 -0.5118541889075313
Ni 0.6142274576357258 5.11608124404606 9.455986282213006 2.5277085963503434 0.5092943986001551 -0.5337867273145647
Ni 7.182020989425957 8.118295373741978 8.719514630409302 -0.36376121792062516 -0.118242463284377 0.22462545612700666
Ni 4.263229517490944 1.8272401305200232 10.88094524796834 -0.9615532444425569 -0.9784963000547986 0.3018721937253124
Ni 7.955814609650549 8.271045485275987 2.2328282469895426 -1.9468843080310019 1.982277085707999 0.7594321400656534
Ni 4.7925071837915985 0.2652902998796197 8.607785789203279 1.2133352063796974 0.32409860922368056 0.36650484210403333
Ni 1.101961945142614 8.245538127863908 1.6725163228865476 0.7294515345431631 0.40252831138649386 -0.15633001418471787
Ni 8.66084127639099 4.224279341673291 7.618767408843733 1.2445743668996374 -1.5004001598888483 -1.1934045288940416
Ni 2.3342631787903976 0.6364333764605721 3.4977257884252775 -0.08610778753336139 -1.2059651391678716 1.4306250480772391
Ni 0.13816699663894144 4.008918591304298 11.647904440079422 -1.7033417032845182 -0.5618881135364711 -0.15105539604933985
Ni 0.8589786379104386 1.4669395185450702 13.286665781629868 0.3869757083638755 -1.1049567803735938 -1.5391862795181106
Ni 1.3326307853705854 3.222040505317889 2.427478971108145 -0.5681860307300408 -1.9251880540044906 0.9921421729730074
Ni 0.5029635560136534 6.325273326436142 0.24137715230579496 -0.1681267497093298 -1.0948240628149661 -0.015483954568212045
P 8.482142758037199 1.795006769640493 11.746130737439247 -0.6537577432542742 0.14439572464097714 -1.1358740387777404
Ni 1.3959673180224101 3.525243596054131 0.23904050929790885 -1.0402853083371375 2.166843469030591 -0.49161986413852754
P 5.963677131826065 2.6143019870929742 2.937830104700801 -1.3017173917695324 0.15628501987939536 -0.03698043387909115
Ni 7.664382024982346 4.734711334324025 9.76302558394332 -2.3043774335547282 -0.07240792144876562 -0.03002842804129022
P 5.778776356176469 7.713706050410316 2.385063800881235 -0.30956030639818943 -0.7071904091521176 0.6447105454503412
P 2.772574404752582 4.706061499882072 9.334507492537977 -0.5670789137087912 -0.6662134525191237 1.1905421197445818
P 8.508100353386306 4.568591912619058 1.6078299952765693 0.727405707757728 -0.5623581111943541 -0.163450427279583
Ni 4.217884125261617 0.8193687256870982 1.8262312299999055 -0.8593644921869329 0.6418229394899011 0.3183066851322518
Ni 3.8785057945645116 3.4810467699906926 2.165088571084163 0.4787977726731948 -0.11307608859208915 -0.012997697811248583
Ni 4.073458821297975 2.042297659421221 4.155362615161107 1.0108960565417429 0.33551353592884153 -0.09177938399684193
Ni 3.9165279289201256 6.605394831502663 10.151951221331043 -0.7204498452651851 -0.25537559282566985 -1.2419479850203836
Ni 7.587189190105227 6.214450474221771 7.12304808935158 -0.05125108486549238 1.58903225650596 -0.1090001187505026
Ni 4.022343032651217 7.735069381095864 4.594666202290621 0.5183315691017589 1.1653504509703028 0.7833048329181929
Ni 5.65407882467815 0.2702640508043887 3.7778950738442996 -0.4675394261505561 -0.5001597832887386 0.394344747134437
Ni 7.184428384109661 1.4825600184011707 8.245500454893667 0.19281422515368082 -0.5289998474488825 -0.09523006154960373
Ni 6.663227435087545 5.4505712771411385 2.8459512434001493 -0.7847544208805259 -0.4433047219729075 3.0316363313219465
Ni 4.519957026890623 6.196606350268508 12.349369632852673 0.05962722474432956 0.24641247009511108 0.7329052974197184
Ni 5.388769228886942 6.025901852429309 5.885962388483166 0.3715961405840117 0.3073882384475351 0.6481923333513547
Ni 3.4720052571328086 7.63258052498119 2.3329244100674362 -0.04462766601170379 0.8661524616430437 -1.3240484511665649
Ni 2.0499700814093647 2.5095711298224823 8.952708478496366 0.3420289684498561 0.4635097361658727 -0.0464408079610426
Ni 8.89078422280212 2.5728525312983446 9.495873688022026 -0.27115471003679753 0.9101805463975355 1.2382926476559835
Ni 5.081155644073684 4.524349143908985 10.233044586907525 -0.5206571319111419 0.6725969874479641 0.09797651394648933
Ni 3.401676253663047 4.4037864506078686 13.363011434103027 1.1785738916391122 -0.3175754633931821 -0.2547233039536516
Ni 0.7952295402918262 1.1445415900444789 6.898595289213404 0.04633153607668795 2.947045494653744 -0.7067247823696087
Ni 5.966268297096313 1.286357351679219 12.498417685920787 -0.07661501755157772 0.3633428994362839 2.2557254768749795
Ni 1.6643642596675283 8.52648660056987 5.857317148305875 0.1000447093294277 -1.070510425770266 -1.2014682797387826
Ni 6.25867486587319 6.7211335469070415 10.87695099426984 0.6855800299711935 0.9681380967489261 -1.360468641666812
Ni 6.4460197903238 4.156017757302131 7.530183554159787 -1.6886902719199304 -0.33505048024949396 -0.29738304760570716
Ni 4.087112975878072 3.540496554737147 6.153921037279382 -0.06989878187366672 0.38174402765129095 1.0678282509524124
Ni 7.62327254477282 1.0154611300571246 4.737205101183406 0.5553847652003144 -1.5084042611402473 0.5019269024914904
Ni 7.945155915631092 5.017892619656477 4.9996092840013775 -1.8120695422102404 0.1505388614242375 1.3550436139964988
Ni 2.6964658163360635 3.8657521158584713 4.438907766254912 0.04362005068279584 0.2601280199089907 -0.9988136714559122
P 1.9953167089716666 1.2164510205585048 1.5512396808567144 0.7691863912389398 0.21310100042717492 0.1630876446235256
Ni 8.406144431972605 8.804485555361826 6.6967894573077755 -0.6374962870900892 -1.3092129288156291 -0.7248091506751453
P 7.44759705256765 7.578120111659362 12.515080165002583 0.012973786551848623 -0.42739499272118653 -0.19064164298239425
Ni 4.057296198211574 7.546860734888506 7.64278622450482 2.0057222041048166 0.12729788861842592 -1.1630223170577583
P 3.625867180715401 1.9829397599680385 7.49883596750739 -0.07766557030327914 0.42287139381922006 0.280367229774001
P 5.13827154237105 3.4555669781665945 12.19067913710868 -0.41421011859979634 0.2869623664930155 1.5411721995998877
P 2.780945154969587 6.786179146013711 0.1600182382317609 -0.303768896527393 0.17947765594577478 0.359254074078891
Ni 4.10883465920738 5.670526292173691 3.5859733429358522 0.5579635816710843 -1.2007249738148549 0.9180707477788898
