# total energy = -381165.9935419176 ev
CRYSTAL
PRIMVEC
9.27733557656565 0.00000000000000 0.00000000000000
0.00000000000000 9.27733557656565 0.00000000000000
0.00000000000000 0.00000000000000 13.57831838375265
PRIMCOORD
 96 1
Ni 2.945192147084974 0.7426813073361375 2.266452090220986 0.1019630093980631 -0.49868628406700566 -0.8256701852582814
Ni 3.0341803474460862 7.5620673449485984 4.174830580144046 -0.34217346444752034 0.19280574051324859 -0.1236345808342258
Ni 5.237983520004588 1.6403442120776675 9.084858441223968 0.7227018745241554 -0.8228854234242926 -0.06281590688495632
Ni 8.844269304446994 9.115464370434905 2.853007904707139 -1.8414801341618734 -1.2201213760635954 0.2508234546786132
Ni 4.21602009348467 3.023075377071581 6.241382070821562 -1.236452509123451 2.2845233749432783 0.11457504173511882
Ni 7.657373410660621 2.291548209987129 3.775179673889243 -1.9192328648623203 -2.1990815031286903 1.2691361153994014
Ni 2.3990168622997987 2.1128017904335894 11.431300644282063 0.08632118909574811 -0.252440678567062 -2.4082284040041233
Ni 6.110025207801029 3.7298227815242018 7.7171556317101375 0.17777198610857772 -2.3500865055560687 0.03057710145590863
Ni 8.358303925869453 5.8411958623189655 1.783077871397495 1.267877303291636 1.8803688408072714 0.9060480122864009
Ni 4.446265001383136 3.784039529117023 4.186629495200266 -0.473981582231474 -1.5521793493436689 -2.7337501188275755
Ni 1.6056098686506446 3.633431267580086 6.696663590571505 1.6482375632215225 -0.6362310472244204 0.711020324421169
Ni 7.296123250750138 0.10773769503686374 5.5018392860231815 0.5605861068955958 -0.7799361735562762 -0.15939554048391905
Ni 6.333293559541076 1.1082055356271838 11.478268082058143 1.8078166804711573 0.823632328892646 -0.016903460623557985
Ni 4.7954824573874095 2.2795618927575045 2.359355326085892 0.7934552910886336 -0.09362132230158715 -0.12527031666543587
Ni 0.770465071143629 0.5727010419236754 1.1165004011341553 1.4944447136363617 1.9337161460801602 0.2802728702879818
Ni 5.576383603029185 8.100468222738089 13.062138370860353 0.1924712399919653 1.5806607446128131 -0.8207228685553348
Ni 9.344503224742153 3.3959222061283727 4.94606567011899 -2.3517816338703046 1.4242320000667021 1.0370058662549173
Ni 4.43105017146318 7.597961355290253 2.295605188721274 0.2566737428118031 1.7296170920412792 -0.47393710214678375
Ni 1.5190708848132326 8.930650573584018 10.533637739540533 -0.46132429847877965 -1.829805526037423 0.21514708432292623
Ni 0.27831449311021184 7.725033017127843 4.703923507409944 0.3428108409212031 -0.5053657529697102 -0.4723643583430252
Ni 2.833669299238755 0.6535882730859426 13.002665085076892 0.8735394981357342 0.04876251411568376 2.2552004576094453
Ni 3.2924891946786183 5.410300746183413 5.164648967523928 0.11157250746336912 -0.05105825212839594 0.3743909297203294
Ni 9.216670821408568 1.5582954585337063 10.290396212596416 -0.14889721205575648 0.24442655001333385 0.4220483836972925
Ni 3.0103839823578613 5.526926128454008 0.29814294188333584 0.012707420264339405 -1.0345692317889665 0.1607988485893489
P 5.048280567441616 4.32358151915051 1.691179370947425 -0.7642287901233483 -0.11166815250096898 -0.005358178988119805
Ni 6.35875984498637 2.4278229884592286 0.23521477642780783 -0.9060035322017107 -0.4388178898461475 0.4990480382817986
P 5.669045628175847 1.4228927495814092 4.831898781707413 0.15168248811037746 0.780375832196856 -2.622917831964341
Ni 4.229036194934486 3.336194721357226 13.153873590208843 0.7693715106665523 -0.586761479739383 1.1916636349435348
P 3.8346752252774636 7.284971893699048 11.336117039396227 -0.06311852572703969 -0.7691367689479269 0.15011488651294147
P 8.076031721512988 1.9367365207866767 1.5051567373047259 1.7498940971227606 0.35663000619248253 0.37147298474258605
P 0.8683632243432331 3.544879101978875 11.516165069094749 -0.7296104287185305 0.4039876695408397 -0.7882714328948488
Ni 6.544111727285646 7.424586512885284 7.4688078594075185 -0.3754332549419147 1.8323195507085281 0.9653456216054536
Ni 0.6283724756942095 0.4725549903767511 12.292736482344056 -0.6772180311597433 2.1941257017853117 0.7570857513206639
Ni 1.7672210498735985 7.2640607798944234 1.9952792898378366 -0.11145372249731773 0.3485785966429158 1.0020015822655903
Ni 1.6192475515667033 6.146930447692242 6.445505713401352 -1.686635960494063 0.6531995567579589 -0.02516364374982118
Ni 3.2704833553065837 5.601144810990381 2.67244405516499 0.11641363760575436 -1.5936270749654942 0.2296352506367723
Ni 8.225164886734515 7.893936183909995 9.016247907886749 1.716985519320198 0.27229550850946005 -0.7309821122550766
Ni 7.608834392281832 6.118115044197494 6.00767207818218 1.5316125809359107 0.4163590466219991 -0.2170216756378198
Ni 7.516070316446682 3.051955721913548 9.275267399004566 1.2768874772100463 -1.322211397957826 0.42104771034692
Ni 2.9631159589175082 6.925595755522608 9.157163209484436 -1.6574739942181262 1.2069182471097604 0.5444640045227527
Ni 5.3142061069694435 8.493762298833651 4.400597318284973 -0.696326212744104 0.05729857661115294 0.47919757921477474
Ni 4.4823167264251795 2.9544694824020206 10.656603252766796 -1.6585417733610082 -0.8875237282299682 1.4075206008492922
Ni 7.266686265789148 0.7461695854153471 8.129583284163578 0.2620326931308713 -0.8659506300448829 0.7192152015271356
Ni 8.51623200497154 4.8753788691378155 10.800750777988943 -1.1008252747037235 0.17133137268955653 0.44180782571240684
Ni 7.257529535831224 3.959575990650864 2.4197646950028417 -1.60278431598473 0.5631752077790108 -0.9850428429240647
Ni 0.6094875319228292 6.245529967441814 8.659246767551474 0.8540330526716904 -0.04142201459021253 0.4125666694591024
Ni 6.498903272285677 0.6605397804390056 2.254856348808209 0.23518677658262077 -0.5990552095050715 0.8356836036302252
Ni 2.6691728667321994 3.1149952153928804 2.2216982246515524 -0.154630772105424 0.8025572533899017 -0.8280818800235674
Ni 0.8731772336392486 6.589654166357029 11.308702513534353 0.2470619307536519 0.4362645272966744 0.0753628903120315
Ni 2.718880829360936 4.836915036913339 10.372911616106823 -0.5543804923055161 -0.2707520752817401 0.16049468708536876
Ni 7.808491925639995 2.2971424431833083 6.33511377273028 0.17444909238293183 -0.1130568053183795 0.8699864906771534
Ni 4.740968835064443 5.092793222292807 11.811969194744655 -2.3899411756591613 1.6215919356095363 1.1857539543273192
Ni 7.202171675994405 7.392867303436301 3.705088477835423 1.265998341101368 -0.1100784394163459 0.36855658242673944
Ni 0.5091197520618274 1.9642994840136225 3.2171785697754283 1.7338876943921753 0.1480055534794225 -1.3815262336680594
Ni 1.1974256693712222 1.2480891975376145 5.477438966405817 -1.7031444996720475 0.5900257523129516 0.7307064899961868
Ni 9.272353387981482 8.659167910201278 6.815867144326706 -0.362929208937633 -0.03169450288980348 1.1603450273359113
P 8.287146763987703 6.80125163026823 13.333935535910339 -0.11347898045746263 0.5814765771913598 -0.7721092213126897
Ni 3.0567428269371435 0.7578256295076846 9.445091805183703 0.3850836335474852 1.13762470292026 -0.7311723738890118
P 1.6389062251035253 8.552599159414362 8.468484343295295 -0.6426138108223126 0.003890079083025558 -1.8007219784079054
Ni 7.331590503667207 4.804917507404846 -0.017749397928573815 -0.4626137067141646 -0.4179965822254221 -1.226624724399752
P 4.203003992034853 7.179479313808909 6.274635751531985 -0.22714436589411852 0.37291048852006103 -0.47814162714643454
P 1.5513189023752871 9.284571638594032 3.6515489757207464 -0.147904509125184 -1.0377262893607098 0.8062814963190243
P 7.866725759425097 5.2207926176621 4.182311823343712 0.6249670442748269 -0.35447902128775083 -1.704262929547207
Ni 2.0772788735046177 3.211451670684215 13.35234733558055 -0.9746702414404892 -1.0613159037551916 1.7451241865379428
Ni 3.4477082918681274 5.160434274089393 7.572885645661808 -0.5687930681864204 -0.5666035167342693 1.1065236106400813
Ni 0.18626106116034732 1.5605591283510656 7.910497155184455 1.0017730111945522 0.26754642386024885 -0.2122751620917699
Ni 5.117702867619077 6.619091151318018 9.507293555283905 1.243588091726968 2.0358154239457713 0.08562159192556222
Ni 1.0384492513783095 7.984232488550811 -0.01475467408823113 -1.9995014200060854 -2.044057095129273 -1.4298280060972408
Ni 2.2570457999430324 8.472164662215567 6.12631991955189 0.4596579665199503 0.10699054451964154 1.9110873529370502
Ni 8.500506921609146 2.714919407180557 12.91122859592561 1.1460013570197296 -0.22066544303799415 -0.6532260391205202
Ni 0.7035374464329222 4.922155193806365 13.227359363255168 -1.5372543526027203 2.430429365581195 -0.7511002231611903
Ni 0.43798578351837153 3.901462762224883 1.6441302926205543 -0.2531209924635383 -1.0314337714837785 0.8242823037718192
Ni 6.523812917611948 6.362674880490164 11.626149734745399 1.85899603155845 1.3042334733231666 0.16346122591286041
Ni 2.8724856702052786 1.5625352007735964 7.300233110295589 -0.6321260239171113 -0.4702002608121708 0.24407482310086998
Ni 3.2219907236043808 7.736638963609468 13.509244702728912 1.4997743533793912 -0.3596502810760451 -0.2028011611630636
Ni 2.137692881089226 3.3538216584596148 4.435724092995907 1.8952809820324132 -0.10656014185044227 -0.16270994956913265
Ni 8.959957675850568 4.526977818641442 7.248676174738165 -2.3508400958926416 0.3931954640213422 -0.048439840668942385
Ni 6.923601128429443 7.810412334050623 1.442614508998387 0.9907794882975258 -0.26901632353755606 -0.3017359252577642
Ni 0.9118869152496261 5.399641087904127 3.8893465623008203 -0.29464533695956996 0.4880712275553207 -0.3639339960530636
Ni 5.45255900855256 6.225982621928797 0.785069452399724 -0.5458446869203631 -2.005604704690346 -0.4928128560053641
Ni 5.5626995334365406 5.517843617178619 6.834361512281238 -1.3883288584121898 1.489988991857853 -1.8346993637946145
Ni 6.370059639402532 3.8454740435865062 5.279032945581925 1.4697857774371008 0.23796253955554503 -0.02143400150405986
Ni 3.332131248488359 0.9418072493806335 4.782446873533426 1.8781322381672685 0.4744796049138151 -0.4447887627176017
Ni 5.448272879636086 1.3647145798082092 6.847138258479876 0.6779415395893291 -1.1486128265006477 0.3641674522201083
Ni 5.8207022286036105 4.572130609629509 9.895131630479513 2.4134857957483207 0.07710301293158979 -0.87913370439406
Ni 5.419197710752461 5.834813055620838 3.954562518645532 0.5340705771035705 0.703716077450272 -0.005344552141364989
Ni 8.051910649688667 0.2426746817562451 0.04296519532030685 -1.680487167283848 -0.448774229727911 -0.1917770421384181
Ni 0.5863220256361635 3.7214824570741767 9.204823664208698 1.5072323523193332 -0.5984132050456984 0.42972235530278247
P 4.736775479501137 0.32904852902501364 1.0431259561116326 -0.37503781927570895 -0.521739052121411 -0.969619309280143
Ni 4.4182752807316055 8.755819189534272 7.827099477085396 -0.3684460249908042 -0.5972330686946683 0.0855719696345494
P 6.191999742662455 3.4670700906748038 11.836437238909836 1.8487355301727062 -0.5408840004809781 0.718156421245318
Ni 8.200876822874486 8.405395679938781 11.233193353655377 0.3186036475473803 -0.01721430699575745 2.1062633934546886
P 6.498346632166655 8.606917957695671 9.946022453361172 -1.9926489158606264 0.9599573607103467 0.015924641650056442
P 3.34768006247973 3.376374860615355 8.846247232336589 -0.34274450645964194 -1.0137286408945316 -1.148423850418293
P 7.713278633281144 5.770548953879655 8.842771014793291 -0.6268575764293204 -0.9763157474637121 -0.608323779291191
Ni 4.34930756998468 9.417515853687313 11.27012642555254 -0.7952311520421337 -0.6871280911846037 -0.36988430009922746
