# total energy = -340896.6059576032 ev
CRYSTAL
PRIMVEC
9.02412484717615 0.00000000000000 0.00000000000000

0.00000000000000 9.02412484717615 0.00000000000000

0.00000000000000 0.00000000000000 13.20771888636753

PRIMCOORD
 96 1
Ni 6.239767017997123 1.9722946138418682 11.322236987644482 -0.020523573874648524 -0.49318438041216994 0.3976640413156571
Ni 4.601004047598164 0.24755429677347454 6.1369136560029425 -0.2703453267616247 -0.7430421287434041 -0.8862944838085575
Ni 2.7542259821504365 1.6137571212652926 4.665600535966482 0.6463210844705707 -0.7340630651732455 0.33220298349836985
Ni 3.359925222082474 4.288444469614165 4.623084275552063 0.8769186990206123 -0.3453336073430569 0.6227661799687662
Ni 4.9201241641314875 4.349492672208626 2.769500215367197 0.9063645150855552 0.7627781737197509 -0.4729091751029017
Ni 6.921440362532674 6.063200997012167 2.6915877288099086 0.32863866318587914 -1.1012366512095293 -1.121796477638752
Ni 5.13073820705124 4.598666799339189 11.617773457073538 -0.7399431781031063 -0.163288447780422 0.018133990596549413
Ni 5.674793652168383 8.003911174921942 12.334595766739234 -0.945399774611146 -0.017439278522369966 0.20466623939626044
Ni 1.8017837804313224 6.683492246344831 0.31090004147888173 1.2148585850027593 -0.2759421041231118 1.0064591038163118
Ni 2.6297742804534354 1.5718851833438883 0.28446657584108487 0.9225336686462499 -0.022812884129457485 0.34395858137240115
Ni 0.7537977576051695 0.0004124024920276237 4.652722207818285 -0.04352312009361537 -0.27819619026461123 0.656152725849012
Ni 8.60249940470698 2.2751261855587828 1.2613118151737899 0.2715763709552484 0.7158146604860187 1.4065075862037453
Ni 6.703904816081516 0.7722141909909458 4.902242861331646 -0.16923978026785047 0.007907684882850896 -1.3354129842497646
Ni 0.733821955496803 7.480539023278045 2.5306117854010335 1.0136175692379639 0.20588417096376155 -0.08526343725519508
Ni 7.578920029144241 3.906733025187984 3.8265139723951975 0.9877129335570602 -0.10336451773128004 -0.19322174500474465
Ni 7.52709448184195 3.6056160371359547 12.696817809370401 0.22245878749299106 1.0612071460914692 -0.6042953748580884
Ni 7.918443691289696 8.903598344509907 6.607082276525455 1.009939091945112 -0.7001257889958523 1.2733928337932263
Ni 6.803314572146643 0.8598952923758035 0.28309400649672156 -0.2563382138492553 -0.3790112021011602 0.2059242801730776
Ni 1.8836506383673093 6.463141173033442 9.148603326097435 -0.6075869011251664 0.07868321293451609 0.3971349082850645
Ni -0.06336289054205602 4.732729193684099 1.5614560025991109 0.34941909026634016 0.25199047840352085 0.32328614062471417
Ni 6.435022000929327 1.950672811415212 7.10571298588506 -0.26909422796334304 0.2646696165330861 0.020415587541874516
Ni 3.4414581874100354 4.2467981348065615 0.4258872413457173 -0.29418408105243526 0.42208360781060217 -0.07524744778008977
Ni 5.870608130822811 5.512684278715773 5.017493565635402 0.5295323229135849 0.3868371259034822 -1.848166545043114
Ni 5.046687510973663 2.8794176620607037 9.363070670200903 1.3478391258282594 -0.11240837310110319 -0.6657966766966792
P 0.21379143717452156 5.448847621634736 12.547873731226746 -0.43192476227074 0.8508675104595153 -0.4539958831381665
P 3.945175795779618 6.202903469202093 12.691494478297162 -0.1712807219572792 0.11910738238783357 -0.4169822820282948
P 2.5346780559241773 8.579803731458634 1.3850542206810017 -0.5916337202300198 -0.1747907919930667 0.2857814588110369
P 6.299127709300355 7.605514124199064 5.777545041555125 0.06601281655569921 0.31789890817087185 0.045910903599501576
P 4.69065872502255 1.0777421711240058 12.527309556197586 -0.687214737361139 -0.5031654028842819 -0.17647563589465734
P 4.037384300452228 6.101896443091258 8.202640445806676 0.4279639778507791 0.24679942112088463 0.37303158747895754
P 4.787830498198774 1.0320891250153024 3.8144288647951234 -0.1889657979418681 -0.1638936854645887 0.66548248789037
P 0.19340323257412748 5.74477573806935 3.681334759014646 -0.6840108857118606 -0.6211227308280722 -1.2010371057386349
Ni 1.3671187731338486 1.144926778413845 2.6093698324288472 0.195305881227283 -0.13254602439124272 -0.7207702047190812
Ni 1.9527934806849385 6.382257944673626 4.777086375507131 0.593119817857243 1.1605149772548722 -0.16676663613700957
Ni 6.143993984126463 5.50865951916557 9.285435224267362 -0.8008006757101112 0.8846188958783474 -0.2798676644297632
Ni 8.497873704650782 2.3956614172002046 10.243008543206757 0.043069834606280666 0.2519439414363016 -0.14846423828339592
Ni 2.4074469238651512 5.226917326526741 7.041246444910292 -0.6549646190781817 -0.9104068034757289 -0.6873744028674549
Ni 0.5524190037519607 -0.03475370847476552 9.131129913727344 0.30323899216585193 -0.24080695098287558 0.2668429700353211
Ni 1.3752134128570166 1.2340941531124217 11.252104198863496 0.19746020856612445 -1.0928602542203758 0.6695412313407759
Ni 4.2098894653887715 6.682571785640525 1.6721765963777482 -0.2642021899783643 0.8473929216473536 -0.06564180636952566
Ni 5.617571678383981 7.8666452163610625 7.994513451613461 -0.18179447700440948 -0.39032791266556 0.24976930238248599
Ni 5.368469744249834 2.8953903625177917 4.968281404803378 -0.13693412615660933 -0.021872631703375233 -0.43238910350166826
Ni 0.7644164449655394 7.305308572726789 6.903318115607294 -0.20750653705853295 0.28098558008429025 0.04064014211886549
Ni 5.120865814791323 4.510717681455136 7.083590344545766 -0.19803485012267186 -0.6986193796536548 0.5916360342228649
Ni 8.162356753806428 7.045964257226092 9.10555915439672 0.00023962681463184538 0.22278968846984856 0.04311225780844188
Ni 4.486361569289216 0.02639556431467832 10.262965394653564 0.5424256339364852 1.3310035423281594 -0.11980312290327755
Ni 7.952139772366964 7.537887334806175 4.170772592693101 0.050380509335080974 -0.15419239901642476 1.816953352665103
Ni 7.185928429028026 5.979069083813621 7.024882097447646 0.858265088475167 0.3143171043568845 -0.03875449506037842
Ni 2.4149369472433335 5.17512787572266 2.5374403404495522 -0.8446896637835775 0.26137449072158214 -0.28025075880079475
Ni 2.3188300207642483 5.206766456402066 11.399924773500425 -0.02435014670959032 0.16750428563398248 0.2872541867018214
Ni 1.1993783459607747 3.295222249044442 3.790523056444349 -1.3067989200574976 0.566820774951398 -0.4214009799212807
Ni 3.7302933419467568 2.388478214056791 2.5038660850537364 -0.9840323993816793 0.30865270698225555 -0.2204885511404977
Ni 1.185661676641694 3.224247509442751 8.128690452340182 -0.6448892371200506 0.9795327117391132 -0.10074996292656842
Ni 3.807530823987554 2.418474404067728 6.7678064468593275 -0.38623780175658645 0.9596426576834053 0.9800096513755314
Ni 4.088289387050211 6.647052831403747 6.0258366093045 0.10403943231111759 1.8779651164617852 0.41396946334389995
Ni 0.8366383185803201 7.3991323956942106 11.420396902459155 -0.5452762160114029 -0.09172539083045494 -0.6020605719902986
P 0.2903818894849385 5.4141047421094335 7.93723101619456 -0.21044839329567627 0.2585413921481612 0.749911859280044
P 8.589279062238262 1.5298147146823393 8.036566774438361 -0.5640421837649964 0.6002047497284825 0.14184776140814281
P 1.7238785131736751 3.18483915752405 10.416716623946087 -0.9418771061698683 1.2712863289731848 -0.9415426056485849
P 4.064185950371748 6.164578012229636 3.8388761206190187 -0.3190880433829666 0.5511306179096508 -0.8679650893717503
P 6.777207779817629 3.899540797920019 10.521506563069133 1.3971801381552325 0.14425122864331286 -1.0953925337239263
P 6.295779759091553 7.790237953779052 10.187139285692705 0.8147720502885386 -1.1584377830108694 0.07684461706388056
P 2.463567954454206 8.420816705101027 5.929367815430878 -0.15844577497614004 -0.2089280999964079 -1.0415567188503934
P 6.750243695656173 4.05898805462978 1.507119943846447 0.587773208833349 0.2449914213778684 1.0095775948406354
Ni 5.24021888611643 2.759396805518748 0.5926061376195015 -0.35847040183533097 0.01852531249769713 -0.5951895559020781
Ni 1.5514094447353393 1.1372021277973103 6.9649321308111665 -0.24176725801361587 -0.23700634628986278 -0.36899392707447415
Ni 6.829466485098417 0.7256352697032044 9.28856569307446 -0.1328031347073713 -0.07536854673898633 -0.8934460072516742
Ni 2.7551193704810872 1.7122554407506647 9.178822411984806 0.6515530222934715 -1.208775354923157 -0.4738653683685839
Ni 6.3797582621727145 2.1044709661554046 2.6454266244889255 0.4305821321999166 -0.2333173274740498 0.17162653533247216
Ni 4.009842672319442 6.6237615659349665 10.394923363152941 0.797887358718058 0.38063536796814446 0.18596326367011842
Ni 8.373828088558623 7.0823856239180705 0.6027474487910693 -0.5703002488595662 -0.2088964754275241 -0.6516039301360649
Ni 7.705275821121719 3.8202187431077035 8.197264774811034 0.0760527172902045 -0.33004505661510253 0.21398545991465728
Ni 3.0015952843705946 8.47648652946248 12.23033373890248 0.9750741617471271 -0.2323055983800838 1.3573879458589588
Ni 0.060981424072776146 4.931314078576 10.294452370040496 -0.08360661837806246 -0.7170539322097587 -0.3286065243963631
Ni 8.57863059526687 2.3100044269523665 5.916291858954992 0.8362320199345276 0.6841612952467959 -0.2718501934419254
Ni 3.5695375871769515 2.7683126405761502 11.331839558580294 0.819145753876202 -0.4953415359644888 1.2118367674573
Ni 1.1777023987868067 3.4923722981325707 12.599555794948657 -0.9864278961970496 -0.7244473964603523 0.3380566140656694
Ni 2.966175595503889 8.356601034788804 8.064315957435843 1.2022565799680327 0.024040328778655373 -0.022674301669064176
Ni 5.62998887376757 7.915998153536097 3.4806959833747033 -0.3679346325720244 -0.23092105932773135 1.196849035799216
Ni 3.1158497253238053 8.418001178240795 3.579779968543502 0.08247867542120633 -0.5609440044556468 0.23296997143696008
Ni 3.3049953759342867 4.315417577900173 9.251848335097172 -0.3033356656447163 0.2278033396343561 -0.110424509901855
Ni 7.302610359485732 6.218876169659181 11.471352524154629 0.4614981050524826 -0.24673874308627827 -0.044604526083252216
Ni 0.601993934390975 0.105215877801901 0.3634646645819825 0.09389077391288991 -0.5401430085498956 -0.21008046843329625
Ni 4.704231008348798 0.2193250303498244 1.7405523881084553 -0.3195652401297012 0.4411897325124337 -1.7521412412857245
Ni 6.051117694237003 5.823863165643313 0.2910000420167523 0.11841009921049285 -0.27269274394787874 0.5369034185666753
Ni 7.931510623641031 8.900232346052002 11.310099540122007 0.372660577292784 -0.16899655390879284 0.20233527727023862
Ni 0.23940912195281516 4.961752450689986 5.676624647039989 -0.6619125111509246 -1.2593736366959987 0.8611426671332783
Ni 7.89281517756194 9.09270789862218 2.332430278876608 0.567572565515758 0.22882766713381236 0.4165912172374632
P 8.46909577145437 1.6478953844456097 3.823172339073582 -0.11660287079842499 0.11218520134670355 -1.0511980985948992
P 1.7826616605055776 3.2165499311998724 1.539888344919767 -0.05800100199481624 -0.12077499989824361 0.7085764908663668
P 4.749703571966461 1.0297969973790877 8.227761803734607 0.03963869743754463 -0.0773719503222603 0.15537356380871953
P 8.582871933806324 1.6636334576643443 12.449199441312608 -0.22832193114198743 -0.42397413996509564 -1.1444373549667195
P 6.453629745755606 7.822183354693227 1.3193387408682324 -0.7099332620045774 -0.39739690369719943 -0.0892044241808141
P 1.9962356162783952 3.277733495662614 5.832251089414422 -1.5084785660216085 -0.478958209510459 2.04360303831099
P 7.05766854677007 3.939409380190873 5.969347394433723 -0.35504055021817565 0.028348469235706015 0.8134631016691282
P 2.4274082873742344 8.416773897301718 10.219274193222471 -1.585787267206101 -0.04972384958768856 -0.7869917948514769
