# total energy = -381175.33704459015 ev
CRYSTAL
PRIMVEC
9.17890447269321 0.00000000000000 0.00000000000000

0.00000000000000 9.17890447269321 0.00000000000000

0.00000000000000 0.00000000000000 13.43425451367681

PRIMCOORD
 96 1
Ni 8.619542202556438 4.6738615332065345 5.42460414469791 -2.1718594341879434 0.1767474014988053 -0.8123768105834849
Ni 4.325402775900665 8.764137487540223 7.168679556620224 0.36826167689413997 0.05178253188893017 0.7089503292660178
Ni 5.837407023614669 4.98755059969043 11.998589812035373 -1.0626089115350024 -0.9531228542870166 -0.6661131794958334
Ni 1.062586718140208 8.269220127606202 7.891563274602154 -2.1016297513374194 -0.6996203101143434 0.6567613059672882
Ni 5.263881524240471 6.667813348581207 4.721616620439768 -0.47832777501531165 0.6226916179770889 -1.5801336684647498
Ni 1.2387574351270518 3.7130596887529377 3.7101242750452106 -0.7930925084325762 -1.640172269714885 -0.08179913285567848
Ni 7.47484100339897 8.38570042764075 0.061646441533649926 -0.3675667077096444 0.41546970203851025 0.6459094508544488
Ni 0.48123803833106593 2.7265569112735926 6.252544097984443 -0.01477947230201971 -1.319185980867941 -0.06740995401354197
Ni 8.850492622506733 1.8392413774643277 0.7885339977248063 -0.24708712756463252 0.28457201188396797 0.48741019693255416
Ni 6.7738847707403265 0.3285901002960369 7.36961587624877 -2.924623675315118 -1.62994904932498 0.43595933735142983
Ni 5.178306596169385 6.1668103748628775 8.762721182552411 1.281486409434638 -0.8492184048918664 -0.8543295008661868
Ni 1.397093540374958 5.992530512234356 0.16606198929353855 -0.29419205147223526 -0.1408799981782348 0.28822297837299393
Ni 4.929539922289457 4.0455379730595835 7.702006043070757 -0.9698177984441945 -2.513267224114033 -0.320114684875268
Ni 7.236547459727034 1.6256207294971095 9.781050894022282 -0.07644326786040383 -0.2334433115289528 -1.2141363621247543
Ni 4.599879561710992 1.3187699469789937 0.24920817919369112 -0.4932432586745635 1.313259588081177 -0.9266654314264363
Ni 9.019779161004537 4.476680303471142 7.676588738198757 0.03487392905904961 1.340110132615118 1.4330125744728093
Ni 7.859290245845537 8.118181251556678 9.59250150622168 -0.9504555918674987 0.3390099791178742 -0.526799497363454
Ni 2.409581796924263 4.943978339307137 7.968071280657942 -0.6389088511668997 1.2595068198397534 0.8397613732440247
Ni 7.134312819712473 0.839362182235547 2.2191911208504593 -0.4952466622578374 0.05756391445739764 0.09182257852995154
Ni 2.145688288177753 5.146281397838375 2.304592567623621 1.19059868401413 -0.17625374969183838 -1.0213087672346348
Ni 7.339442980876543 1.7381999950545337 5.651737058203415 0.2924928093929414 -0.23414110892692575 -5.20291598174702
Ni 8.383635174094037 3.5944315250298104 10.770645126588438 -0.5865203102628543 -0.1050475618606578 -0.27727367845034184
Ni 1.7455614765854799 7.7846841088336545 11.153857052687908 -0.4632379705617248 -0.37501879311231545 0.36978891217194376
Ni 3.7879503718090337 2.946960769778678 2.145060451099553 -0.39688936793316165 0.8489944618065185 -1.3025727977912922
P 5.932922705423927 7.495805621624257 6.744211207781172 1.1794316116537171 -0.9265111652367592 -0.08780111607538427
Ni 4.6404962147963245 0.7911784401550626 2.487513451091585 1.3919631127306673 -0.7695319475038167 1.1965500165015586
P 8.609188398108923 8.092819938003057 11.63945139916684 0.6984221760411843 0.26296497513715356 -0.3721576695144365
Ni 8.41956140690217 1.4271269163964737 11.911979503519534 -0.24896223310015833 -0.2252183525159992 0.586115618625268
P 5.828108793202139 3.684476579666446 5.433497585415283 -0.007362353902342159 0.3603010272861666 1.1616228656070704
P 1.451157288775547 2.7469799741244096 1.5727217840968655 1.3035816986717808 0.07609848292647539 1.5805234477040004
P 3.8722953266567446 7.8931328672976555 2.8102712753717074 0.40813871559473586 -0.3921891342440149 0.05965833509258114
Ni 3.962367918007336 5.76157091337941 6.360098831135334 -0.5936294105038099 0.2661379735484965 0.9249366216607877
Ni 6.312709064307253 9.116891972223254 4.35811272051872 0.11139484423492428 0.07769616643089845 0.43319437301178293
Ni 1.9987615614123486 1.4828428676344325 13.085138978660227 0.32690162589011446 -0.9673066019865664 0.11307891680556653
Ni 7.663935618135904 5.7912646699288 9.859453425998254 -0.8915472475670645 -1.3807870415091898 -0.37418601279837493
Ni 5.773319911334037 2.569193769918804 3.763741010789245 -0.8807774106450703 -1.170475430901694 -0.973834118692439
Ni 0.2147377206633731 5.887432053968355 3.5416592485137652 -0.11731455215346892 0.7829585053223677 0.0899955526235418
Ni 0.7455941638720394 8.47004538248846 13.437882448657676 -0.3154977549285469 0.2110888550931526 -1.168192291294472
Ni 6.59336325294841 7.139609047696707 11.679848676430987 -1.0625420628528088 0.6111774466899023 -0.6447144021050832
Ni 6.962704018337699 5.005917587899186 3.412099009350044 -0.4873885996659994 1.2338556949305524 0.19892702291963804
Ni 0.21691587473730514 9.073842909405126 2.1408959820589164 -0.8885673390031341 0.8682648800003563 -0.7041539363186389
Ni 3.8798587440900354 9.228287159080562 4.652833580539148 1.434503300085723 -1.9516750445514257 0.7562077195910847
Ni 8.808425702486376 4.495414447865982 1.475322591053006 0.41347144066155883 -0.331031588898088 1.0567910193016445
Ni 0.7438217173837279 7.156397264305312 5.635306818876241 0.5292276471889724 -0.39098920039864277 -0.10086386279661338
Ni 3.64643919878834 6.2543404096248505 0.3515355261452378 0.8181486800702555 -0.8350302863169425 -0.5149040314774487
Ni 2.4938900361533656 0.48200631265044275 1.7768009606782753 -0.0034373078163231125 1.66567966995737 -0.7887630278192868
Ni 1.6347537396259018 4.793783922485601 5.74681123469891 1.3456390328531471 0.5268786873408217 0.16768040620053057
Ni 1.0305064463812843 3.552327889390846 13.13332731019304 -0.5578895339000393 1.825320750793192 -1.3377789133787799
Ni 6.3363263859769825 5.311501681575319 6.653623679879599 2.5282138181215363 1.2126232679143374 -0.674280031577342
Ni 2.4503177757700723 0.7042441163050079 8.545018675686425 0.7123770955593796 -0.8311684893686911 1.8264672056928093
Ni 4.823863193030377 1.3861798227436675 8.568394592163807 0.695412442680583 0.3330596750717103 1.3152197971313413
Ni 6.62592082774924 7.452784095520087 2.485243507971132 0.08988730918045165 0.055155562126221136 0.8170513332410186
Ni 5.0281580738711105 8.287596294719613 0.7329070818619723 0.6287367957299043 -0.9414356477570753 0.5173571210036315
Ni 2.960811736898625 2.803008008120538 8.265519193250496 -0.0861008455548259 0.45940162753477004 -0.037593127762425585
Ni 6.6846107440944635 5.975696401102491 0.5709599955239489 -0.8993196924236317 -0.6312089114194808 0.24937180983375112
Ni 0.6992709857645258 6.454293668565161 9.41242883686725 0.025652153350465497 0.5937008871716937 -0.40679737107549296
P 3.6718831224838295 2.15318745327848 10.450332562507622 1.091190836937753 1.1406624613053193 0.18437612168865666
Ni 8.206656713497813 6.891549149474988 7.521771824994449 -0.778942185074123 -0.04819610008925248 -0.3270677191543335
P 6.77940129243621 1.2526359389609554 0.043940334459840615 -0.5147867891732941 1.046872988856984 0.11109505360631834
Ni 1.8299156103378424 7.452472012761917 1.9424324593436326 1.3271602573226693 -1.2668971987665536 -0.05801925682726137
P 4.644617542985095 4.1785311225631725 0.4851684453030748 0.9020928842933947 -0.1419493199830136 -1.0521365512487688
P 2.7271168244573682 7.514769238635398 6.788772036195491 -1.3946450304382048 -1.2765748310656337 -1.1981168467680463
P 8.566377986811752 0.7913133700534477 8.10351519770363 2.184818822562089 0.5502428159880588 1.7750153176704204
Ni 8.70933942676747 6.815437672100169 1.3768366156983431 0.3016320526900483 0.1559132383622734 0.6108396037345093
Ni 3.4203444193989823 0.10996786718391521 10.662781064350773 0.37268320300060337 -0.19948572363658548 0.5921353424567867
Ni 0.6345165671156909 2.447683430134933 8.830805707809011 -0.8619911311765026 -0.40581340989566883 -0.794928018979418
Ni 2.0906882915026546 0.515373466841584 6.332975167888518 -0.02392180092292009 0.8671791031353452 -2.0935899117520784
Ni 3.007936233382263 2.003038930980205 4.0190724372763205 -0.890198446848654 0.2656695185525102 1.398816902427707
Ni 7.4647442082817115 6.933065335216222 5.156524137539599 1.6576228610911643 0.5704486015119723 -0.8856766477189004
Ni 3.2985311757615934 3.7430012757279325 12.267033303817904 0.8780510128528426 -0.42755414400687003 -0.12337438519430365
Ni 4.960711482487828 1.5340427977835815 6.104350682377055 -0.19817060436958775 1.8971882263574553 -0.6339754184210243
Ni 4.6994247826625015 5.292033224808316 2.240296176316924 0.6970456074086318 1.0011361489415016 1.4344019986211685
Ni 8.012293407490601 3.0207866998951363 3.438618700670754 1.3052405744314424 -0.5182261538721462 0.21221885493253773
Ni 1.6291637866928017 2.409159567310269 10.967134266913066 -0.5365794595683532 0.37994271277649405 0.08670531190804422
Ni 1.8443632062601731 8.798393159701682 3.8400470809426883 -1.062484984362628 -0.31912095350343106 1.2126155546048536
Ni 5.737604793332902 0.3141599442925452 11.661416517999202 -0.06324348134067818 -1.4715557248533302 0.36817451649697236
Ni 7.224082507209547 2.8084969931024655 7.351062556275576 -0.4597304716290986 2.4716420923740787 3.8559317477198887
Ni 3.96793033422648 4.4042679246711005 9.803042631678135 -0.09846116689239172 0.06282567707696922 2.121999316132707
Ni 2.9679896403365302 8.336932907224394 13.057907922228983 0.7313374387119663 0.7577241562356112 -0.3576047114009261
Ni 8.584056557171603 5.992906847325091 12.382930743407046 0.11243434124303217 0.004828788847211039 -0.34877811424823163
Ni 5.381096136647182 8.17958812367891 9.734864481594085 0.14112271031666018 0.7639097162210328 0.051738051804239925
Ni 3.8518998005198837 4.433089685278545 4.362196415198418 0.3141111589936655 -1.3319900746111448 0.07185487715877303
Ni 1.6470993663829123 5.466441592101965 11.4345525464 0.9150890394427466 -1.0991381168092875 -0.5598104050718359
Ni 6.0075472002451145 2.4796168394194242 11.623357107749932 -0.780733729756907 2.3198763005212752 -0.11861553035307958
Ni 0.4328587855814927 0.30759152012353635 10.201449316538614 1.0049933179040627 0.6627401492585425 -0.8094876619611479
Ni 2.855245154495369 6.558703708982259 4.411177804093166 -0.6636415780268893 0.8470231970127606 -0.8223349502374612
Ni 8.766340424656715 9.207542834566924 6.098050282223887 0.8129766489510127 -0.8050234555422071 -0.1841984584602118
Ni 3.146757987339905 7.298863043409819 8.956120703571157 -0.9347433233385644 0.15299272228136876 0.7326376455806286
P 4.3259810468937445 6.4350822211284155 11.009855642835113 -0.0865595303587993 0.4277721735549472 -0.6132119606214278
Ni 0.3012571580231549 1.3745409716448649 4.228686493362918 0.2078739477002807 0.2782519832032111 -0.011965657002308424
P 2.6787439969410514 2.8235045022085714 6.147206070307024 0.18503458120826197 -0.06171161807718403 -1.0277943749589782
Ni 6.593923166132185 3.353200731869218 1.5430316991093365 -1.1505195566050572 -0.21826480401630152 -0.5865797027458801
P 0.8799595596211102 4.392482211097865 9.76527878215866 0.4832162134558646 -0.3198424050504879 -0.8211339879508245
P 8.490257330532279 8.606719272757521 3.881209878854818 -1.3633058540052907 -1.1122003493098847 1.6688732371940032
P 6.138153834539169 3.8368463968905178 9.45442416143132 1.5137927791456702 -0.05440839954755145 0.9393836503240531
Ni 7.741772729585309 3.8850907197417057 12.966621879683391 -0.5188123653929193 -1.0650825698864754 0.03120959283358496
