# total energy = -381178.4321573246 ev
CRYSTAL
PRIMVEC
9.14135064358204 0.00000000000000 0.00000000000000

0.00000000000000 9.14135064358204 0.00000000000000

0.00000000000000 0.00000000000000 13.37929068876526

PRIMCOORD
 96 1
Ni 6.3150917647349125 1.141325038110045 2.7665026740725125 0.07181091129471504 -0.15497632837030084 3.3300385642207875
Ni 3.5970940107261207 8.347661914420787 7.941519023315257 -1.3575614953223458 0.8687207365908522 1.6291712906186913
Ni 7.555627880180771 7.704769014128417 6.052296219609144 2.645417555728754 1.6772676319052855 1.8099681795965215
Ni 0.09300684272899355 5.405966171516326 10.611316264233078 1.5002973157623967 3.2153264826871726 0.7214952558105638
Ni 3.4602022864928395 1.4615739713363929 2.6203343073182337 -0.6527316159826049 -0.6690637774837251 -0.508946014121801
Ni 8.21301896241865 2.6839096578708346 4.139833360442714 -0.45280700503638793 -0.23393053557801646 0.49861789272291546
Ni 7.028135389018348 3.558654631734405 2.190403793855451 -0.8822038586789516 1.0318875711917457 1.7018234668677785
Ni 6.695472501768041 -0.006916345813348978 11.171640829970212 -0.6994596161667631 -0.44897708976733647 -0.9777419383872774
Ni 7.019835042734286 6.688451944558614 10.36437456333688 0.31656193452700315 -0.30094942480072684 -0.06693738525249764
Ni 4.682172319005957 2.73896801213174 10.009247721286513 -0.3714485592625538 -0.3232923112723013 -0.33674560856372976
Ni 4.772406590118258 5.591115085213882 9.59364718891943 -0.28841709666167104 0.02208269083165229 -0.13775456517537565
Ni 4.985921114520046 8.469680661336703 3.5522017523930844 0.49855438647483175 -2.4109370611845384 -1.4076800092452917
Ni 1.5387086871347522 4.200642538323997 12.20679639471864 -0.6093823024626924 0.6131479401527117 0.5059905310379027
Ni 2.6132561596004487 2.084657565023519 8.261458064758532 -0.9746489012842505 -0.8479860751466622 0.36199358449724106
Ni 6.063576646166999 1.8963366026909758 12.264073354753933 -0.4754584238873167 1.269201421419698 -0.38480826839891147
Ni 2.4595352090357165 6.175101122670908 11.150059929631652 0.31539053992672134 -0.17357851685252043 -0.15581142267708648
Ni 1.1385186434963812 4.0215360573288255 5.082283747029743 -1.1389058836255288 1.0096097336301515 -0.6603045432338565
Ni 3.0189858616618825 2.932124748896297 5.825276263929745 0.7477539323967767 -0.5115438567559641 -0.07733029845104747
Ni 9.01145194203184 4.739406314693741 3.1395712448142077 -0.021523475894072608 -0.22754777198012424 0.41878668222688525
Ni 0.16919085807190973 2.266460744425957 1.965471722637813 1.397083207566052 0.7539495196845274 -0.18092698679779162
Ni 3.797536403865565 4.075451742773093 7.998167058433869 -0.02857524053453143 0.2967161034456696 -0.3878779084631707
Ni 7.731132669065898 8.565756255439661 8.893923426497786 -0.49958462751155897 -0.7936874617040975 0.544304853237069
Ni 3.036902908706773 5.4713176864775095 0.2884278920206013 -0.36935156752420906 0.9683080466678872 -0.5538919827048719
Ni 2.0052832183445486 3.8184975206379796 9.782469097261188 -0.5402301689470632 -0.04338633740543496 0.20120990541654382
P 4.565565251605641 8.48794507970185 12.432371102878758 0.8521975421248484 -0.039980397047679535 1.4857006488951445
Ni 8.640998711677668 3.502252498945133 11.411357207405043 -1.0201962508967461 -2.5319388323816074 -0.10817710862857498
P 4.535618187259181 4.674036517031491 1.612526006824647 0.6527496137047338 -0.45592472472976314 0.8296983325810678
Ni 7.234793900520305 1.6822461732056029 0.9278726748918831 2.0602694432230773 -1.055006416597396 -2.6567399227201083
P 6.062708217866353 3.64848668342325 8.090550461056504 -0.11861167369833767 -0.11742279559655905 0.5105354700961078
P 1.7076682690381744 0.6941895888089014 1.1429375723440853 0.5198829727492787 0.41392883991395163 0.8490870215203248
P 7.0449554739992655 4.812345150597405 4.423755480785547 0.25248592998270064 -1.1871685752866585 0.7177579002553187
Ni 7.7678169087552575 5.822830038527085 1.3469999402946393 0.5451250351455192 0.9720824261086548 -0.5377099736283707
Ni 0.9348402122682175 2.002879043154341 12.777623458083259 0.35716736675319133 -1.0183154889342658 0.2886225278042578
Ni 3.7447633872379362 4.261926152297948 11.792373268300222 2.0641219841999483 -1.2340025049210617 -0.7041685916066582
Ni 3.5926238903154317 7.662133755242005 5.539507590779224 -0.5507246407204838 1.3271633426464629 -1.6068019217845553
Ni 5.1176662584031885 2.4279701256448964 1.1042915988303208 -1.4986970611548125 1.7573721506673605 0.10908239405166376
Ni 0.8221794658930432 1.165001135990793 10.244696916292492 -0.20555404131785246 0.754730620824926 -0.49252360689971947
Ni 2.323045704225891 3.294058240553614 0.9546623167642073 0.25136929987975415 -0.3319060210832413 0.3238957491842551
Ni 4.2191263491019395 6.346976795394391 7.126158090784858 1.4444233874129124 -2.2687154613767446 0.8307835952254466
Ni 8.384629535976673 7.214920604461329 3.682930378096945 -1.7336663224099884 -0.5079612816110284 1.795719382986991
Ni 5.963369161623077 6.606124941657449 5.212718935381491 -1.531125356886847 -0.7894567114522016 0.008167109191824643
Ni 7.29644316851558 7.651374385664536 12.758598479353758 -1.2943421823513839 -2.1675348386706608 1.5418075191910416
Ni 1.4220924783839026 7.341464319891133 6.641480028979296 0.9483339175388054 -1.7882971223809911 -0.1434423595887723
Ni 2.4564911393081914 8.369262925730519 11.932079614362648 -1.1677719159276017 0.1569427080680523 -0.2925905113130703
Ni 0.5532144232924806 6.753666339261802 13.080999286495597 0.5025125997916313 -1.5238169961508918 -0.18848268765786247
Ni 3.3669879351067444 1.351502969567248 12.992535694981559 0.4722702559673221 -0.3037611832179091 0.28110487927097394
Ni 4.754160454454176 7.958441491422144 10.397595145309245 -0.14694574475634048 -0.7735279560370871 -0.36225686546095676
Ni 0.9724842937635534 4.366740877510557 7.340694618176246 0.4312421343814186 0.42195890930727975 0.9121723800165839
Ni 5.564148101141215 0.6985728663895263 9.126843209811254 0.14421086232368066 -0.8590950405756302 -0.38837181738045373
Ni 6.382500083566046 4.360579607251243 13.352183849005598 -3.7684880149839226 -0.6117037515070175 0.19457157416441975
Ni 6.448052708238959 4.205176648188418 10.676633956197293 -0.88511151924405 0.1620201225909597 0.8287259413654695
Ni 8.472386501094503 3.762351345663635 0.3684412191018362 2.7785551909574084 -0.3834129307132816 0.3092484315847254
Ni 8.951356703627193 0.2864231938486909 2.956341100593552 0.45649191008714285 0.2346360462854733 0.11897728456787252
Ni 7.225652549987197 8.054617640380966 1.9676656467657587 -1.3089200801655585 0.8090120078763099 -0.8906869564492983
Ni 1.3254958273005577 1.8799735852367139 4.29609012164533 1.1195711878526589 -1.4076612401922144 -2.2873510742000605
Ni 8.130317164145627 4.343887501177788 9.038071554784247 -0.6538824417575965 -1.3481828823209234 -1.635985742437363
P 0.1906739459597652 2.607104030691667 8.382178739898746 -0.22352219576049892 -1.001019163747663 1.2316977680472851
Ni 4.899288535517788 3.091019703862768 3.7312570418252706 0.2706484598243403 0.43990392382147464 -0.2955575643611942
P 2.6931789873114056 5.26576527839006 6.007408531951374 -0.6643681717802687 0.036471869673788807 0.7026614109335125
Ni 0.575629928934713 9.064334654865865 5.325813895906989 0.41154002796680095 -0.839303973991632 -0.2384911583655054
P 8.243669910756159 1.2284146846389583 12.047690274554855 -1.007109850026433 0.3890660152340009 -0.02723441023592084
P 7.7029864507744605 0.1163136300482039 4.623468394152448 -1.828254122389903 1.2047873168096863 0.14986651794756126
P 1.1080413808190013 5.284879842354787 1.548692870187012 1.0471375553722804 0.010367459277253112 -1.122790209010589
Ni 5.097646700735684 0.028832733716473716 1.139845053458735 -0.1366037394003841 0.41592273041552885 -0.8445014590321713
Ni 1.4311881221643443 6.543835779124857 4.287273289056149 1.2710189342444111 -0.7073855558820591 0.3075389050927865
Ni 4.347736009752226 0.8686559202734673 4.881407139739976 -1.5641468061181902 1.4860667739853115 1.6675023249884056
Ni 7.652891849853033 1.215781338202204 7.443568634670676 -0.3181956134756843 0.4182596060788216 -0.042309302291172295
Ni 4.009935683502313 5.499271936407752 4.339399098066033 0.11197257111526522 -0.7619613342454103 0.7097573985483454
Ni 3.132658555541072 0.3835482149928493 10.070779065859911 -0.3100529297638918 1.412113105315981 -0.8138420822751017
Ni 5.209637386116781 6.190805962886786 11.95752639184166 -0.3684401114535332 0.04030358471505317 0.567454551880655
Ni 6.880740253022526 5.838260638226971 7.55876427754868 -0.30550310560968036 -0.42704943645630966 -0.12573851455110602
Ni 4.858435839985332 1.8639487977521767 7.272433411340375 -0.22886263413680588 0.3871243181265978 0.1936760589333439
Ni 5.279815534159445 4.100032834356618 6.0094955022780825 0.9575585214608672 0.31105051779047077 -0.2950094051672081
Ni 5.240178638247893 6.884799012659225 0.9084070830666844 0.0012963502139203482 -0.9973982791656242 -0.27863122091950077
Ni 3.126707536344019 6.390882702004905 2.5118548146769024 0.04518559539770283 0.10501645151240623 -0.4910652771866381
Ni 2.305110374479935 5.8869383298157665 8.719096011687162 0.27560271850582213 1.6060275055123758 -0.09431680570671498
Ni 0.6028665828481062 9.107161882113473 7.767989680280333 0.5377233433648094 0.562276093003509 1.301453082364552
Ni 6.034260335007324 6.083970999206361 2.9745104489131555 -0.470238570249274 -0.5806098583156903 -0.7036890808670784
Ni 5.540636547570062 8.641090125182998 6.749945809594826 0.7294618189558082 0.5824011458881583 -0.2854281892366761
Ni 7.918438941489267 3.5456647726268598 6.492729230699414 -0.9867562260707458 1.0422784275077661 0.10894818246664462
Ni 8.944610386933759 8.853909906944269 0.5337598010879216 0.39250306594000794 1.9396096287464595 -0.712571985179005
Ni 8.976797082160829 8.37017706078383 11.410648752738728 0.5210759646161155 -0.2282905636834197 -0.7165104010014629
Ni 0.5899379707891326 2.0518126925580646 6.343535991053729 0.4495116221145678 -0.3766180192786353 1.3422554610928947
Ni 9.123278083103342 6.409604187896709 8.350149275900845 -0.2562137724562491 1.2741667358447735 0.07832300138161995
Ni 2.9883897614275727 7.947736969947875 0.7449752758306323 -0.5341212278358479 0.9590646736927483 0.8040919448668733
Ni 0.732924233422837 7.37749038234211 2.111252496129488 1.774268669312383 -0.3848720317573114 -1.1593973187106614
Ni 2.49429062376259 8.554859765604196 3.692496801429842 -0.46570083027992054 1.030447239200793 -1.0516200166236664
Ni 7.498101361275927 1.968937208624914 9.873140324928972 0.18638749569173063 0.04020562568460818 -0.2724235494468921
P 2.6325992573285038 2.3002928827489875 11.173781734265065 0.4410627200162662 -0.007552101315645059 -0.0844208867492417
Ni 2.4604036373363614 3.596335278631873 3.293366240318258 0.9370393184615927 0.9812676921523489 -0.7942024536673032
P 7.823643136460944 5.385379850115768 12.36582298513279 0.7681625779601158 2.054448979886559 -1.477925890045732
Ni 8.798421909208306 5.814511409541958 5.524349403325226 -0.834765205581014 -1.082053136302543 1.428726802613262
P 1.2920202016483187 7.773429697982586 9.97843497104457 0.7272504131267863 -0.07082463612204577 -1.433108219510409
P 5.750485390408074 7.372535770353165 8.533057644582735 0.347981072268233 0.7027539706473187 0.27202682822910573
P 2.6987552111366013 0.6679593975892033 6.666726610881631 -0.12543461015744203 -0.08041947889933247 -1.6758152157294752
Ni 6.406020778487731 1.8624221922131476 5.536938871279421 0.3243775739166801 -0.7774581443294287 -1.3563919004942768
