# total energy = -340860.3400808602 ev
CRYSTAL
PRIMVEC
9.36636369352826 0.00000000000000 0.00000000000000

0.00000000000000 9.36636369352826 0.00000000000000

0.00000000000000 0.00000000000000 13.70862003202568

PRIMCOORD
 96 1
Ni 1.6923052019107196 1.5767242755630073 6.127300827507553 2.0075497442318584 0.12277454682677563 -2.7678781708595364
Ni 6.512367019698526 4.769436622738423 4.508806317006113 0.4935731312101564 0.8733011568726831 -0.05690519782747618
Ni 1.199878004033522 1.6203621633955838 8.209078159028529 1.1132491022893731 -1.1867520565745304 4.232679093487536
Ni 0.8491601402949261 7.172658185323187 10.542655188716125 -0.8320611763862896 0.9259419229968506 0.40697066342856364
Ni 8.704807936697478 5.560163767319182 3.951989116189695 -0.15189640389339648 -1.1108831731603577 -1.0375483690219487
Ni 2.4141802079516044 3.9506665856548246 9.466734449963278 0.8612069447123102 -0.2564744823168035 -0.4041491348193685
Ni 3.5584220124303934 2.5810981729793663 12.958250654201857 0.5412452404751389 -3.000754554141426 -0.7686405460377987
Ni 2.828707360088614 1.3886289625229138 1.4622157978430759 -1.3943555242222436 -0.5805252690216841 -2.664614440372179
Ni 3.6433374644780723 0.7313359698742581 3.324723748482541 0.060431208702863656 -0.9042644380234168 2.4796366805437815
Ni 7.827086007358409 -0.049342003241470624 2.256136872398272 0.7247453873167453 -0.1147118244232992 -1.0131051483779197
Ni 2.842466548160315 5.867427323951004 0.805489470189885 1.0794943744364311 0.8511053375019341 -1.470111793317952
Ni 5.808363035332797 0.36827323896173325 11.741830715482543 0.15348354587485824 -0.8565915574274862 0.6201853066154673
Ni 7.45208490945052 2.5202168098302473 0.6708189582676777 1.696431092207614 1.23709811312725 0.8658184753423928
Ni 0.6358131110932904 3.4847180975657133 7.277028511124255 -0.654935051391827 1.1461319690603229 0.54375489427087
Ni 5.306709969347619 8.943594009331884 4.440153682010098 1.2513016583211418 0.23661579571966346 0.40461527582250956
Ni 4.678395568921587 6.184113442325599 12.577850784337175 -1.6493793901354499 0.2815825902383408 -1.2525812963645138
Ni 7.9662046053359274 8.709247593025582 10.075342021456116 0.43989492496041016 -1.4728618452592634 1.2020025549756976
Ni 0.6891198960303028 5.595437492491424 8.605572251400769 -1.9020558388624014 -0.07135454048358679 -0.5393598505269679
Ni 9.160397226687678 1.163873702503489 4.162279900961245 0.6581990668550793 -0.727755892008295 -0.37631154378181
Ni 2.0638688443915734 2.9071506549153634 3.3332780483231703 -0.8372216375413065 -1.4850306194113134 1.5736645158006384
Ni 8.231356991395682 7.968424433499979 4.411749247873788 -0.5883064556289997 0.23480779597664722 1.0663976891534732
Ni 1.1064110620542822 2.2799602181167007 -0.3453350145998575 -0.1251121938210168 0.05820051960013202 1.802572915573715
Ni 8.10809564692762 5.080699616610965 0.606455181146429 -1.6721562788206492 -1.2039645637980747 1.2180603797695086
Ni 5.005562648121391 8.467342521325229 1.8194489040749835 0.009998763083924715 -0.011646068879360587 0.6762939766835772
P 1.3563524736903192 0.1727813086171998 10.003262234032984 0.018580334105348647 0.8450848423394671 0.34983406631657166
P 0.7057255219883142 4.3614565587308345 5.427009669657565 0.8209072166519992 0.6268742885998687 -2.4900645607453247
P 3.919148772270704 1.0333253271846552 5.585549422479652 -0.2318011479398395 0.38393666442723556 -0.19800708220852994
P 7.5014643781462365 3.675585854219982 2.456913305064149 0.19896121859168314 0.9361507452090522 1.9048352013797514
P 2.1705236262652687 6.95497452979262 12.23784897714918 1.078134517974427 0.09068717937392769 1.4924014579540879
P 8.9546556846979 7.929216835631946 0.6372770737179376 0.04270653772959097 -0.5040812298303319 0.5416152222200479
P 4.474864488732301 7.193414046975255 6.7384307607074785 -0.7367722365742925 0.20101013070091187 -1.1033161594463772
P 8.338255298721974 7.380338564570174 8.249518370341242 0.5442799135364046 -0.94902297318603 1.1565266820310856
Ni 7.184890656134378 2.319626767799242 8.17131110787624 2.1464993581566 2.3917108659650745 -3.2386011369443968
Ni 4.7372537975414435 3.5117775218946066 5.46178791419741 2.3163461758808306 -2.923719932553926 1.2524139175487141
Ni 8.211144378830173 3.281842662825726 12.202549962795322 0.17552484194561382 0.6381814860825719 -0.7309522874584057
Ni 1.9632553670149833 8.211959252460018 0.5214797843719571 -0.6018070612185958 -0.022634449570064243 -0.641936839359946
Ni 6.217710588420351 1.539867634948887 9.858759850280371 -1.5748947886633133 0.08586096162987794 1.1801432930087612
Ni 2.702504977462271 8.565174188724082 6.292366125822869 1.2036020382523336 0.8286058708478375 -0.781883527090634
Ni 6.272981499796189 4.09958239991757 10.88242377345144 0.055347623532369196 0.507000717469972 -1.0205724032892423
Ni 0.3705136731256209 3.8058907040862198 1.6807592855485782 -0.305696452567409 -1.4706990332799899 0.8415380055284734
Ni 7.228968763054341 5.452581715452907 8.48803469170508 -0.28481241002954816 0.11595058192640675 -1.27939893077799
Ni 5.331137445515757 6.214994342987544 1.0193919247507122 0.9142835128223158 -0.20606929039137414 0.9434758181155557
Ni 0.7161633975411416 6.1239158237164615 1.600261947192813 -0.6830431224819526 0.9344327340766809 0.31929553140808237
Ni 5.41868484572419 3.6499501171524225 8.407222643533652 -2.057809411718359 0.36904894868212573 -0.11959100689247146
Ni 6.333656802946957 0.7116282043047103 0.6639740197770044 -1.5645746376842282 -1.103317444997958 -0.7034605097960401
Ni 2.7299015908793742 3.669937936992456 1.163538386687991 0.37207256599979793 -0.5879069061977359 -0.7654685760677205
Ni 3.3436700286945467 5.456946440872521 7.563731026466087 -0.32743512979608125 0.623027661160269 -0.11114750411080858
Ni 3.4241645571412436 8.319241580692326 10.737002549433454 -0.5460375196574596 -1.8147434894979781 2.451819658331513
Ni 0.5707206308869646 8.763094817140088 7.699885170376421 0.7603536234386583 -1.94731213959704 0.6966105767537423
Ni 1.7604173977292417 0.3391391651039895 12.385587439512257 1.7378495072534004 -0.39003712089801856 -1.1767592070278767
Ni 5.503787625043097 7.399829967141454 8.526295350217055 0.9539024127655186 -0.8092084401578322 -0.3105236987527233
Ni 3.718399502059155 1.1845639996106283 10.101265305885011 -1.215945390309035 2.2951610571627823 0.502331851239393
Ni 2.69141520300557 4.4576022806886355 12.43466437466494 -1.0640088772063225 2.283658712950138 -1.1037571036385379
Ni 2.8361629854834907 8.527989725385313 8.55116304547258 0.3006455204070629 0.024076581333229506 -0.0222518694196649
Ni 4.800177027946948 4.373164513182588 2.9408686271000577 -0.6632543698907996 -0.3194459409430176 -0.031047356224107817
Ni 8.90196988966501 1.029859772666936 6.713275518090619 -0.7741154531094411 2.1714038347077635 -2.978994793866831
P 5.568106443619251 8.191559312623282 13.31397577590038 -0.04171769145376041 -0.761958763142249 0.29597973950027734
P 5.108686310932438 9.080342917328366 9.581557637498873 0.8808296040392444 0.9082912997946229 0.5284432036144641
P 2.441942109547603 6.447111564766232 9.335241008561098 1.9526721183573728 -0.5493640129275313 0.016947426487615973
P 8.597104122104904 1.3705799799400902 12.851488159147205 -0.6376690652225276 -2.299837893813162 -0.2785049797542816
P 0.7209945678661132 1.2747152488891313 2.041432657116589 -0.1163755852789673 0.5642782110352024 0.7659079775979841
P 4.3146903054687495 3.264355662056587 11.005060381469958 -1.153267808774156 -0.26880497885769833 -0.9931474743090702
P 6.847036556111013 4.191307198274389 6.818750138155576 -0.8587885650788047 -1.0586540406523122 -1.6278147765907964
P 3.077300015371809 3.363564184898967 7.110386853821556 -0.33779641842574726 -0.656302878273631 0.28430076050045233
Ni 1.424670729507192 2.2862825135206477 11.031682396620534 0.15762739283990274 -0.16168279385619896 -0.8573520897425944
Ni 3.98688631354677 7.065085499820474 4.62210747046298 0.07150109336378008 -0.8494570032652338 -0.020378820766668127
Ni 0.3559958096054463 4.679800523455797 11.14281898345836 2.298970403606544 0.814100735253127 -0.9130313855827694
Ni 6.012952514604522 7.374634449161279 10.909579671325016 -0.5222597005115716 0.46306776353244766 0.43856155086096726
Ni 7.905491836730913 2.949936203663852 5.277956169850467 0.16280225217262284 -0.01423388421119484 0.5438803641051408
Ni 8.569716875051363 5.562917478206234 6.336123903109031 -1.5173043918433546 -0.16820105459069098 0.833831380912835
Ni 3.172228110066628 4.805365993359965 5.22929041805813 -3.480451955810754 1.76349343307375 -1.191704515483799
Ni 5.106232323679349 3.6799131141853505 0.546675302352131 0.07567810755960516 1.5900563268951002 1.8360859597294958
Ni 8.745738945460808 6.376526648967499 12.637894794583904 0.648888845197747 0.46132789802320545 -0.2230516838819836
Ni 5.474339778006046 0.28939534486573465 7.13485647862572 -1.5896724611931203 -0.019913708204791512 -0.6721257042385006
Ni 7.747987067082361 5.864767276699566 10.57259476984015 0.6937592233478761 1.2361550324876904 1.3798282771403463
Ni 5.9713096622105235 2.6189944799488023 12.613575031596723 -0.03132606380679121 -1.7189547272314267 -1.665279606305474
Ni 7.079593996977087 7.585771016562425 6.618384888850046 -1.111083462096622 -0.02088507097912532 -1.5826685190714616
Ni -0.20412397100272242 8.638775073589587 12.265718591926136 -1.0310090252415343 0.8962279408721856 0.090207925744664
Ni 4.061929618400731 9.677420495277119 13.433131843219478 -1.0472812800389963 -0.38412101252389974 0.11524378566736927
Ni 7.5418802369136895 6.95790620158734 2.2310640537807527 0.1419187238553943 -0.3218859178430779 -0.3591419739810589
Ni 6.7485773423535464 1.4756331136447856 3.4721877763932687 -1.029343207503337 1.7815181517859449 -0.4314110558591151
Ni 2.8930449113918906 7.403876236199979 2.450841091567292 0.7095385976693199 0.6382807306645976 0.7387746117163019
Ni 4.485111290468476 5.534593594796552 9.637557251959787 -0.11869189211696977 0.06576161977684158 1.4135076716706625
Ni 0.48014976852091057 8.319831661596695 2.7819720158262817 1.4903265777029302 0.44462806877002137 -0.5521454323274103
Ni 1.2786210224942365 6.610610807094081 6.22072468421441 0.43912976465961145 0.36116491794835864 1.2671406822359275
Ni 7.541692909642462 9.497305323991341 8.024601072232205 -0.9514328681791033 -1.4512296117014682 0.9561076479469532
Ni 8.553250807910416 1.6403687159627405 9.911016665862153 1.3991706862227 0.6926608480773748 0.8563565585985444
Ni 1.4578089237874359 6.472831599105844 4.016214271130234 0.7330137979731247 -0.37853811911948354 -0.789911282491117
P 4.731165661226531 2.17213464079783 2.2271432939939495 1.0929294168954145 0.5556141076023011 -0.40391310754916243
P 8.531951697171786 3.9191113068164585 9.58787712299375 -0.38547624100021355 -0.9244691951060661 -0.6831806765010816
P 6.603239478971258 5.324627822840582 12.791032965540131 0.3552542088908785 -0.21812313623211468 -0.600350017057095
P 2.580892112981015 4.877468260055644 2.882579873384735 0.13555498642089558 2.330572089672225 0.7571546568853863
P 0.6397544768799287 4.340991054349169 13.239867234129846 -0.2048683281047375 1.3031497533406848 1.0068167442660467
P 1.041183706212672 8.73019078194888 4.97494025909374 -0.9939882250428106 -0.2004573435212354 -0.17756835473820387
P 6.156782393453425 6.977238375978075 3.9271635695701965 0.18283294557125285 -0.7765176347930304 -0.25131864914747687
P 7.018993624734811 0.5914970985388686 5.45882720667565 1.2460923462060602 0.04559054414560536 0.5823695213192744
