# total energy = -381160.1008586452 ev
CRYSTAL
PRIMVEC
9.34709821477036 0.00000000000000 0.00000000000000
0.00000000000000 9.34709821477036 0.00000000000000
0.00000000000000 0.00000000000000 13.68042305649136
PRIMCOORD
 96 1
Ni 9.302232263943022 7.837065252683645 6.594291882711991 -0.8537708001492392 -0.26606341155681923 -0.9844964835022916
Ni 1.044827999091454 4.569964624218745 6.9495863069796675 -0.22747192443686629 0.2851487103230444 -0.5008046159615892
Ni 2.925576349465754 3.441769855068902 7.9341526283893815 0.9953776491911698 3.2948638160918673 0.2526651358730423
Ni 1.1024995958243 5.391911063489337 11.13716394240397 0.7880073806001848 -3.1718969507486277 0.9035897805538955
Ni 7.158157459248181 9.191198082810205 2.789205923583496 0.6728183594301509 -0.629350003833871 -0.770802329575808
Ni 0.7028989907343609 7.179683826715887 13.356922202325043 0.6385170150451196 -0.43541194948839207 -1.2291289788788444
Ni 6.558681307471668 4.678540518489205 2.286847058227395 -0.26097879794506024 -0.2359388242572969 0.4316925916552759
Ni 3.6130086965836092 7.452245214192351 7.888035914619444 -0.39415988481714054 0.9606636427487519 0.5437160706131345
Ni 0.7039215632923146 3.895263025034461 9.10221464136174 -0.9241105262150665 1.0999475000844605 1.4621971664565656
Ni 7.386264047038842 1.7092758314011944 12.022656629711555 0.09311198676533641 -1.5042740410219577 -1.4187144126825824
Ni 4.518751872436043 7.804546697572855 10.057847019872506 -1.6742003058338717 0.1096611493732692 -0.5718619369197313
Ni 1.2216003228210464 6.63979542683109 2.2517019684842023 0.8829150258133632 -0.22002061036514364 -1.1060502705480888
Ni 6.039664978171061 7.749211875423997 0.4963253133802413 -0.4060360674294362 -0.9318942839255435 1.322093641433039
Ni 2.3679191156443062 3.260931543563169 10.597772808150644 -0.7666985918200795 -1.4113623431928854 -2.468911323706477
Ni 4.959346046697983 9.161156508758443 3.5114225624487765 -0.6275558880479256 -1.0723065984387403 0.2641602809968354
Ni 5.2994589138484 0.4214008425388883 11.056148902286907 3.832794647481793 1.7910913972966767 -1.8025384627913537
Ni 6.4585645371952465 4.9758530223592805 10.602054713898347 -0.043441359013086475 -0.152391341251944 -0.09526759965575851
Ni 0.7025587563549323 7.798087852622709 4.288306640641727 0.09402344283601226 0.14523056183744668 0.023400638312127443
Ni 4.659556561768879 9.354108659707576 1.3776323700529869 0.9269891333144422 1.5537762615171433 0.554622176002677
Ni 6.4941395934618935 7.028372998853437 9.794895384195236 1.9372701819800053 0.9244825648425047 -0.8489862342764023
Ni 2.9667970531273182 9.10140050909668 4.758804051900056 -1.0554062231389758 -0.8612473110319426 0.5964311416186631
Ni 7.648169742412318 0.4213821483422164 0.21701812503471654 -0.7235865911219539 -0.8311427783370782 1.8406702366660688
Ni 2.9406251777866426 6.474660240529762 4.004506302126108 1.148641365745738 -0.0400737280924342 -1.4352234660811993
Ni 2.0789348763915667 8.809836470703218 12.348675007281184 0.555595852769856 0.6713854836383663 -1.0927252713044084
P 1.7172676004784364 8.665535966592733 7.171181706069501 2.0958900206401645 0.22696593133472523 0.3831365371234434
Ni 4.590060885641049 2.3470003095684375 1.633113804740161 0.9669350775797605 0.7890653895510539 -0.9042029886578622
P 1.976116794696055 3.160225906091583 3.982535012777611 0.4925341484226808 -0.9069388995317865 -0.8832245866339822
Ni 5.543446221711849 6.740463675909332 3.414880122576025 1.7078071952550393 2.1938081705448926 -0.1304757721257753
P 8.492063168575733 5.453153251786518 9.88691008963405 -0.0689706136324425 -0.2759076513407506 0.1269469330369104
P 8.979607817779177 1.0437156943894752 2.7276982776935736 1.284115362417053 -0.39778128361981174 0.20144104759074338
P 7.968120918452078 5.141165803528992 0.7751941228138096 0.46831769907747733 0.2503102624876205 0.49405752704574263
Ni 8.322637664138202 6.027700692301037 7.761601454268307 0.38266139725923776 -1.4096191352495335 0.4240934391517793
Ni 0.46618185595661804 1.2192448540403855 5.406284096600535 0.41691826155957873 -0.1320865682563209 0.095768450551577
Ni 4.518452765289293 9.158501932831033 12.780209973835916 -0.7797381986128572 -0.9859964650865858 2.0051380494665727
Ni 7.353895045501427 7.730751356210486 12.411509006424978 0.8072274051720614 1.5480828106767919 -1.1649318753756452
Ni 0.059011970634222144 7.192311756567762 10.985571766881606 -1.1201355449965613 2.905249127443248 -0.11410427274628736
Ni 1.0654009625288923 0.8828063312458331 10.435030479023322 -0.9053497006677956 1.3176546318250792 0.5588624393362698
Ni 6.388405217085564 2.488477989981462 4.107464590296659 -1.0177189930008474 -1.1697591215609595 -0.5820021106775267
Ni 6.070258031024643 0.17683494928844337 8.906994884356308 0.03598181741124771 -0.8176547711529724 -0.14114405047289885
Ni 3.191463908730347 4.0892246626038755 5.5652511327099665 -0.6709188284145929 4.357000158865825 0.009181152278635802
Ni 4.798108600402749 5.483465891690022 7.031518297443486 -3.243485975840524 0.12947304189287379 2.281374030681019
Ni 7.900391843909744 3.9804711734650318 4.136960293805601 0.9516372708804256 1.4897349668655182 -0.8684577127374528
Ni 4.417176954819214 3.6951603438583227 3.4966616247566353 -0.18031737823825075 0.6231364188239914 0.38261280340948944
Ni 8.742705610454383 3.49994619511189 11.2098759550692 0.3891007251266783 0.12071432186363727 -1.2438578004485867
Ni 8.119431746314527 5.618335173579526 12.3336401996078 0.2503035776194012 -0.7885488549259516 0.299202103092317
Ni 4.637469368401016 2.520688090847165 9.719844727526349 0.008736351431733342 0.4162112081902251 -0.5756368305811312
Ni 2.6886741421409592 4.339661468319134 1.827143676127428 -0.3473480666699244 0.7665666942279057 1.1097282336203083
Ni 5.807230683850853 3.2309553991997597 11.67533808445395 -1.4023295435666558 -2.0101897529578667 0.5751611764962934
Ni 8.486716628327567 3.1040778863874983 13.425843966615044 0.6423428165491131 0.6681690335835976 1.4900985208525241
Ni 7.647328503562082 2.4130188651152924 1.924384344245875 -0.7357764483199264 0.3817913359494586 0.09595125598634444
Ni 4.557916214463697 5.81948472976929 1.6946074299825793 -0.3624324718068726 -0.23304376209768896 -1.2664166595857091
Ni 8.338434260325966 3.2848227269098715 6.228997932644511 0.215720440327893 -0.7652202075023402 1.7887303532636678
Ni 4.654742806125862 7.591189830956332 5.84621930042979 -0.61845906795298 0.5231104785476411 -2.4323116702055723
Ni 8.232699883949637 1.1866608692412444 9.073554568444035 1.0116722725861351 0.42409626736525674 0.45058171525029495
Ni 1.3801177635005177 2.5514587385691305 1.6604615450515 -2.3339127240096835 -1.0812630363010798 -0.4672856582685372
Ni 3.2773637424377795 7.912748707909877 0.5619634420248223 -1.2331306438390697 -2.0492700067887806 -1.2627818910465995
P 5.7629628261317665 1.5594885805675056 -0.01792306105919488 -0.08194285752239437 0.14038043283399695 -0.7007377115482384
Ni 2.1899410162293758 5.877576945927254 9.14165565750014 1.1071944114548609 -0.23054207872175778 -0.627206475128307
P 0.7375477495559148 2.26652179289586 7.867173191133591 -0.49731999984709835 -0.896600493720256 -1.4492123241611237
Ni 3.430787014524155 0.46124097977623185 9.984725604300158 -0.9773940681295554 0.27779766927461186 0.17441978180689316
P 3.1192014914950743 5.852694970156941 13.736376071661663 -1.3347781788792432 -0.2852297000726249 -0.9507924063816271
P 2.6694565079622343 8.324357530232017 2.4906306267282323 -0.14495185425476326 0.9038317213613725 2.7634677004966663
P 7.169916108954813 8.608387807366702 4.880299505490474 -1.1654075294604833 0.20062857899177705 0.5218676072794755
Ni 6.5956864697837165 5.154345212182689 5.957892823088787 3.9079343660394246 0.06246649396533758 -0.867518488752635
Ni 8.407481275733671 7.445552691783808 1.2104071725637398 -1.3071881850761167 0.42579422389296995 -1.0327979988211566
Ni 3.8129150886946914 3.901572316411231 13.550199632296264 0.4786105963630532 -1.2216010459329154 -0.6298673097899217
Ni 8.609677706937063 8.034905936062481 8.89944336361069 -0.4708435508231246 0.9500167045578671 0.1712526969328212
Ni 2.611186696935887 1.207411427547066 0.4303450809365642 1.0384855361242373 -0.5193337851140282 -0.7294170817608019
Ni 0.9759305372571252 8.978037505258738 1.094433984670204 -0.18963171366064116 0.40210587913709456 2.027099641339328
Ni 3.1459622340309155 2.023917855586132 5.644789331289947 -0.4211598104447521 -2.9998713802055237 -0.34473325475489663
Ni 2.791052910214681 1.383613578278165 8.038315757535438 -2.783422289241723 -3.478760684151261 -0.13167133509577322
Ni 6.072884565657047 4.540455834772133 13.45014081402953 0.5342631527303509 1.0815908519541437 0.7798968356779085
Ni 1.7121734318853405 8.340453233566533 9.431748462615523 0.3911825473563715 -1.3902258183245864 -0.6955309705363183
Ni 4.8513403254260155 1.3513473948224464 7.353966083448781 0.1440059454017262 -0.9416421073409266 2.157648175684568
Ni 2.9441303396626255 6.781516131800849 11.480105241510845 -1.260765374837203 0.8353606730731679 0.8563141353963833
Ni 5.178769180134541 6.761513341361905 11.997730722579062 0.79153287725494 -0.6695402028995114 0.8083010978522144
Ni 3.848452756567995 4.703179469702784 11.195319718830618 1.5109601947928817 0.5681456644104086 0.663018856841226
Ni 0.7970009032315941 4.847489320911603 4.576388884905047 1.2670967163718696 0.5370448292405461 -0.8579555276545483
Ni 7.632214245552841 0.13845202468167528 6.866450410250177 -0.4178366596087901 0.4769290948955722 -0.4608437592979354
Ni 2.202905441621346 6.60995948894272 6.071084314517542 -0.48420968771738543 0.48251841605789153 1.4751012761127436
Ni 0.7742538047212125 4.9315290820501785 0.16313210312793247 0.5556886695939784 0.5531016255930926 0.13629880656545557
Ni 5.315947195313026 0.8198573627925063 5.370140736755062 0.9875578960364348 -0.46255559978271954 -0.21313802431269746
Ni 0.21328676337900304 4.318882868718305 2.3322524578139667 -1.380949278118667 0.38058446012555097 0.30530821599005487
Ni 5.315433104904548 3.219972558655012 6.279054448363054 0.37007816127758847 0.1870312999233166 -1.1035282754571833
Ni 1.6246845914607961 3.302610255043195 12.620751280354014 -0.5705853842001528 -1.5275011298706982 0.8613455271727036
Ni 8.42209079043277 6.321685629163513 3.0737717894528296 -1.0657597984591582 -0.6551152857234331 2.143158723819141
Ni 3.4689886054232053 1.8111592032631105 12.064478351796122 0.6112427527101989 0.40033953126529115 -0.706323690276448
Ni 6.615642524730982 4.283681696385096 8.184122079187842 -0.2649439532403953 -0.6435784887284272 0.8982421430887368
P 8.37801922177874 9.239821688353846 11.07242874345864 0.42440274286208196 0.4988804023556828 -0.3334574247307612
Ni 2.907274730923953 1.409729371028825 2.9142990753234237 0.36386689026055397 -0.8062943518348309 1.2973462592850302
P 6.880230837326876 2.106527510679308 7.599530246801506 -0.14701490743137907 0.5260181391127393 -0.10431222635653002
Ni 6.3743004456966075 7.2560028846289635 7.1788706291606585 1.1175397592449268 1.1502614178476642 1.1718008345813369
P 8.638850000843581 5.817792904970482 5.5952384935913795 0.08398688453561665 0.32219110778832255 0.10825758415752323
P 4.954261225203223 5.4291312090631125 4.803785093222175 -2.621646164340769 -0.9380281647374232 -0.07478722031421958
P 4.391407004706984 4.776470067755012 9.144063470031483 0.28558914029457266 -0.3944797300504045 -0.5650680539263494
Ni 0.32874212202472675 0.7835859476998307 12.936509348080264 -0.0999907161630407 1.5171431836751421 -1.3462051897692622
