# total energy = -340873.7509180596 ev
CRYSTAL
PRIMVEC
9.18192670591233 0.00000000000000 0.00000000000000
0.00000000000000 9.18192670591233 0.00000000000000
0.00000000000000 0.00000000000000 13.43867785747854
PRIMCOORD
 96 1
Ni 9.252719438587047 8.151677870319661 1.808093085621152 -0.8719947793564338 0.3755209295597146 0.19138906267138006
Ni 1.5904566296596183 5.697275385785593 7.123198314840996 -0.7169233201691653 -0.09648553122325963 0.3406302883301166
Ni 5.823361604370977 3.5661593613573195 8.6343240152874 -1.8509263671764382 0.2931445840443274 0.015889674647062955
Ni 1.457979790033204 5.208677515877055 3.897552544619905 -0.11920688408017532 -1.6001319659635476 -0.7808921097116422
Ni 6.600198519854258 6.188021826561372 5.498018392665768 0.23012170335488755 0.17908581982399477 -1.1908390821597103
Ni 2.415535388461251 6.873627117527878 9.244278493295353 0.42526431953142885 0.5064304467887988 1.1528440909731759
Ni 2.117664501691047 2.255659679314098 8.873975977096748 1.484413811762921 1.0346201396315602 1.145494078366008
Ni 7.213523683184282 2.012953808656695 7.66171281151312 0.27409296672951505 -0.4244063424065077 -0.5544553114075096
Ni 6.433923007739291 2.9618141224211567 3.3397532471252567 -0.4049646887421284 -0.2861277864068621 -2.2184997597543017
Ni 9.121528068710266 5.596577194755451 9.189932505051601 -0.3790345991399278 0.02210145988472968 0.5939525981711835
Ni 0.7082763863866305 -0.06697572853388921 5.015381429624813 0.30846681622369454 0.8010904390363881 -0.7961274386041579
Ni 4.832549067134579 1.0887377863780456 7.367996746612265 -0.2722618270580472 0.021625805799891786 0.9330399674942124
Ni 7.3372501465864115 6.876390877489587 7.401593416711589 0.7557410643673114 1.24475614389314 2.1500338536724195
Ni 3.93418935067711 4.450039179277857 12.668964563164186 -0.15280991684660133 -0.7382573057602512 -0.7137770612306997
Ni 9.095304485817762 5.631753156261467 1.9977136465821232 -0.3521717133108129 0.9035460718001536 -0.4198683453268382
Ni 6.4105641860031115 4.509675793734023 13.200047208298079 -0.9135594901720975 0.036879132414536483 0.5443904709723398
Ni 6.593899718081057 8.340476648833546 0.6853996158065632 2.1148609053157124 -1.0447749686773748 0.49835898263457395
Ni 4.901321698739919 5.324544249952861 6.963963504183303 -0.26990515390041264 0.25958526003164323 0.7337689309715943
Ni 2.085004388123598 5.489525110391411 11.231603707915088 0.8726414118014971 0.050973148613757374 -1.0422126072668374
Ni 0.9855972028236022 5.4898556597556025 13.138578799448688 -1.262917131072883 0.9818073667059026 0.5676754096422095
Ni 0.04897639746099901 3.4327643290525964 2.8674239150909973 -0.6442372053583486 0.048781026058445025 0.5141090463799791
Ni 0.797463195808813 3.512674637845824 10.62531740965698 -1.158680752259611 -0.16661185572670018 -0.5700961032685601
Ni 8.84158030302065 4.640545796173396 5.627500087775539 0.515310779997564 0.048089913528691366 1.0160004676478436
Ni 1.3244745746070836 -0.10365936241768808 9.58761001776131 1.0113912510106067 1.3660633621457698 2.249316745135159
P 0.033862027783355494 7.452400690373136 6.15134002906293 0.5994311047872516 -1.0374658366104712 0.9370804561121733
P 4.163664064840081 2.584767481000372 10.166131087620034 0.7298824514329946 0.26666864924098593 -0.9536141921011384
P 3.6401105996683216 0.5746775153073228 13.41301006352702 -0.694648567931365 -1.6800873607422677 -0.4269352794759486
P 0.11220773625274434 1.7098033139862145 9.510149447033811 -0.8404586564213654 -0.16605829721607532 0.19577125089947572
P 7.84680117341396 4.879863535847839 3.7838206085211676 -0.29690045154233385 -0.34981452593254597 -0.7443371934057439
P 7.343879497723802 4.715681503039417 7.647441342714165 0.7780754661984535 0.3553750507394589 0.1450331011146599
P 4.344612295954424 1.4589438923454283 3.8195272853952456 -0.2636961968762233 0.7727841358925273 -0.7931179623538728
P 1.752049359115209 7.093424080861472 2.641277649386896 -0.5449879953470227 -0.21013343315841876 0.35436614985897036
Ni 5.36656992883906 0.9160872624975803 1.5112193560995912 0.0753592907676057 2.47501975059706 0.9889563190458582
Ni 3.6925302196729795 6.015640333135652 2.831972495781489 -0.8436812771237212 1.2328573355730252 0.07216623775160474
Ni 4.317782705894237 8.05808649061963 1.285559732514994 -0.47972645513505124 -0.7278260831245982 -0.26929940199561364
Ni 8.227603222889027 0.02553126561305846 8.554994922459542 -1.0075703346026197 0.1583483301663273 0.4869219444422259
Ni 0.6903091920574812 1.1442517157086043 7.333164189167937 -0.2584285207193807 -0.14750830212802982 -1.4206692224161082
Ni 8.505154505688255 6.9697986186539564 4.110112313263068 0.9285227963501493 -0.3041640750832826 -0.3690556335503451
Ni 2.6805349773479947 8.11758537617405 11.582366165726599 -0.321412320640769 -1.0514171565842407 0.2941444860637515
Ni 2.1036528814200524 7.551721592385815 0.5229961222160255 0.009798474147660543 0.008994490189126444 -0.148110454488403
Ni 7.175492142448725 2.5625747639656447 12.487851057367747 1.2902225037560553 -1.7927263617969385 -0.20051853577647402
Ni 2.689468992107941 1.3361356216216074 11.406320165321748 -0.6351624967505899 0.9571368605424162 0.6279562088101378
Ni 5.078946072358784 8.624436916527369 12.37952176698818 0.19579824748266925 0.4561075301645306 -1.4041565694730658
Ni 4.9321454269507505 2.146009109670444 12.07277103882605 -1.150350635127361 -0.09113326577241078 1.9086175512403192
Ni 6.412400571359729 3.8486046111319334 5.392592427535014 0.7162342645219406 0.5455855197217055 1.7499570891502119
Ni 2.4328157746670254 2.570149853561694 2.762105378503605 1.04884373943011 -1.199820202612398 1.2944062028201
Ni 2.865284526150537 2.1457336518669514 6.507223247441372 -0.4173476357875135 1.3379408928779408 0.4013101227086766
Ni 5.386320253349486 8.219982223659063 6.036815692682813 -0.15959145854480902 0.5560463100437133 0.959928050134308
Ni 4.729647213676496 8.511719583338165 3.560672241911745 3.037435711612543 -1.4037469927394728 0.5852548132868695
Ni 1.7113642415393397 0.9163131378964443 0.9885721471013231 -0.10923100381438608 -0.7552139882192478 -0.7529449896794129
Ni 5.729503948794236 5.293031877233298 3.5889332943574157 -0.24905762102744203 -0.08304354678574086 -0.22292544271676445
Ni 5.831625338475757 4.148155790503443 11.000028168904146 -2.159505797718597 -0.15597391639687977 -0.7804416524377848
Ni 6.058079198727091 6.0571334602684335 1.3590665655696947 -0.7164587218279209 1.2623805418431229 0.8659575720234183
Ni 2.0241557593320643 7.169110703334478 4.852652895826154 1.2135547785896714 0.675553756083443 0.7248849982184031
Ni 4.900871784327548 7.381222393950627 8.627913194007448 1.227046642428519 -0.7492480004438 0.23139337097845958
Ni 7.560894337242121 0.8288607944435874 3.2845744581222807 0.6812554344539106 -0.25176087889121807 0.34314662699406706
P 6.1486956341494015 9.183854987713875 8.639121572031565 -0.14918234739634306 -0.7069667231770858 0.6310369046179907
P 1.9372120946229905 4.168943672740357 5.753192401701929 -0.1418449331946654 -0.9332281722456185 -0.3089725522155195
P 0.5964910187659083 1.4064232711461568 2.8298230067215675 -0.3312084807955844 -1.9336153588362377 0.24434633159470176
P 1.8973808962379484 4.518444533811873 9.061391039244421 0.5982841356670018 0.5612021432130399 -0.7601597622602974
P 0.5303995097812306 7.048744825134959 10.813822366513806 0.21982366386298915 0.925846792179883 -0.1337837534530857
P 1.8530505537291926 3.4762040246633923 12.395258671301718 0.537844442323706 0.1439028441649586 2.2604347094251906
P 2.75449539758578 9.57849420085106 7.892656633961386 0.21828562995190792 -1.6186215401273027 -0.45562699098368625
P 7.952641243442631 6.026530098300396 13.509231147057728 1.1708292146966868 -0.31751529957920804 0.7324530403736482
Ni 7.589945953583816 8.770493825865973 5.588635746280757 -0.5636102384339003 0.38028261261441604 0.10875303573670302
Ni 6.2389539744271705 1.1082952904260261 10.574788348376961 0.7848966028853449 -0.5586616361793734 -0.8539854872632067
Ni 7.464328013264369 7.9953280210572135 10.557559380961171 1.1293097552966616 1.4923873168867008 1.0446397286510911
Ni 0.584658269720541 7.62978633389564 8.219297251921045 -1.0943458376269668 -1.206551864909277 -2.7154245810455104
Ni 1.25283718184542 2.1973819900218294 4.910117066405441 -1.6861317671641347 0.739560597952707 -0.6360608401951432
Ni 3.9121435444709123 5.227491283855605 9.563916973890226 1.9130002536890471 -1.3217478280578463 0.1856526744082351
Ni 8.97394695952567 3.654911865642662 0.5235543833644374 -0.41642923773830215 -0.35681949649546935 -0.39111441312259737
Ni 0.3587791980858278 8.520552596903496 12.469211745998075 -0.6783655145006252 -0.2502848085663238 0.03538763547067454
Ni 2.0921387452340583 4.3589361017360435 1.5543312569242311 -0.5728299572599553 1.5395498335051163 -1.413248761582321
Ni 8.526107662607265 1.1169722112360456 0.914538271449273 -1.6524289755950508 0.29622707962439304 0.6086533947164678
Ni 2.6665325390037835 0.010548197488413133 3.139665289631564 -2.4699860448278943 0.30453148572503036 -0.6374389514895926
Ni 7.643889773434466 2.986853236758641 10.121340730579446 0.5393310541715616 -1.0926987889418471 -1.251486263528122
Ni 4.33746875691718 3.946649225321762 2.036712044207939 2.0718782311065995 0.17010469937130704 -0.07380917267166644
Ni 4.078887334851816 -0.01061063459053814 9.990703030887683 0.2509538096088904 0.6020430884888018 -1.2548736919431163
Ni 3.4773150378041464 2.4892846243830253 0.6045674415643137 -0.6594511940946255 0.8866521242582923 -0.9286811763048843
Ni 0.0062033097346552175 3.4738993610408366 8.03755202956193 0.1939048871146983 0.367373874972548 -0.5129281386980005
Ni 6.308865164953613 6.557759654262818 12.180562268296129 -0.4439264147173064 0.39212434244435046 -0.28066599196134245
Ni 3.7664171844964995 3.819709087545551 4.413288517328541 0.12501783433499758 -0.1934415743250346 0.8817945390556751
Ni 0.39196910882866115 1.7850124762665 12.427927966795949 0.4843405568682949 0.43502114180787665 -1.1072741156528607
Ni 5.969234875173918 1.5871970456516213 5.319619982619089 0.1294689281278157 -1.3046556484622498 -0.3122093139852623
Ni 7.920100494923362 4.798511664549666 11.409020569988655 2.4582628428536952 1.4135215556277332 1.2724222423498408
Ni 6.7806233811419645 6.052615952291153 9.806458488058212 -1.4295313007924282 -1.209447698399833 -1.65049910556219
Ni 3.1947687868349184 7.459553411337162 7.126853639893343 -0.2222595269979914 0.707069310193221 -1.3718624853260504
Ni 3.353606938255582 0.20097125885022643 5.384810744586346 -0.39459491547203007 -0.6151729410025405 0.49148153878845025
P 3.8304060322478497 6.108111517768146 0.41034030793626647 0.10654085857673262 0.4298043734936275 1.6403075097411686
P 4.696546367623459 3.1516596405883135 6.54047008613026 0.8346106822810208 0.46000686521893686 0.4838913851460183
P 8.237905344739653 1.7340436006935707 5.7131316551473095 0.5569950471102278 -0.3205036927835706 -0.3291904219242911
P 7.369616438496801 0.33045846311606675 12.513008618560734 0.582144549792662 0.1503074621397218 -1.2608522781240545
P 4.587079436515467 7.014835969525009 10.852579279465225 -0.5668061196633786 -0.025018119310892397 -0.9250106694318326
P 6.212280477122295 2.9719693334432535 1.08004250171446 -0.2009448246806152 -1.2829539951191002 1.1357048601897277
P 7.061700523825897 7.923920176465127 2.8233855578539435 -0.6552978340478844 0.25030692005351085 -0.4523557764315822
P 4.3432166430833945 6.576600968021717 5.1961992773788355 -0.5825021902423968 -0.12088452889291439 -0.7806969629817007
