# total energy = -340860.6207329508 ev
CRYSTAL
PRIMVEC
9.33107011551621 0.00000000000000 0.00000000000000
0.00000000000000 9.33107011551621 0.00000000000000
0.00000000000000 0.00000000000000 13.65696431308029
PRIMCOORD
 96 1
Ni 2.6539896096348516 4.41744988332975 11.350371507059554 -1.3707594820698588 1.7251377161136872 -0.14365241871704937
Ni 7.2267551545709034 5.3250924018101635 2.671165310344898 1.8743529736304945 -1.4718809694032329 -2.1922603664417983
Ni 5.535041478778729 8.99378922810931 8.247877481920348 2.9193557420479594 1.5337530243176811 0.3934523172271546
Ni 8.826511134650845 8.654595499358896 11.454369082505675 1.0444450961417817 -0.7612134003357922 0.3074077788315609
Ni 8.962324859774288 1.5035806406881644 6.0594718784779955 0.878028130034707 0.13664744815412594 -0.5620896880243158
Ni 0.4240523463400818 5.649207121299192 2.537587309614418 -1.0082673606696442 -1.5485276115236943 0.7843294175279654
Ni 2.1156801762874506 6.489423327327389 0.9724561313081318 0.11407084840519066 0.9167065204415115 -0.16967763913621747
Ni 7.97408055787812 8.75807706662918 2.7432468936637635 0.022625707819315874 -0.9395065490551627 -1.1369916973219516
Ni 2.7743697448335833 1.6769519229137617 0.9933241364517984 1.260942009624383 -0.031955469860674 -2.0882060217323457
Ni 7.660192691204984 1.634588864716549 0.7084988206731639 0.65853639558984 0.06882971717920404 0.6855964850314257
Ni 3.630905992444805 8.266236362317487 0.3628666535623807 -2.8463379549293366 0.2584999973872645 2.619202587896283
Ni 2.8264744402021376 8.125775764290474 11.771510693318321 1.2029206959145928 -0.5302267778774481 -1.944679329959883
Ni 2.6168052953361975 5.449484897146516 5.149044035576464 0.15685786166372984 -1.0974113639261682 -0.21127937383740386
Ni 1.736008265497497 7.1375128002541315 3.5840649537126046 1.9517696611477608 0.18125377400959108 1.169198106851167
Ni 1.7384156815800702 0.4665619023376682 12.780323473008346 -0.2049230926020729 1.1234977766005747 0.5344037920732733
Ni 4.644577460329387 5.352516416797302 2.528122805224675 0.3365365778767172 -0.13914656042689585 -0.012749072135552236
Ni 7.078503113020833 0.5649515046612078 12.210937843841563 -0.8144982278018618 1.036057900519351 0.6317365017881765
Ni 5.775428506372693 4.164129992594523 4.275012031551197 3.080488576937959 0.781605590838899 -0.8329939726132041
Ni 4.185227542062342 3.1051375172949927 5.045729494460748 -1.953412596067823 -0.8401272412238758 1.8030035753532303
Ni 5.157646349090124 4.7633993068235085 11.531148859613594 1.4971549134786732 -1.2798133926075894 -0.5474326002327733
Ni 7.418387340957721 7.229414509545838 8.67527221756577 0.3244886455732476 0.5199629340575949 0.9674765519055273
Ni 6.519441379798851 3.355564776303097 9.012121048403197 -0.38131413920272395 0.8292455613143654 0.3213637267910207
Ni 5.485652124805635 4.675052735235136 6.544922665993773 -0.1673811297925569 0.032999080633839946 1.1999531286458367
Ni 7.392894857478694 5.582891206187386 13.275593345577192 -1.846405082267317 -0.4739417301324741 -1.4684799141414837
P 2.572520036700961 5.208323390735292 2.652482641815722 -0.4584287220985395 -0.31168917981573413 1.1633917845820352
P 2.1581925316060633 8.936953680206399 7.058465573114954 -0.06810800852183109 2.168630899948317 0.3473015297027051
P 0.36005986768006315 4.245944815121651 11.049904518493257 -0.19911317078851515 -1.7193545337730065 -1.1776806904008816
P 4.987177029661736 4.432500899380875 0.19638729970340466 -0.08909746628930462 0.36348251033794177 0.21776935243712175
P 0.8084075212069473 4.938282222403279 6.429398419668572 -0.8096866653458313 0.6086917041535711 0.5417718024025702
P 4.371158444625703 6.529462949072816 6.9589338478127045 -0.15081834033786928 0.07143578734348342 0.009600499204241532
P 4.245692876229289 3.247566971110467 7.813353808728083 -0.14043956820670653 -0.08172019998862701 -0.974054205123045
P 1.1349380547416263 7.376238897372521 12.837887777485093 -1.152608320813286 0.48558934167373147 -0.01470619586192306
Ni 9.137842288120009 7.931437567578282 6.602500033968641 1.4442632076859643 -1.319021944486251 -1.6239344676997838
Ni 6.280360702017135 2.7855483667983987 2.378838747322929 1.8440214125264887 0.4987274217175862 0.4364069664118097
Ni 6.7972646605838305 7.460965013766947 6.487549648453821 -1.7866529019093487 -1.4403957543107582 -1.4626694781072938
Ni 4.028036335368455 3.1165214228017324 2.128697019059502 0.17847441149224103 1.1521478362370996 0.41170766389291674
Ni 4.624674287832767 1.3292295961033802 3.6261154210618867 0.2604620062096417 0.35888332100303355 0.9262805372831919
Ni 1.594269310868497 3.3693467668223223 2.6008053094571753 0.2362213884947222 -1.6919080075262796 -1.362300552669228
Ni 7.753550047430339 0.06109238207682624 7.427804256890019 -0.6451784862256953 1.7301588234773622 1.854291169883613
Ni 3.691893866536651 1.0726531619076185 7.964618852809403 -0.43812214933070354 0.2804585039362267 -0.5644016239869442
Ni 0.9067178094347433 8.562161919072203 2.1076517235841727 -0.9465488006139247 -0.7055870692207397 -1.112343559755968
Ni 0.2858302720270572 6.2874896395639785 10.883699498094854 0.03482019300297874 2.2556195474247347 0.5283961524266126
Ni 2.685883207193899 4.1692620811426435 0.33850976131300087 0.33962755809721507 0.21788248097621835 0.09090160937757893
Ni 4.6234239244410436 5.449092992202842 9.186398377534289 0.45186135329366695 -1.6797330627266425 -1.338892715268249
Ni 4.276942629952299 6.971550387678003 4.530548051432203 -1.940798506848238 -0.5847927860487864 1.5351686737182852
Ni 5.194224143833091 8.117946996487069 12.6220806547156 3.265704163808776 -1.4088364914472382 -1.5173337024193931
Ni 3.758545700171605 2.7414777227751745 12.422224063153665 0.4720830796571805 -0.6964339419665618 -0.1489854008941886
Ni 2.304764980540384 6.5891538044225015 9.939388673491623 0.5626396469905148 -0.5065821418753147 -0.7753261855880905
Ni 9.411223979543344 1.11929918127499 3.675662470119459 -0.5585217681673994 0.8156832492488986 -1.338014940648986
Ni 1.0473846241106908 0.4242986865903916 10.424183486780251 -0.10712886986971873 -1.5128928930392203 -1.505660379846523
Ni 4.080532935680684 7.7143502219927855 8.911578768210472 -2.5459240909171057 -0.7464773796771983 -0.043248012055357776
Ni 3.666830612281648 2.872094041859885 9.900698324480846 2.756243671944402 -0.1993401991976567 -0.3226377084074379
Ni 8.745116210277654 6.767041324570444 0.8453510938973449 1.4737864139560617 1.4502402512050057 0.717186601132881
Ni 0.5742200565791135 2.7308029785950843 12.6720783944584 -0.24188012944239634 -0.46979608339521667 -0.022351371112006666
Ni 1.3624575366849385 9.072692756769142 4.962408637221499 -0.8871367772041948 -0.3708849734495999 1.1140903672437457
Ni 8.36355009225994 5.665471176461689 5.001439570290468 -0.44841633216786 -0.05399548037984894 -0.05574331630889109
P 0.7406947449030457 1.559240473760053 0.8908288632897623 -1.808435545002079 -0.30907462501102256 0.5912488260867752
P 7.0306720477523506 5.253821688481902 7.997969030409108 -0.5238938936808849 -0.3058556038530926 -0.4275803692591152
P 3.6302154932583304 7.7980592517476754 2.4639213105946967 -0.40204905775723015 0.2401896291138509 0.3452572455791667
P 4.729088962111801 6.843220180764728 10.783347571731914 -0.07369295880877633 0.5451713150024223 0.5164230392251364
P 7.129422762488275 7.945611463041183 13.77031735054592 0.13864853774455477 0.9005939311503651 -1.0418773354146056
P 2.970406196301698 1.0597856162569674 10.996847120868772 1.6053150528263835 -0.29541229703258154 0.4431525126657594
P 5.627017836631136 0.11101640636593356 6.2456164625463595 -0.3952572316463773 0.8405046791679525 -1.3056864037196094
P 8.78270176059007 4.415313068279715 0.9625334713770929 -0.6989045149942414 -0.34459210119134204 0.27056901273665657
Ni 1.4955745825530964 2.5018371807882107 10.145335654499663 -1.5021058297260454 2.810440212591463 -0.6255946505564969
Ni 5.643477844265472 6.799280171722729 1.06393887555291 -0.1304688301472398 0.083009865334328 0.04020356880207915
Ni 7.436358981946231 -0.028808745788122148 4.933482319950273 -0.11337639344132733 0.5870131907388729 0.35021587513602265
Ni 2.1578379509427386 3.2939797137256512 6.282394875296209 -0.05452332785886094 -1.7670073597642793 -0.3967459003767619
Ni 7.582240931694077 5.3629485531551175 10.524739763578106 -1.5711764592714619 -1.411639251003356 0.03426792004393454
Ni 2.408806412015918 4.466139407046282 8.309553055877643 -0.2820317619606175 0.4906986378758388 0.5900128967971451
Ni 9.133484678389149 3.524382496325998 3.8877688904922527 -0.325959059471187 1.234808802872441 0.6991677959579572
Ni 5.286797690171097 0.13877074123416913 10.669093284045621 -1.3650521472724362 0.7826132061678069 -0.6665415252825037
Ni 0.6986246823065803 5.118530503283358 12.990682183953753 0.10005807906586639 0.84191544347255 0.515664563792557
Ni 6.7767829617417865 3.325472075270936 12.978048848162297 -0.36862934464620384 -0.6651472160381383 0.5135966255199349
Ni 8.99784824359737 5.220911004283318 8.627377701020691 1.948954046075837 0.6966293458068196 -0.0158981592874952
Ni 3.623478460655161 9.273814641434939 5.11238879295177 0.9661904861042521 -0.2082722115799639 1.1125962991967224
Ni 2.3521854787250174 0.6130848966005255 2.894839458305155 1.7709234069892341 -0.7121256416702059 0.9197697327478677
Ni 4.020319540406099 6.210452324921647 12.76412660155048 -2.055976729384995 -0.7008775795602123 1.5497671403577502
Ni 5.565516753684477 8.43627645252185 3.432841899446678 0.7165553953067852 1.3063880577723244 -1.1479286559494295
Ni 8.383975804681459 2.0633795284470593 10.056236998662238 -0.07068451099975567 0.170550528659474 0.39438691322628205
Ni 0.09088275643815252 3.1092338570634013 7.759026452464688 0.4632582822766989 -0.4400453344953454 0.727911957970185
Ni 0.4481946239774493 7.824550159726064 8.891039216733885 0.4490956176230717 0.39652247151204617 0.524307841289852
Ni 4.65539217056079 0.7408487075594893 13.286286751897457 0.49624656427726144 2.670395308720014 0.27869164184379097
Ni 6.236056781241724 2.2809520896771054 7.030441570321189 -0.7999097884647256 -1.4220694451977445 -1.3729248651522936
Ni 7.917245009975208 3.7264374880005455 6.011413135099378 -0.8892463673480299 -0.20602326764478715 0.9016442267917505
Ni 6.891713752009423 7.600669795116874 11.082845062116121 -0.6568258406566365 -0.9544883671759755 -0.18544672904501608
Ni 9.030516319973678 9.080829449885433 0.22419855409917394 -0.6959618874261498 -0.2391858704396848 -0.8476492606325337
Ni 2.1948543059798187 6.922776884330682 7.034333559654682 -0.3870857515791785 -1.8854858503188623 0.7044922934946641
P 5.142203428095325 1.119775065849452 1.6716397447129525 0.5907286919172472 -0.3494645987922949 -1.3760595541265332
P 7.539943190987477 2.2782087550713825 4.374776100498624 -1.352388692872155 -0.631833432377357 -0.25097592109607747
P 7.480196349217268 9.436791111583071 9.703327529990222 -0.8359867366929409 -0.796039506876042 0.4606686671726518
P 6.07112078637522 2.842682508944111 11.028285362207546 0.11494862302445363 -1.0391432243128942 -0.013976259674433996
P 9.004146715906426 7.482846373122115 4.363646000098264 0.35073858040871214 2.3050184095728365 -0.8738176914977853
P 0.4175644533082488 0.915007532100471 8.094592261165085 0.4972330965602468 -0.13616408075980418 0.6465008045815447
P 2.3333273860781967 2.1559903990654155 4.283602214673741 -0.1227048699311048 0.60443472864943 1.2150107943099073
P 6.135449183558388 6.415306637622442 3.8894624797131323 0.8385598967367558 0.32441434069188646 1.562563006570838
