# total energy = -340893.75822968205 ev
CRYSTAL
PRIMVEC
9.05458965460873 0.00000000000000 0.00000000000000

0.00000000000000 9.05458965460873 0.00000000000000

0.00000000000000 0.00000000000000 13.25230721147000

PRIMCOORD
 96 1
Ni 6.546260179297572 2.0281013538745296 11.510755049508036 -0.3990256975498741 0.09703806129261996 -1.1241837469240057
Ni 4.469381750099932 0.2826526029002896 5.962504435834862 0.7533031443497801 -0.6133939947252468 -0.44342042161516537
Ni 2.7066251506979726 1.5335939858224927 4.859581148964166 0.4834332145626771 0.13873749791393525 -0.36006268602311536
Ni 3.4039915489224533 4.359957032208753 4.632423221569317 0.016491569897119984 -1.2851057513547801 0.7849349123224483
Ni 5.076519160836981 4.743473238331946 2.502353604514687 0.0725974117517524 -0.27358003164883854 -0.3421328410175721
Ni 7.26792004199057 6.195603079606078 2.540281470323754 0.43091277606645795 -0.7461343945154827 0.4785450332324404
Ni 5.125975330396074 4.6267505210514175 11.449211908007452 0.46711725101147294 -1.086652582747767 -0.41825729208597645
Ni 5.579682716750332 7.8856422682191205 12.51437936627553 0.5224191089075713 0.8022950008674505 -0.46409286236285235
Ni 1.8605008964342542 6.5587555132396345 0.270474179601685 -0.3427972140744483 0.44074467455521515 0.7919784494327908
Ni 2.6860259588731954 1.6102682523597296 0.590854541876172 1.34525362448927 -0.3539622295523323 -0.5777209668036696
Ni 0.454526826732343 8.825137452635412 4.846394949819365 -0.34796513142863295 1.0258521636309428 0.5990408113273683
Ni 8.586494683521641 2.2913816618697154 1.5933515622119356 0.07556035103481826 0.6905587141327075 0.31287677236593214
Ni 6.790688831301907 0.762861868178478 4.783473699749228 -0.32481826099852446 -1.0140808820276277 0.2831188243772092
Ni 0.7908287797341657 7.88566943198856 2.7479186075405644 0.4602166672368977 -2.4991279564991737 -0.2570180135250993
Ni 7.847667318543026 4.022872762647079 3.677117817880392 -0.33131132492203585 -0.35823077502069917 -0.17082435114615097
Ni 7.632512155404408 3.8999567059343976 12.721791044205995 0.3022678865018343 -0.07364230807649898 -0.861177891246588
Ni 7.995057931520487 8.767577425193606 7.07809690477203 -0.49192916784883023 0.9017208456659568 -0.7624436731984676
Ni 6.819138352494631 0.9313188898150717 0.39931193805212695 0.09530693753412618 -0.5670696577374105 0.3845755835628151
Ni 1.8342244767966704 6.40555185360217 9.322865538283963 0.48013423209643113 -0.4654102956226952 -1.4094463571170952
Ni 0.19386238973415854 4.715404009911371 1.1792217879306888 -0.7748682721150655 0.7929194731898216 0.9746864393904052
Ni 6.317776659954086 2.035145824749113 6.96838153454785 -0.06046051927890233 -0.3037624687694898 1.2895175072692306
Ni 3.4620586333937924 4.552919395715491 0.4373312552183059 -0.4505426344822434 -0.2120378492699832 0.5588580684608956
Ni 5.798912445304841 5.291457013820086 4.781419213320639 0.3866579200131405 1.2957778863566458 -0.48451719165547524
Ni 5.119609953757473 2.776454147336514 9.490004211643772 1.0579215333616618 -0.5332480812022752 -0.39173019232972534
P 0.16056866299143066 5.659652853979534 12.404888549878715 1.0469652914604743 -0.6604112440150497 0.2190453909360679
P 4.154064714448925 6.1996595358423425 12.413581861558262 -0.7079406570545808 0.5272903209569436 1.5140563172197024
P 2.3885826835132247 8.375142448104521 1.44802630117084 1.5231770485740477 0.8306195588437566 -0.8174423980318503
P 6.4005627746151585 7.769716354842144 5.767258504777263 -0.7314749927310951 0.7789612112375166 0.7044884368399221
P 4.747774168493163 1.136169929746395 12.531050677039389 -0.3701920611476334 -1.094657969550747 -0.47808017778087986
P 4.132487626924333 6.062047879863017 8.102037004703151 -0.030964566702314414 1.182142582826977 1.3934576949983228
P 4.6232554493835645 1.022100207281101 3.7110037147968957 0.4265835525634846 -0.1385840030552065 0.1662750412125717
P 0.29117387737338757 5.824057041215789 3.3814718785983198 -0.9533881921332613 -0.9732687331072721 -0.3990673494210869
Ni 1.4968323511813517 1.06732788339748 2.8916267188410423 0.19433708955611048 1.1219276038999775 -0.5798166729904337
Ni 1.7070799266412762 6.498633036880725 4.892593277963708 0.7278327679928175 -0.016440404944210396 -0.35938879988454236
Ni 6.241066175057597 5.701276803350303 9.223566568180763 -1.029867198327607 0.6469852004171309 -0.1626922089573198
Ni 8.687009685036742 2.4978534733775817 10.244352049021002 -0.25920807919788263 -0.5364976984878244 0.5248038070896639
Ni 2.467076922602893 5.169953473118246 7.092820573267095 -1.6414850749890375 -0.35510637045910454 -0.9307833102495517
Ni 0.47744670992621496 9.082115766120687 9.163665929272273 0.5114767509634546 0.4941706555848393 0.008332174014779198
Ni 1.3514337479627703 1.0251334948684856 11.384911643908783 0.4759780438362125 -0.21426056795291487 0.09899287102614565
Ni 4.0875678068616 6.862229145415122 1.473563866279676 0.12998006343627935 0.06266215491591143 0.002550277225679479
Ni 5.438793299258668 7.959908013866077 7.94406881990604 0.5178682563120952 -0.524374175751413 0.1357367634143985
Ni 5.535034534381991 2.7837430921360506 4.922927059296536 -1.7890712815428544 0.4889741989855644 -1.015075127620097
Ni 0.8648292258995972 7.463091725411701 7.077540952957507 0.017021988479293263 -0.3764087314813066 -0.02510656525964063
Ni 5.192399801264894 4.530445903799404 7.196586172525093 0.6429753079267895 -1.2131079208602398 -0.6731873127337955
Ni 8.205676745162748 7.148218364661535 9.159398501093364 1.5814698707776698 -0.21588704781274434 -0.4513178220853712
Ni 4.652166754656758 0.1720625593001657 10.40045046102171 0.1914651673249541 0.39192353928745405 -0.5204732980351101
Ni 8.13008902940308 6.805873378418457 4.862496726883981 -0.03692078428574932 0.8117083237615503 -0.8139341277682756
Ni 7.357488044421646 6.2822283403479 6.998716221339662 -0.6600461473661471 -0.9792375490961975 0.679012661166321
Ni 2.1969513447090114 5.238225080308937 2.595079847872568 0.6769660630499373 0.8800436178028394 -0.4271347970812644
Ni 2.2979462394842054 5.189638151371902 11.597717140990904 -0.6873332652168744 -0.7043585961302773 -1.2524702247079462
Ni 1.1806460749082877 3.3539196672560716 3.884860893798016 -1.0729262343006103 -0.17458150419573806 -1.004290121189451
Ni 3.8861303472898108 2.706552713979468 2.5247501324173625 -1.5724216445324726 -0.113997571965094 0.351376213992711
Ni 1.202259380792131 3.158105107958211 8.275668724417924 -0.4619729878063721 1.7146764115710469 -1.091294709505469
Ni 3.6126364619854607 2.6089804541536217 7.077381592176796 -0.37016686433665286 0.8374525226051899 -0.81540222767337
Ni 4.047655174965503 6.562332076215804 5.88723181980069 0.5645852007526599 1.7670960628233439 0.23987492608690944
Ni 0.9326408599277826 7.415700002329994 11.169044790010856 -1.410681515075777 0.08761393976524266 1.570670980389953
P 0.35014189353112896 5.5854323812816435 7.981520414290938 -0.38443083045483467 -0.8288110448801081 0.13449517769781352
P 8.638205445944191 1.8040998564885236 8.153336688748187 -1.13247375484694 -1.8558376884351264 -1.270001291613174
P 1.7148034917518409 3.2557679136821878 10.542356708949384 -0.12026900679610254 0.16023217745260146 -0.6754809938639786
P 3.9677665290446202 6.152756760610541 3.6997398050694135 -0.17505201607425336 0.9973867092013985 -0.39083184888517203
P 6.914383582738514 4.040320957216902 10.368340169167553 0.16337637950853798 -1.2844624613438265 0.14243088760512243
P 6.58002474471058 7.805481984603845 10.198472442438081 -2.256133253836359 1.21533603885981 0.45748924100340566
P 2.4107935923247323 8.39191154843836 5.797155854881101 0.21575232200709296 -0.1441231877058808 -0.8429937641383934
P 6.843277888936327 3.9716871664336875 1.517296629617914 0.7918948885800492 -0.027442412481668864 0.29966747276450967
Ni 5.145813936676551 2.95243915494371 0.2936050347382019 0.7140151453834348 0.3513798135371368 0.44382074237737756
Ni 1.552853098354933 0.9350041078689988 6.9156639017380845 -1.7213473958333192 1.9587059832562785 0.5121277542838922
Ni 6.926607278986184 0.6754796437282822 9.017943171738382 -0.5626226777096504 0.2055427284639428 1.2557648362988179
Ni 2.6400920247513953 1.6558309482991929 9.169297884136014 1.0225380116560454 -1.3452726506526638 1.1668560889815518
Ni 6.1983285111398185 2.098310643285221 2.578633996395055 1.1941051545054917 -0.021039080058486346 -0.07200682935560503
Ni 3.9716418934846223 6.675179429056331 10.319346689147912 0.8977232944707896 0.6211566693898012 -0.8210056899030764
Ni 8.20363040786499 7.222420728179798 0.4358671280455294 1.1839510967906255 0.3809598411870988 0.06916910279649377
Ni 7.764202109645973 3.8914725552795333 8.102129361519244 -0.27489309403330725 0.12115809426927521 -0.21278475473833677
Ni 3.1516491854214785 8.271956342594558 12.257138469685675 -0.0497798996366046 0.5614533399918975 0.5225391794252033
Ni -0.08856656479774774 4.8719397586000515 10.114160629393504 0.5795675330941051 0.7272524700093153 0.6927642064244586
Ni 8.476644399909246 2.3041667426857972 5.849687868599699 1.136450737216817 0.16970000773372063 0.013641244932518443
Ni 3.551237288462905 2.787337764291847 11.465246681107452 0.26921404137065896 -0.5460429189740983 0.6916542611897314
Ni 1.0960309331049718 3.0701759862833047 12.769843752344057 -0.09307933375518809 0.9728499004022987 -0.2756574830031575
Ni 2.9720695056584865 8.545930121159003 7.983349441433182 1.100144703696931 -1.333422436182297 0.5060740918906446
Ni 5.629817980545405 7.826262268224885 3.712117429343906 0.0005234766036378082 -0.05867103147864735 -0.33297791399118143
Ni 3.2480986761105015 8.302343546007284 3.497522745314718 -0.5391364216622521 0.032495144414227906 0.6964334277459296
Ni 3.3419676087027943 4.1857195604354835 9.076425861882143 -0.08389509615275874 0.513143082922284 1.3341994235576375
Ni 7.410584159085599 6.338882908808396 11.54529106597312 -0.7978037978653163 -0.9990059899723763 -0.7154315661149873
Ni 0.6957564921557134 9.382547056118977 0.7104629569301325 -1.5228309780885387 -0.768007026218858 -1.2718640558535257
Ni 4.715014662549407 0.23660005365193815 1.3319763399134235 -1.0166370727905782 -0.08588564422022629 0.924229311181118
Ni 6.127910966163426 5.737223524908266 0.32681817563159327 -0.5318352600151487 -0.27134214345725527 0.24492123026156531
Ni 7.956268068761214 8.753497538034253 11.746646128777611 0.08735322990468826 0.15589009843382184 -0.8052589685917809
Ni 9.062376760328155 4.846007413375364 5.9074543406892435 0.7029714859747634 -0.8247186199782893 -0.12332244891044566
Ni 7.848083829674428 -0.19277221712066261 2.486940881734847 -0.670981306221412 0.7669487601576727 0.34660218964283535
P 8.484132545684671 1.526087730867442 3.716728931935712 0.6734827324870272 0.6725813037186803 -0.12480417566229475
P 1.7991832142200161 3.295589999680153 1.7400811901330413 0.7746078193648273 -1.2681719517139192 -0.9375543104247982
P 4.598092744292991 1.027913253941104 8.083854482899488 1.289486139810663 0.052583430523670725 1.197578714876389
P 8.556822792704148 1.6098336320487012 12.51281563861481 -0.4645016677654968 0.39775480125725043 -0.0664730440215694
P 6.379501798709914 7.7869200754870125 1.3911743426524175 -1.3817221517289495 0.2969472456198692 -0.36473335202590734
P 1.7640423511554182 3.351103689824201 5.868917100985756 0.8311916292971429 -0.6056050948084474 1.6747289246438317
P 6.974822969740883 4.0277984595054 5.908368854260366 1.0543698114546616 -0.3627906264772397 1.0991198619768425
P 2.4440692098878336 8.417273454504823 10.089882557727668 0.2282093168235231 1.1659217500927403 0.6940551573217402
