# total energy = -340857.3584519776 ev
CRYSTAL
PRIMVEC
9.48216884668542 0.00000000000000 0.00000000000000

0.00000000000000 9.48216884668542 0.00000000000000

0.00000000000000 0.00000000000000 13.87811257943951

PRIMCOORD
 96 1
Ni 1.615069348450882 2.7083349532483676 0.9498762496906955 1.479955518881251 -1.305439834926442 2.7692200295994116
Ni 6.634531208034283 7.760804242082314 6.514538155982016 -1.3990817260533195 1.1783702602687383 1.4302779491504656
Ni 2.9793353347423537 9.457097847631777 11.018721900412515 -0.35497730108040804 0.4537901948852636 -1.1574363383295485
Ni 7.27115453249631 1.1184786913752502 9.40804184785364 -0.08563161922789124 1.2006465551684355 1.259986073469017
Ni 7.2907541752026805 5.765319767488771 3.010051872034573 1.5893467024225854 -0.3488673315279282 -0.8245026473127414
Ni 6.5117750520223465 3.463731922867626 1.7758015901130428 0.6635665018145798 1.174802854632454 -0.5841137577038908
Ni 9.492124978815779 0.546459278711502 13.596622985651198 0.2567429054868417 -0.6570338429023845 -0.9874113431562414
Ni 2.6470327325920127 7.907133069486624 7.615225454222306 1.5798637026328146 -0.7974001346689945 0.41255741348772174
Ni 7.946133229356629 2.2298647205616446 3.3610846020213403 -0.5872700439446854 -0.7917272526539333 1.2403976098141285
Ni 4.301064312238094 5.865432504641098 10.52256552666342 -1.1205942298005347 0.2520897229855465 1.47744586508552
Ni 3.7258001014446314 8.948313121605786 4.185264275185709 -0.1816936897604871 -0.19925715256554716 -1.452830380529685
Ni 6.341029640211212 3.886902147686157 4.925563735798154 -0.3125294163288424 0.020759086924222313 -0.35943610818271005
Ni 4.591408317883505 7.670790014597274 8.947968918881916 -1.1959298664190565 0.29466924821896995 -0.7562524567860911
Ni 8.331422190211953 8.944927987379288 8.375843305928708 -0.4024504069607069 -0.6543660662622344 -1.619343248784676
Ni 2.067662742750723 1.642150422262877 7.674652101909468 1.9864597563307786 -0.18551280639626114 -1.8312731117218846
Ni 5.468869245199477 3.6701587355031786 12.173977183097229 0.0768351039821838 0.30601784046256975 0.01830034097108461
Ni 5.610163041023197 3.216702463851485 7.183519381138523 -2.7088698106461284 -0.8466974382422258 -1.1549513671241658
Ni 5.332221712039582 4.778387202511913 8.769149440421302 0.9669767294509735 1.3121807531947014 0.1498793734633677
Ni 3.4021642014876248 6.951965769660391 1.2034057353518384 1.398344590776979 -1.3301540498436706 0.6931056489242773
Ni 9.424848991877367 2.1111669327540263 8.308728515858224 -1.7485936331437821 0.385810998631813 0.5667395280915014
Ni 7.167618732442678 9.22782849059388 0.38952938669871434 1.1362100819609207 -0.5020886248803352 0.7285480488922871
Ni 6.092122711792138 7.455336177357723 1.7067581269286374 -0.2737913763286962 0.28020782137800126 -0.07623500850433967
Ni 5.797113479145501 8.605637026895808 10.942752661208404 -2.9860740693111154 -0.8221326044186681 0.5193029318760928
Ni 1.9275352536773105 8.107889545238573 0.1167311860188897 -0.39510065146385503 0.6550782618379105 -1.7733546421385458
P 0.6733117316025639 5.778092248729933 3.7820350511468086 -1.5124164676234342 0.0668607663782913 -1.1930386609141905
P 3.2634969663942703 0.1491089992676429 8.853499968540827 0.9191858352199396 0.24338910988775506 -0.22886726212249614
P 5.826906453206176 2.242969077707365 3.448058846220621 -1.098586358070876 2.0501076721987275 -0.7329531199385183
P 6.001643858040716 0.556528393655815 12.439576521298738 0.3864537744221344 1.4356140166513984 -0.7506605645206105
P 9.27011896300337 0.6516544582879291 6.6018594475557775 -0.1495775259522327 -0.38648976986639244 0.06957585131660922
P 6.59683958744511 7.826563082028457 9.243142193047092 3.174201173401772 -0.8158573129329174 -1.201837233042427
P 7.982174952591712 3.6429259469919564 10.064865036300855 -0.2219070287545791 0.508818230294685 -0.33896524192286787
P 6.125537874296855 5.5402130825109115 6.7815114604283995 1.1706602932189902 -0.08495541909647304 -0.8858612529258809
Ni 3.7908667430755525 4.113232032426534 4.137273122952771 -0.8595796935215326 -1.3245063646395898 1.7207624698641266
Ni 1.173721806231232 1.8099279152703855 5.333705671441394 0.10442509778531048 1.448859568807395 0.730643240858419
Ni 3.3785061905769354 1.9522268209764828 2.957356615908732 0.3314403943007324 -0.2088486529087242 0.05231192202983894
Ni 5.866921205127261 0.32620556767516157 2.611347538900114 0.030925485934262868 -1.203592525170637 -0.02025077982923609
Ni 5.580701942867081 1.0589211897600042 5.162352452616483 0.43597604952197816 0.957956014009602 0.597462668206971
Ni 5.2323649934422 0.9524553995775521 7.843103777111667 -0.23982530379589662 0.1269137658061298 0.90025557397434
Ni 2.789227334442391 3.8783587136859445 7.1646868458801185 -0.00640153265096962 0.12451004146064364 -0.9521026405526183
Ni 9.132248230080956 7.548574342201333 10.126373020018036 -0.6937219423520374 -1.195887443216895 -0.47138193982509785
Ni 1.6836823211762313 2.0322468426499523 9.870668324856728 1.1430001082995607 0.09306673534969778 1.8983315959332792
Ni 5.928033782409583 6.294955782489755 12.380608810576735 1.279056459836907 0.9095174588922401 0.6213178775580138
Ni 2.8457884707479066 3.6368478768541803 11.353433921629954 -0.3646053110884753 1.7835302971199671 1.2240824175938727
Ni 6.945328251569215 1.9708782468126853 13.580509936376433 0.5416941550870993 1.7621407757005976 0.24332406097777448
Ni 9.341519693327012 4.896146255618065 11.398565251782465 -0.9501012938518734 0.2566781136871773 -2.3131999169423647
Ni 4.131987762118455 6.245259736324254 6.629865981033056 -0.39577042383737 -0.03469138073459832 -0.44029318884009333
Ni 4.823749897580746 1.9200633047403874 1.0166563192060103 0.3439305563479432 0.43715104366668583 -0.6324479260329043
Ni 0.852488687823231 8.658101866322198 11.642709286862686 0.5846896848120189 0.2844653111027746 1.037665097105471
Ni 8.125915147940463 6.502169615127545 7.994888644386922 -1.05919345809555 0.1692346380615279 0.2891267211341859
Ni 7.611118726957608 6.296017785384342 5.143492419068843 1.2046741882705898 -0.9684602559750353 0.3728143292618289
Ni 0.8995932572825619 6.614997940508824 7.693179311335679 -0.6315472685955059 -0.9759784187289514 0.32836844024362805
Ni 8.672780263472397 3.784883494624793 5.006431463353554 -0.9883737070695108 0.06674069586065925 0.24497445209700391
Ni 4.099463923471696 5.462933407592226 13.191686971245995 -1.3698048314660731 -0.9224071703707146 0.6753827777232175
Ni 7.946199604537541 4.513133015251145 13.472149608887387 -2.6635911413139866 -0.7648553679637536 0.5432324461084966
Ni 1.8658442641041868 6.8011803229662915 5.4647843269227945 -0.6192224284815658 -0.08020299201315219 0.7131774799734879
Ni 9.313717974693688 7.625171300973496 0.8968993731544149 -0.6458158626993781 0.2263902613369133 0.1851428246513521
P 0.06667292100898584 0.7885807672076548 10.361564939627002 -1.7298207234116532 -1.2143333086269088 0.9542389701693307
P 9.474440734187148 5.8931583659248075 13.328746978744414 -0.8654675197608772 2.7085499654128644 1.186467435454576
P 3.3577592054576617 7.690342246460136 11.95481392146158 0.30507296005079715 -2.3855659294096014 1.555738784560153
P 3.319792601976139 3.0724881600676484 13.467070011113897 1.5809109129504064 0.35241391122860594 -0.23299876779236645
P 6.246407078737158 5.576434966951324 0.64171999013918 -0.45823486092017857 -0.8455928923241373 0.10770891074290481
P 9.347142619367107 7.721917868236728 5.855244862588013 0.14384756544699095 -1.172633357784961 1.0131079765913973
P 3.5300691751045727 1.9981394818300124 5.872439827311639 0.36946675294583464 0.1527242991113305 0.13734498844178283
P 3.045549318786178 5.525942418614884 8.605678748438097 1.1171962598625793 1.3341014645271927 0.28164378249357946
Ni 2.8478366191874693 6.306590403486714 3.5283851419431542 -0.8856367956199005 -0.30871672745097156 -1.8314278921321943
Ni 4.936616151636831 8.79692081611478 13.62543360703438 -2.2575177928887116 -1.8437313920898954 0.7601798168649553
Ni 5.070248355149594 5.354277236439686 2.791096269893492 0.1480070961413193 0.5804039129524714 -1.5491526467022028
Ni 7.856194859221204 9.059263977584132 11.724950980662959 1.7510942880784488 0.8067196122977074 0.13027574029982725
Ni 1.9484149891584077 1.7937702998027247 12.494603442708323 -0.8901503672195379 -1.2495319680152286 -0.5077067423980611
Ni 9.36076849579142 3.6860224037410876 2.3499668175539807 -0.10436904773639444 0.5558161963107783 0.38177179556543284
Ni 8.809427796632294 2.3885108851094357 11.768084417870027 0.01260997545452667 -0.25083219642936155 -0.1950318016302899
Ni 1.4880651808605931 5.189126304162544 1.154774536731537 -1.5216320726844312 2.293058923218115 0.015143283399341661
Ni 1.0855660838117223 9.209120171745468 8.70153494006024 -0.10263663842632001 -0.011843529602147344 0.6591058949400649
Ni 1.4245630970654488 8.614872659211244 2.8685361934632345 0.7270115576431027 -0.006175018462460333 0.010062783552640734
Ni 1.8102882376810494 5.7562453320412645 12.454065275074903 2.680483031973319 1.8899906801677515 -1.3882650950537898
Ni 8.116736408637239 9.028276250267046 4.69246737547226 -0.3235234534465009 0.43785424038129755 -0.1361748793930816
Ni 3.6466429571230146 3.2530665808224235 9.312574425148266 0.40838425594663863 -0.6477735006463811 -0.8266281782961764
Ni 7.449115874689422 1.9984049825536594 6.9295631978858045 0.6887561137063298 -2.138696317172413 -1.0404539727045177
Ni 1.2820745479853182 4.356070372876534 5.178326114011331 2.7667512563439445 -0.30810789022237905 0.43724386049080827
Ni 2.91233433069629 0.6828337254127901 0.6954042364606059 -1.431889773722276 0.89460917432184 -1.2071213642595016
Ni 7.640712575475549 4.189354882763613 7.536175458407017 1.9174886284777037 0.4994704705311978 0.7320722599954618
Ni 4.356117783720042 9.007851658883629 6.280318158664972 -0.4839065546546698 -1.5407723930583077 1.6825137107955732
Ni 1.350668556373264 4.478959279250294 9.284276789091846 -0.9161102816184094 -0.3337425600713478 -0.12000906826649654
Ni 4.332886470400928 1.731216432877748 11.371128596644157 1.1561821542074733 0.06811469339005043 0.009671204541176892
Ni 0.7142604771407648 3.9022348144767727 13.253222453252413 0.5771252422011997 -1.6626151720994335 -1.4398511946611976
Ni 1.9312048529648602 9.095438451181039 5.867943382913303 -1.2154730786583066 1.0744218450095302 -0.7668328034050986
Ni 9.29588201536583 0.84773906952056 2.0476041630791912 -0.8303349377238022 -0.6663031840194524 -0.6890731307261165
Ni 7.145307189487626 5.916247446713395 10.516791834140967 0.36095768703355896 -0.12507619837675876 -1.448829744010724
P 4.6781322328290615 6.928506884292437 4.280079324684408 1.172589134810587 0.4685228731097479 1.3587138637592342
P 0.3790449527652679 3.8827110291200153 7.1526681970507395 0.04297161846551954 0.9619247688493628 -0.17183685157106535
P 3.6978751146181863 8.917638305855855 2.044495908178781 1.239051123088563 -1.0000349454575228 0.44248608272635415
P 1.3239003941284242 1.4225339129632895 3.325515090787602 0.3565500448841666 -0.3101683722958336 -0.9425003415761638
P 8.026020500668276 8.392202891589715 2.5665765311582662 -0.8262520259036802 0.11907781470147878 -0.5307255718907377
P 5.706435499851344 2.6007502671591176 9.640416615141337 -0.5723306490260337 0.4385335258365093 0.10629351845261692
P 8.936384553379074 2.5154107488440065 0.43102525337100206 -0.8343718267973371 0.12256320214691796 0.6400884732972977
P 3.121330811049997 4.5414088423195516 2.041706254146747 2.165164281555955 -0.795583650285546 1.4480332162513578
