# total energy = -340872.38990382414 ev
CRYSTAL
PRIMVEC
9.19233935602714 0.00000000000000 0.00000000000000
0.00000000000000 9.19233935602714 0.00000000000000
0.00000000000000 0.00000000000000 13.45391782344820
PRIMCOORD
 96 1
Ni 7.8994092889654794 0.6967177380747792 12.311424259044214 -0.3877709505716612 -0.4246302854918558 -3.025626634792757
Ni 2.4227053960412674 2.2534928123105087 1.021467462206427 -1.4799287794083738 -0.01607325141277877 1.0025479416873635
Ni 3.2682903130461054 6.661403402845795 3.085938199372672 0.16354530098623446 0.040037732648176214 -0.3761397940906361
Ni 0.20076528873161897 3.8172660145337556 4.171804433734824 1.56485874458355 -0.8417526926424406 1.9666213814486133
Ni 3.3734782528348424 6.240017372272038 8.070386801861618 -0.2159369272140733 -0.7221624570809175 0.4695610845662752
Ni 2.271417874146394 5.065190434869297 0.1873031076758988 1.8845947059631607 -2.3210438384668155 1.2370870573836568
Ni 5.931798232088838 2.720169499122936 9.19743471674929 -0.9125019954418607 -0.6042151564394562 0.8643002389256534
Ni 7.375059864738517 2.412915554577053 5.07823528371612 0.5088046034479302 -0.4321319931855397 1.218850736881288
Ni 5.240911194897392 7.905687656777741 1.5973031794296961 -1.2352353488868986 -1.5989847397329817 1.9919781150458464
Ni 5.43963118811184 2.49836754166751 11.874898445473686 0.0651440407975007 -0.5302092943759513 -1.8968105313030625
Ni 0.8719375156054107 6.011744007876887 5.6986896971676995 -0.6929148730697099 0.21090476410680448 -0.6651423309421319
Ni 3.560450436292233 7.921406557156902 0.03250503136301265 0.5372219782483587 0.5410745192252294 -2.259312937115922
Ni 5.625206135979972 5.516184990660176 2.610988407097528 -0.866320868900108 -0.48972984620466625 -1.8369310813386106
Ni 4.442372670957202 3.3785064624882937 0.36769449535466825 1.0084298543894374 -0.1718738754565879 1.9093960812775566
Ni 3.1307085692011323 4.305204582385365 2.2142589885044863 0.07704927687551891 -0.020309915201945666 0.9137808621542844
Ni 1.805724767650089 6.958729620836419 1.273112349533752 -1.9283160581105112 1.3517191776089559 0.9857496391831024
Ni 3.7243958095450624 1.7737446188669885 10.10436287229229 -0.2810817393425224 0.9451542342592433 0.7555541451674859
Ni 0.004516196348702841 5.150440190492888 0.18596654152669997 -1.1371899293756866 1.0329167837872082 -0.9382047995246036
Ni 6.293516787597604 9.063766151788183 5.718789666506338 -0.573916762566231 -0.36456931564421724 0.4573406312406833
Ni 8.53750472096539 8.217151692770207 6.917816356621465 0.32517307323478195 0.3358752901436345 0.4059699900781912
Ni 9.04474720156334 2.9044575194746454 13.301659828894946 -0.023302679281682448 0.1510109159646496 1.0191374706149288
Ni 2.389254472953684 8.746134056056293 11.107689252686862 0.8975829122381831 -0.3731670846155573 0.544974625610584
Ni 1.2839675831347759 7.049375279689581 9.681116312223363 -0.42482183267737156 0.43161802966359863 1.3968422951998396
Ni 6.515842708399002 6.145860239766923 0.2736228516060009 1.0150249911084521 2.2078425371507717 0.011723459084515293
P 7.508881941767655 7.00106953612672 2.0607230203916345 -0.4287725897950035 0.3284949385191633 0.06531681892993912
P 1.0280068924577344 7.111634994466224 3.6703632385341214 1.4700336317818488 -0.17345176146666902 -0.46186602991486264
P 5.400499399273192 0.4550410235960875 13.18048089548072 0.7491284441468001 -1.12955092477319 0.06616399742158283
P 4.857682565185564 6.793966129376721 10.864199808877895 1.0425131692263918 -0.820657048314406 0.11375511693698474
P 0.7590316876538993 3.2262353602772973 2.1092512185680485 0.12719221627849708 0.8065918284705914 -1.4259718655759441
P 3.939312704787628 6.059580942130194 1.0838218580789205 1.4836034000464837 -0.30001482880159946 0.38657770159450844
P 1.3225110622516312 6.781115238891301 7.67171963812242 0.9169610596544788 1.0037535319596906 -2.1488496035563314
P 4.721387748857014 6.015117596437794 6.381718203403504 0.27988617637252444 -0.44826103753691837 -0.619696797014823
Ni 1.8932818004638374 4.225746000585675 6.9652543433446805 -0.6709427396739929 -0.4254694935636995 0.14125152258504062
Ni 8.002832299588837 7.385888440555271 4.66945103122996 0.9711601714047017 0.6186336458576314 -2.3639262396526384
Ni 2.9047149049779297 7.371686276177608 5.314795542083092 0.3188751560412121 -0.10105412443054854 0.4173795174667135
Ni 8.342948857500511 6.2447698117433985 11.274275585050178 0.29019964248339053 -0.7953476230153398 0.7485046945198722
Ni 3.502097465761873 2.342750427913815 3.6068074039016538 0.6083926848559135 0.27507821346091976 -0.9474427731831037
Ni 4.4884079066875175 8.152520354427585 6.967380531448599 -0.466783521821138 -0.3854484730860716 0.5766632149631166
Ni 5.859013288695739 4.202176842356336 4.5452174834321095 -0.018368989425490947 0.31004007424808544 0.4977745708860137
Ni 1.0735181648420773 8.884975150399478 5.013750103570007 -1.6207869232097376 -1.4976282535706658 -1.9477643966431102
Ni 6.36793796740444 0.7879921529431081 3.4774610769278445 0.02487182354101523 0.01977358308250143 -0.03850664071563046
Ni 2.6403524160865293 1.9581705243097427 7.864810242686461 -0.09487164976892049 0.6964431979379425 -0.3073694693944577
Ni 6.907105442749069 6.622087767219087 6.500986968689784 -1.4715276998288722 -0.9285575062428265 0.6885889920008463
Ni 8.713685097963639 7.521916679041135 13.408834233228676 -0.5992218169899228 0.3557663726406066 1.4859850129047827
Ni 6.9995528001252225 9.044131314823337 1.1758013253794608 0.9874915615748734 0.46809658420560674 -0.17740200436366868
Ni 3.105438828182235 5.5767533149866635 10.486144627782085 -0.2139638626481025 -0.04544039172098626 0.6641311160687982
Ni 2.516531604327874 9.017289683766522 2.956848338668207 0.5618492898787356 -0.021400577162963143 -0.17800030006929987
Ni 3.479089040236119 1.192623306486984 12.728563428813779 0.33339031893825166 -1.1057052285038442 -0.37305472740740914
Ni 1.0462904555303374 0.7186138905327686 9.61345701728139 -0.523404355638976 0.9956126480201111 -0.59986819232467
Ni 8.656085899264326 3.9733795146152135 6.521948260230486 -1.0127151120283526 -0.08054134918917741 0.5468954967823808
Ni 1.47792594453846 9.068003820252974 7.143546200703801 1.6707699399960836 -0.7787709496035814 3.0257127667486596
Ni 7.790378951306281 1.2488528466152464 8.48017945398029 0.432666525532771 1.4030836481238609 -1.476328206541309
Ni 8.231730743063395 8.554721972667245 9.573848146027723 0.6210972769067755 -1.8274876765375236 1.2323127759234647
Ni 4.903221414588116 8.757072939945884 10.094312887622971 0.7426119831845212 0.7440859966268862 -0.5849542513273152
Ni 4.233366449950777 3.9440835289377945 7.008468450112209 1.1397373783878888 -0.199506806682508 0.47168018779180704
Ni 8.823892055066423 5.703203135814581 8.175851431066388 -0.7002934249219682 -0.03154640734771341 0.6456271437273398
P 0.5251261769065191 2.454363812945262 8.21852778597884 0.09303999587682041 0.23276042652931528 -0.5047384037983565
P 8.132591362601843 4.522042676563161 9.96118667068664 -0.5455006733173831 1.0324930659862284 -1.7419822984748514
P 1.4463318740102864 4.588337828337727 11.86830661888778 -2.2094865005120976 -0.6681124693140493 -1.4548708079984816
P 7.988786404981026 5.283434956975754 4.767139860533716 -1.2423477915619636 -0.9284459203656268 0.66905349307108
P 3.114235896990923 0.05530019461461719 8.977301168895513 -0.5775715857099989 -0.5253427103122694 -1.276837340698401
P 6.61966098961669 2.853265381339237 7.214905412255491 -0.2780182699258502 -0.488583648415365 -1.9903367227876816
P 4.385003280742965 9.034010549140612 4.146713024100346 1.4502405083153218 -0.4050428502782314 -0.5801614579243621
P 2.1165637245631497 2.8823591355497893 5.093357601268026 1.0918811781365583 1.410669430890919 0.6885206006567562
Ni 8.966593931958878 0.7174400287910031 0.5677032545534189 4.538212281004204 1.0890581068654663 2.241815551662107
Ni 6.7949405173534405 6.491979395308767 9.538868536897418 -0.9059299986512979 2.025588346901124 0.1405868924178482
Ni 5.991805823711741 4.463165742686829 10.640097928103833 0.2984379712327828 1.1786623375878604 0.2607566546319251
Ni 4.862554505069164 5.281789528222615 12.517363915625792 -2.440838219619345 0.5200336393945302 -0.37737906581437586
Ni 1.0558321038306704 1.608208970897437 3.4913047400687893 -0.3125163037027198 0.42410295223347605 0.19064215720302652
Ni 7.919908205834211 2.712889166315746 2.8377137815372104 -0.6665055298382456 -2.1402436070548756 -0.8332690806514618
Ni 0.04115042657155127 8.808825810784876 2.4627132148250235 -0.4760906581546768 -1.594672228400557 1.4039596229709113
Ni 4.9591935692130935 1.0800447258182202 7.64378963408029 0.5595890330896492 0.273215192110252 0.8679563476210018
Ni 4.656517409689914 1.105084658352042 1.793259036185656 -0.18902004821857124 0.3029129762850009 -0.45360199013385755
Ni 1.4480048797816356 1.915775454983023 11.822051686245736 -1.2798799841794668 -0.855007757880134 -0.2767910823869685
Ni 3.073927488708689 0.7723973491458878 5.505410649645898 -0.7407026819769502 0.1603375926822142 0.8098165060554763
Ni 1.5121674088147028 3.6119918833249556 9.932328240364805 -0.13460496380280043 -0.3463851885360228 -0.7536936949199794
Ni 6.739492326074435 8.052443355346927 11.58776561264707 -1.3017718991565517 -0.33539089430804814 0.44280978461436
Ni 4.9374904558825685 2.0387321868377946 5.4765117730306905 1.53718596125863 0.8754266878561181 0.26030311203427425
Ni 3.361059402301365 4.958182411878762 4.723253793755826 0.0572281283845337 -1.26741013384723 0.8887601717402306
Ni 1.5480359171652798 6.676754609648835 12.264335581218313 0.4865879581415749 0.7705040816090988 -0.5305900747541379
Ni 6.704497089967145 2.1685923655842325 0.2377534240214836 0.7982534838082253 0.7577724929750433 2.2848650745534136
Ni 9.111152661410742 5.38898139800121 2.5768425431510766 0.9012665317373574 2.1176320403029467 0.029831738649451846
Ni 5.294217571095495 6.799150608800023 4.344270186380311 0.08143583597898879 1.6480740410604648 2.3211973333255442
Ni 6.566860192085753 4.844519135160442 8.033536551662799 -0.5376611226683062 -1.4323924243903075 -0.45252624057117546
Ni 8.290727177351965 2.729150414719685 11.0685115021512 -0.33204280377142165 -0.010807632138465258 -0.7551921338423768
Ni 0.5334875288275045 1.8130786391725036 5.995577440568799 -0.5497741038817563 0.24942040368349946 0.8992147914146513
Ni 3.1364629736674217 3.390337003299978 11.944119518880235 1.2817095811890378 0.5755087896436992 -1.0000997372571874
Ni 7.365573370474602 4.419989324510852 1.5412133628603597 -0.9040636348665205 -0.9303693626405848 -1.21837508279645
P 5.610921240547682 3.0934152482430872 2.5674920955103264 0.07173172131734742 -0.2685015886846666 -0.0670397151583168
P 0.2177922590078296 8.118242120793731 11.515867730006363 0.006926551916504199 2.1356418466168057 -1.649509745065727
P 8.217234423824834 0.3488299764317943 5.070956789376811 0.20020074742573907 1.4286730665571912 -1.0077207441375549
P 2.080116098830182 0.016165648074147804 0.7954333516898514 -1.424741592713269 1.0175626699286413 0.08021610463927475
P 6.851767559542899 4.262901436452675 12.814775622372863 0.4184565525809761 -1.2690114168960789 -0.5140483683453727
P 6.651797408169641 8.472376996295008 8.009763323498714 -1.2141667011420574 -0.4923485147744359 -0.6157565814201524
P 6.860987475964126 1.0665411792351867 10.448070877208723 -0.8679874579692535 -0.14709718273254022 -0.06384126282567715
P 3.8177440161827123 4.004449621797415 9.228015791475254 0.4198691166577866 -1.3877992111609647 -0.6385105872872165
