# total energy = -340897.61926477565 ev
CRYSTAL
PRIMVEC
9.01545420440781 0.00000000000000 0.00000000000000

0.00000000000000 9.01545420440781 0.00000000000000

0.00000000000000 0.00000000000000 13.19502852423429

PRIMCOORD
 96 1
Ni 6.254038459239652 2.0406570246119435 11.386214560320719 0.5523428930501972 -0.6181669906338579 0.20280141827337977
Ni 4.656013178854032 0.4251408619529976 5.9428691634548585 -0.3793202487011467 -0.20899777689207877 0.09720338322589064
Ni 2.636542471103238 1.5942478051665467 4.629805254124091 0.5673843607643518 -0.4120668470045484 0.5788604797247514
Ni 3.364585457538188 4.198496920101003 4.815908566068624 0.4605012883568521 0.3518187008467683 -0.45937540228252494
Ni 5.149708454442718 4.498873815922186 2.746122609636095 0.29973740677049665 0.11841729829934444 0.016747137551351803
Ni 7.207179300733829 6.155202037218893 2.7490787769972744 -0.3551122839963755 -0.18136870232090052 -1.541129005066778
Ni 5.2161793966628265 4.380708260560873 11.709162546734913 -0.30308781129996837 0.7303804741153357 -1.0698095430484995
Ni 5.602987449823517 7.946825176445502 12.282380437275576 -0.16691113213467382 -0.06545822960380984 0.3454793888923018
Ni 1.808049296384488 6.4252329149317235 0.3180291547208138 0.14737974696996553 -0.014382751084233295 -0.3213490715030014
Ni 2.6682678536710616 1.486044326456965 0.37884019493010146 0.43761872733172374 -0.4499751920145476 -0.04102632181369063
Ni 0.6948129245972862 -0.256859299442984 4.568079145335481 0.6160319465687263 1.001068786038676 0.5363015233166182
Ni 8.581080395090437 2.260931611790015 1.403291474342713 0.42894742480997095 0.6792471457746302 0.24574938258981543
Ni 6.950446217646613 0.6716666480401308 4.922563189783846 -0.15784645082924428 -0.17716880530694004 -0.9532902331028162
Ni 0.7465967907329275 7.370773728717838 2.4949556678382727 -0.2131943314719296 0.27372195654334147 -0.2989537345269367
Ni 7.65032492583721 3.8864359959172448 3.7615854814271894 -0.4372168639076148 -0.22149205270434755 0.2405966347442824
Ni 7.543681120666768 3.786481657602536 12.587476021711705 0.8108151225233197 0.24121472794425555 0.23180449037394915
Ni 7.80170341367362 8.683036164189474 7.091337929409454 1.1592901037088357 -0.07239917969801725 0.129647362687209
Ni 6.797372824461312 0.8413429012813867 0.25494081083530207 -0.2846473452065937 -0.591562243562136 1.0815481716416662
Ni 1.9812001055909727 6.663835920058185 9.100188432367721 -0.4254489247384092 -0.9096015339656142 -0.09562575432612563
Ni -0.01314002418090447 4.8178676242192315 1.5683878769603674 0.4474873925956874 -0.27383045709674775 -0.6161522741966744
Ni 6.542172368551286 1.8828324871773543 6.960456977749856 -1.3363509226830017 0.5217686198077659 -0.23191479069956833
Ni 3.4084456411677597 4.4527327224347975 0.7368537896129936 -0.5350643084754075 0.5350077442058592 -0.559248876141411
Ni 6.1028492959368945 5.561705686033218 4.928118512528458 -1.0136785043828866 0.0865181355979026 -0.3898553439045157
Ni 5.063610868900599 2.8952679695208 9.537880609356504 -0.05471333238247997 -0.13682382583099015 -0.7564692007825875
P 0.17296599239982346 5.452149889226115 12.353132818592433 0.5830274666182476 0.15105308205649468 -0.3249198195733952
P 4.10227497973545 6.090804649414982 12.690212529125713 -0.9434513926355236 0.39185720482589287 -1.1886004226371787
P 2.301924881052843 8.384471374618968 1.2331428113127234 0.08006286689086212 0.700417094984026 0.2900993694601004
P 6.328064351897907 7.740813037469278 5.789714631183706 -0.9919789079222658 -0.4846161791271847 0.9901950765489655
P 4.697457220816034 1.1268686397556038 12.610092189574631 -0.3719542952543788 -0.7392155559084624 -0.6550386668492267
P 4.08485712263939 6.23651241669579 8.177710952962116 -0.0375051960343096 -0.49636843456710644 -0.297610590235481
P 4.708537213761716 1.0685206215745995 3.66514356398444 -0.23623372978989635 -0.3939613956530893 0.7924129658670481
P 0.17722218822541866 5.660010196268952 3.7145716919942013 0.5546301464224771 -0.5626825844133084 -0.670121015103646
Ni 1.4319966798260748 1.0536901997717947 2.510829177666965 -0.2731272603821361 0.2778462631243602 -0.07433753437131069
Ni 1.9811189665051214 6.507760380696388 4.786483025811983 0.10427494536069137 -0.3621342238401634 -0.3088547956907326
Ni 6.158654956094561 5.613787963695712 9.152111136494709 -0.3302168063062765 -0.01825149001102018 0.600451832742282
Ni 8.563094564393419 2.3374908470176243 10.166122520194465 0.1728102712279282 0.4640193288124396 0.17497719697225994
Ni 2.4865343322723157 5.217414513858562 6.954400395763763 -0.2557787418013595 0.11029904006758423 -0.03138828450329433
Ni 0.461436178145041 0.22405476703333937 9.237469454810183 -0.2092489736709364 -0.8731139805625415 0.0427787857284231
Ni 1.4567350855567107 1.1898956785540278 11.471915465887566 -0.07948591134146955 -0.5512735712454183 -1.250172429812705
Ni 3.95313232448694 6.903349486036976 1.621563729191056 0.7898955987618331 -0.008193077333753632 -0.3665269535912204
Ni 5.729852918278877 7.827136009360983 7.985420334948729 -1.1284036985426245 0.020261321352197364 -0.4607982507719806
Ni 5.372759801447697 2.755104706439824 4.884178992903832 -0.3383864866012624 0.5412077023689841 0.017676334233840522
Ni 0.8463095148808792 7.328112600468067 6.759786495258836 -0.5125399021206463 0.6440934806916326 0.1223549427908538
Ni 5.26324006645653 4.316328903664928 7.381866343299096 -0.7591446907322217 -0.02204463850486526 -1.0205798594884101
Ni 8.31682842338101 7.019225116086489 9.25901729137607 0.2213141323655866 0.46176138601619826 -0.7043038316329419
Ni 4.642580152418665 0.20726258244373205 10.142635459476733 -0.6590179632119488 -0.44279795753981804 0.7533154856449542
Ni 8.004965839184887 7.259892660175166 4.6400450067585135 0.5336028934385326 -0.07283421035290681 0.6543544962980085
Ni 7.2999302913157464 5.96721179075562 7.020163624846169 0.2870089034602347 0.7364127963523447 -0.23679757271316637
Ni 2.243901419215244 5.356838509712893 2.6541406372789673 0.07415164361274972 -0.6476161491329105 0.07570330437058574
Ni 2.243937481031178 5.1824345524027065 11.236661701915963 -0.12045592599592803 0.6869036338786234 1.3540822785244937
Ni 0.9675565524137424 3.3656312502002708 3.6738524925324696 0.5293371761836432 -0.1772125140606819 -0.3912653368781649
Ni 3.6811901705296144 2.6690161363516895 2.473830656064211 -0.22084979113465839 -0.41914380845598787 0.7026233586067254
Ni 1.1826833153672534 3.3949404911005248 7.974903807877014 -1.1453256711089437 -0.19639731451924888 0.492582742272429
Ni 3.3758728059254905 2.714652364416004 7.140449614984394 0.6151631708105276 0.20397152732208096 -0.7097795100355324
Ni 4.111669082786223 6.845767781444568 5.922997299784499 1.1886171348077272 0.20826038450542195 0.39987364737246617
Ni 0.7070667296516159 7.645763106121575 11.190492660521226 0.7655827330480816 -1.701074504516896 1.0622852096469964
P 0.3360780935957165 5.60122943629674 7.829546741756162 -0.011163729926303354 -0.9956995513069626 1.432771662106597
P 8.426456343819979 1.6317160319218393 7.968767889895865 0.6754339426761271 0.24910827175971936 0.02071949193553851
P 1.8264047606948286 3.2721590232996753 10.234644478195811 -1.2226845088050813 -0.918952893273527 0.5635122794034553
P 4.0911769558818 6.148188014019755 3.7501322486865916 -0.8146036430314745 -0.5636410916718357 0.2622185838894323
P 6.8837949663468345 3.928060346958916 10.339755656189064 0.4032253374535185 0.2047462007045764 -0.2009836483383506
P 6.394859850461421 7.614236063541388 10.061816422241934 -0.5002808822476351 1.2414581898681587 0.9205811729055694
P 2.5780321747505313 8.408876208552217 5.847469432492598 -0.868080274793376 0.826603495705828 -1.0510443466258543
P 6.986544095396418 3.8663225180801275 1.624004212584381 -0.9087008765282156 0.4840412804603212 -0.2281761495927425
Ni 5.148067641817726 3.042706703966434 0.47625758449386224 1.3589177522399243 -1.3043491729654246 0.3600691137810186
Ni 1.2557445544492774 0.8413753569157273 6.9083233119996565 0.1108626258805381 0.7348539365056569 -0.07211275880585
Ni 6.709111529963161 0.8371570259968626 9.133690760915686 0.467211353387176 -0.3948018892765136 0.6375608217794375
Ni 2.646847135006342 1.497917679353192 9.180863222338784 0.053438836545430544 0.5753108147002802 0.3234872008919268
Ni 6.447510101724872 1.9330575813192539 2.625243402625758 -0.14362799323701717 0.13199349432188234 0.013017495305590484
Ni 4.252715860357579 6.57589918190344 10.489942301008858 -0.19396299404614337 0.5222805264471779 -0.15710185935373588
Ni 8.301411997069279 7.045937906239505 0.3654946183983739 -0.39676209832667797 0.16418601989402692 0.2753918880465967
Ni 7.647944845985575 3.7945504889177397 8.13521029979325 0.6893096722169548 -0.21843938192095283 0.453854986684928
Ni 3.1401817924356887 8.296516605556256 12.226921872096272 0.020676554512745034 -0.1089839208005865 0.4243402650552627
Ni 0.061347459721304044 4.797546790940495 10.040374066487654 -0.011635013135767059 -0.03321016820338151 0.16206691666849507
Ni 8.642069941288597 2.384362192277674 5.736670404581176 0.31985448923534593 -0.36018044254790227 0.2457241857788349
Ni 3.5089769685374104 2.751904220275693 11.601847090242702 -0.10678614181831933 0.027588965361862162 -0.2851276272771218
Ni 1.1313403049314037 3.2739981759123027 12.579321543583658 -0.5410822325347133 1.1022211266099855 0.22338721284453142
Ni 3.170004914213001 8.473120333638409 7.943129741857679 0.8726180147627294 -0.26968198214601297 0.16111046629249673
Ni 5.499598223541107 7.8312470563774434 3.7179236377852543 -0.08448182189416419 0.6906322476831203 -0.5231349040276733
Ni 2.9688430894798814 8.452943747623408 3.4540097456002066 1.0044852679193927 -0.5976305612434031 0.18760876969334142
Ni 3.2913348939225116 4.408520936099871 9.228787572624103 1.0732589350496808 0.27226131283741495 -0.7660149354894936
Ni 7.239634935074313 6.104832695813258 11.454194689537662 0.22921564660085042 -0.47267597604617295 -0.24531589459682265
Ni 0.4078843814832417 0.15778126325546848 0.2781339677531716 0.2456758490394027 -0.8065936282428043 0.5386995912351497
Ni 4.6143527659964265 0.38847320751143694 1.5761727214750918 0.19065372716725232 -0.7474407720317321 -0.41347015510997825
Ni 6.044257860498337 5.6235517003598074 0.42067190141339256 0.2742680588547986 0.43894747344547624 0.9570309310921711
Ni 7.801198548250546 8.771297458687625 11.386425521943933 -0.7005006558367678 0.8841872076575676 -0.2668879643406436
Ni 0.1427993818257415 4.779894532040864 5.718118403373995 0.028548501061654057 0.5827027362889772 0.4637815017700206
Ni 7.745996923509772 8.793232058229403 2.5557450709580003 0.4003801546952395 -0.017827000879091878 -0.25351154303373763
P 8.589987663626102 1.4860353110029816 3.7178974929687025 -0.19099388411549043 0.2735242387102386 -0.9052910795157183
P 1.8039021875520926 3.159294554880641 1.5163326456598236 -0.9185163199567408 0.40698814693006036 0.6405836677661614
P 4.667570990860838 1.2669327328427609 8.111683571077993 0.5721717548506662 -0.861534246144742 -0.020163362321752372
P 8.458371050921455 1.7375935235036863 12.376711836940792 -0.10000537145106003 -0.24947542529115097 -0.7508094313936489
P 6.355768841989104 7.727334933763993 1.2550611830373306 -0.47904896945205233 -0.018188240873252548 0.41342156126022994
P 1.700900625790972 3.1711228305069503 5.803464100053892 0.7460410634707281 0.015147654274715847 0.3511173039043695
P 6.99489240578511 3.8825413197963865 5.993062703507816 -0.7609933139051862 0.323253744724882 -0.20527739061769806
P 2.3542595914268745 8.472741684571103 10.149259113518386 1.066345238648983 1.151966573464229 0.1051537484212189
