# total energy = -340873.9737270476 ev
CRYSTAL
PRIMVEC
9.19264466894007 0.00000000000000 0.00000000000000
0.00000000000000 9.19264466894007 0.00000000000000
0.00000000000000 0.00000000000000 13.45436467975733
PRIMCOORD
 96 1
Ni 2.9051882872136052 5.960281032174137 8.467316571219431 -0.8539836874909938 -0.6568188986781011 -0.1466384979285668
Ni 0.4852732808818202 5.287976959240949 7.914570197223201 0.5594476224157784 -0.5365285517257599 -0.12606324488037643
Ni 6.319878909045682 8.491576879948193 8.81083283538585 0.23076139382141547 1.2295002461753342 -1.2339451693205652
Ni 8.432247550807414 7.0384403703018315 13.225681366212475 -1.443764927893307 1.9426016214952477 0.9513675621588066
Ni 7.423694918637881 6.659547132124663 7.851872683050322 0.6569754788606234 -0.8887951387432242 -0.2582961089065745
Ni 8.864292660861246 3.224494802197324 0.3327167451279033 -0.3035758066799804 0.40680045639928647 -0.19991329809230732
Ni 7.360899962430776 1.8206032904138623 1.592579737681139 -0.41567539029141315 -1.6311510400528813 0.1581542118776502
Ni 6.355031582524816 5.398775906271286 5.915750022533022 1.7000198380001368 -1.378746356930077 -0.5708980303445652
Ni 3.0402006604845386 8.35814564157224 2.2717019952166995 -0.6358667219064662 2.131548650384039 1.165117251913574
Ni 6.382784176989646 2.209203961434641 12.168638452313054 1.2778105032449478 1.918804004855018 0.7163646194522179
Ni 8.580745533909386 1.8726520449219324 8.546844898643604 -0.6523009562030895 1.1853932285537907 -1.3005493396033603
Ni 5.121976180557316 1.1927456547901976 0.7143447951147059 -0.49137483800725695 0.09340046454003269 -0.5754717657581766
Ni 3.0887837879262823 1.6120865298157423 7.183325644021664 0.5104022869523532 0.4410148974974663 -1.1754592572695304
Ni 4.63579558563983 2.1820856594567517 5.468002036737284 0.46637034554311935 0.47308426722818525 -0.7701878359202606
Ni 3.471832101525147 4.031342423519794 4.08474525459781 -0.33941492786577676 0.8588384444801338 -0.10370544601046655
Ni 3.9766094167481496 8.887853409325425 5.031717278930165 0.21416440869468278 0.06589685980312522 -1.3566446399350311
Ni 1.8934641926093696 7.487712496595175 4.237519656032024 -0.5087210425951884 1.1529654470423887 1.0841575842400555
Ni 2.8334121170972133 6.576473201624941 11.112336465579538 1.2011800590744022 -0.8409214549903969 0.9038435484359143
Ni 6.529434438499226 3.2015131903516556 9.552423710240307 -0.43830186944167737 2.1797789461453365 0.09918004733628726
Ni 2.224923383937078 1.496056967929331 4.17801107031885 -1.0562112355387745 0.4429481099644372 0.812645233753523
Ni 8.271155644414016 4.920280362354991 9.804020881139843 -1.7685857599949926 -1.008391030731702 -0.32320669353703047
Ni 1.5533363372934752 7.902907488843761 9.131490669146094 0.767163190161324 -2.7068404389209255 2.31554656279767
Ni 2.2378666277285584 6.6680595211522995 1.0806735264636103 0.0373046499877293 -0.8370102928614489 -1.9345224440315394
Ni 7.950194453377409 9.140301819127723 6.729914069802678 0.21693631501286512 -0.01423748375562064 0.22652627269414538
P 7.442604188864497 4.955828319557872 1.1169035779060699 0.8083262946631949 0.4958390444261977 -0.4827127914568847
P 3.1417334216187025 3.7898700315349854 6.243376800269347 0.6898449758951345 0.1898543711944085 0.4496484048027482
P 6.534472007815797 6.296106729752523 10.644380288855666 0.25533136985129573 -0.4908593318234192 0.5535731659128724
P 7.617963079891687 -0.2541159555578215 2.9438019914366973 0.18147694576399068 1.2105100782260765 -0.4550680331564227
P 8.899252288800875 6.16469787321899 6.100599399987999 -0.09224501077935081 0.2946329956643958 -0.6873034404202034
P 1.2675645903149562 8.755617214765447 0.548089380171823 0.19058302183031692 0.7407373918696276 0.8556155666674619
P 2.2165580772252547 5.771096403460594 3.1236459738316875 0.0780977727446913 -1.9963271360431618 -0.3670766554471033
P 0.20501436295283995 2.6562698529908 4.09193022572524 1.66470805007272 -1.7542724286961142 -0.3663312926406465
Ni 0.6466777371963196 1.756558134522353 6.23059534702526 -1.079492060443586 1.560224331135332 -1.5564892895729323
Ni 0.6571932035124237 5.6966635590148424 12.358264327974034 1.3850118782238148 -0.8412101898754094 -2.025961156859511
Ni 3.8968448383542027 4.190862387662948 1.5856107937050583 -2.0531821973589928 0.5951731008418459 -1.1549881338993722
Ni 9.505194659368511 7.85060134028302 2.327658543003007 -0.10211084782983705 0.21440557817121142 -0.46290938357771244
Ni 5.900133557651653 3.5442425641284796 0.6624991980553516 0.7733011847382617 0.008858221721578293 -0.8907376071815755
Ni 8.707760306258027 4.027049458427022 5.5408169757091 -0.7404414578957635 0.5414393587638159 0.758693462127416
Ni 7.5262021001143005 7.234887188358607 4.730568075833472 0.33066366403570796 1.2243989203930268 -0.05153750575765962
Ni 1.2077572436477881 2.402773481688338 12.104353368393877 -0.5789664091749964 -1.2591669200018314 0.7097481425769647
Ni 0.12039147181471925 0.4128012275587414 10.298091523036184 -0.8475423027410242 -0.522172540114404 1.3348727954755786
Ni 4.7837787806364584 7.666160116254423 10.141241102925022 0.0018774195283709602 -1.494499221023381 0.9333868093106699
Ni 6.479343717320408 0.573143014141497 4.797678059480719 -0.02862511993586038 -0.8846926865390763 -0.9958718152187688
Ni 8.082053749503118 3.706373239377302 2.8329239876616117 0.35182512860467147 -0.6768102541983635 0.06961030409897044
Ni -0.04293057019218267 5.954057611686331 3.6683598148556187 0.5797421109987564 -1.063036485990724 1.0364857320853893
Ni 4.156104997907559 7.9667595991957665 0.24768661982787732 0.9686967974658734 0.19080362248155525 -0.7072971099333109
Ni 3.2833277285222358 8.188127677137985 7.093719420170928 -0.2648531932988019 -0.23921595234667187 1.570187355885315
Ni 4.308813212299657 6.344763398352172 2.290794199073607 0.9591628898335094 0.4623758796717456 1.2349016196965634
Ni 5.257337874328305 4.5593771299306125 12.018985873031957 -1.038518703355018 -0.9925615198986131 -1.3165739971663908
Ni 1.5453846995948741 3.504815310846051 2.276209148931872 -0.7743141993838084 0.7831384825436577 1.0055892996168487
Ni 4.978203216850814 4.25425486577804 7.561474277975033 0.216230290084776 0.12944835930252546 -0.477034767235501
Ni 7.530265249088615 4.949375082951608 12.248490360832015 0.5587768216009988 -0.5034045154782815 -0.11928144607185262
Ni 3.3009500284854942 3.3719724017333483 8.91296495695695 -0.12716290570245842 0.6976554730784887 -1.1894450300256612
Ni 0.369296117070417 5.517462142487057 1.357248951645967 -1.4617708775524245 -1.2754543443079454 0.2537465418626791
Ni 4.038144980626112 9.66266466373503 9.063748231540854 0.8458178638507499 0.9020409480095368 -0.006524174271762957
Ni 5.719424547386793 5.994725872008425 0.20031692149158534 1.0916873169581973 1.6660524799157563 1.2503310668777563
P 6.0726427288099805 3.504760154977621 4.381239302399045 2.256667271962959 0.9178745726076837 3.6643094859917795
P 7.2106737621180095 3.9585918330611456 7.708677936697857 0.961451685867686 0.8349498107879942 -0.6076352378645987
P 3.7394851457245415 5.903727881744316 13.052577430939582 -1.3697274412609186 -0.8789138750737702 -0.3157566650168885
P 8.5082983007271 8.447203983796575 8.714580329389348 0.4553099739638998 0.14350355184401092 -0.17504944497109207
P 3.3718437047070124 2.647858583055285 13.450826701877647 1.0028127653129761 -0.7370977382345112 -0.5869939074651632
P 4.7799546404253395 6.783500753775461 7.916508006734028 1.5840211764446142 -0.13276611082184875 0.7614951932422691
P 1.85229033682667 9.112926123097163 5.762598722664539 -0.6426279518896997 0.13822044906820066 0.019890825386656066
P 5.44142058521211 6.715410834199114 4.296839792528064 -1.8110177039069584 1.5421278786449377 0.5429771355645809
Ni 0.4692918680043423 1.110260053553724 2.2158530013738296 -1.103363981965177 0.34232078865866206 -0.316867381582564
Ni 8.679952555924768 6.997321670387561 10.550993130224082 -0.2632033164002047 1.678737788692909 -0.12124088379106861
Ni 4.796069346651522 5.179558907197824 9.7960425847715 0.39040633131197927 0.2958745813809808 -0.24777129811585072
Ni 7.057156594988944 7.1027153423117975 1.8092356659305207 0.8623294883525277 0.3885571939183824 -0.10834525877532308
Ni 6.534269769631555 5.324021319259697 3.215445562716974 -0.42184423810628635 -0.5700526516251344 0.05895950925334362
Ni 3.1368613199074207 3.721265323853295 11.163651647037495 -0.1989193096101542 0.3705224479038587 1.5734331165161224
Ni 2.9332810095337503 0.5897476883322295 12.691139186591435 -0.5589434290858502 0.3380285890412114 0.34634765042986804
Ni 1.1501561317178046 8.131611297287115 11.972070291345734 -0.01482986592398091 0.28443805740926503 -0.12255317484458894
Ni 5.822667140442274 7.941268395336551 6.313810844253951 -0.7317159050973076 0.07011886830427279 0.5388474296669236
Ni 7.099231329955994 2.250984531770066 6.2770531350035155 0.15755154529664478 0.8634381480356742 0.30720671856434834
Ni 2.6885084580879037 1.5693039612038457 1.7826358291158702 0.999003675979531 -0.4488930146939624 -1.1677757725823437
Ni 6.968089060119871 1.1971397389750895 10.102129157357117 0.2762526933849952 -1.8765106434034455 0.7758257509323284
Ni 7.318144971753094 8.60714680959769 11.662633919017495 0.5833609386982662 -0.7105019900238537 -0.7616103786638948
Ni 8.761813057319038 0.7274176551969962 13.045110245618687 0.09143665594544254 0.1983698648645874 0.44648620502468267
Ni 1.2407588382581682 0.33487058179007934 7.877988067487266 -0.9591816588865869 0.17613033674009665 -0.5674920899868098
Ni 2.0324385957624966 1.6547863646249945 10.024363059929271 2.471604297157608 -2.9154852033489593 1.1807786125999147
Ni 0.9426413693961558 3.550750956603173 10.136787266549332 -0.8137605783048888 1.7519211548551181 -0.7719235876644448
Ni 5.232131642455975 2.9244744558744906 2.7540952205020206 -0.6525125579932632 -2.914061069307923 -1.1390174695027289
Ni 4.1089926936239385 5.994358166218895 5.985039582247714 -0.7513010263180867 0.29554830838981355 -0.595197269211562
Ni -0.11708028117999533 9.247984459591787 4.452803122421983 0.665692289908331 0.45919953882629305 0.8498871488241169
Ni 1.9627491560016914 4.188233291267803 13.307644825227815 0.9010808980891127 1.215341438176449 1.2458627466937575
Ni 1.7927311915674353 5.4552371302537255 5.596167728207155 -0.8074973710039964 -0.7363480045526802 0.15644417116507894
Ni 5.2588270827759045 0.44625326176129654 11.670249105918673 -2.6261062569946514 -1.3448944413776387 -0.6994084512138535
Ni 5.461488128675747 8.703853432244264 2.4618389819251276 -0.2044096433007641 -0.08235757646230978 0.49671681904546067
P 4.081074631553821 0.9888527944954262 3.3129491876623547 1.5468216845761813 0.32615806285587057 -0.5986780286713109
P 4.687421478489939 2.478640378713259 10.327475811942058 0.25303511761795133 -0.8588345878253918 0.8516054170668044
P 2.995882920201352 8.71003088950838 10.728052660527851 -0.4965239863083642 1.3220679304014264 0.5699672910001796
P 1.237100165652338 5.769846203776189 10.110807013990042 -1.3073511930165422 -1.0443178265352981 -1.4680695660769427
P 1.4304582550770546 2.5038558032303264 8.264464318309031 -1.1629264149098424 0.9236456707635061 -1.540447148508405
P 5.486712745837553 1.0268459951986855 7.20447608103547 -0.11681832924334075 -1.518548548663101 -0.23678266031483092
P 8.279502565836362 2.9220567903083263 11.347680121317344 0.37737443782868557 0.03638393794567282 -0.20164416474048497
P 6.33108474298163 8.53048015248054 0.06253664288995942 -0.49432569310546476 -0.08093678485538319 0.902571109481394
