# total energy = -340866.54708323575 ev
CRYSTAL
PRIMVEC
9.30378360006448 0.00000000000000 0.00000000000000
0.00000000000000 9.30378360006448 0.00000000000000
0.00000000000000 0.00000000000000 13.61702773955317
PRIMCOORD
 96 1
Ni 1.7144082028516838 1.4994349791305628 1.5906595076473102 -0.028980703503066217 1.2777526534238188 -1.364246106431373
Ni 6.298447506061348 0.7244772550533352 6.152077591426716 0.36720186817105793 -0.1454753308584011 -0.14631428181992864
Ni 2.4479185013963565 6.711554105198594 12.664149272588066 -0.6809121921818789 -0.2565544436251195 1.8309326976633304
Ni 3.905011961390988 6.7938460710868185 3.2520594034726336 -1.3897630197555548 0.8051057308433683 -0.16568523014737271
Ni 0.3946413798383933 4.041042581317696 6.066862376733281 0.8382444223788661 -0.9483850824917149 0.37011775626627225
Ni 3.3467849457557732 1.0029757827753845 9.711759156405448 0.5752642777330609 -2.539834175969284 1.2073447931242174
Ni 0.7139909605646276 0.41582981659518725 8.372593014220474 0.2726480067528724 -0.44349549782747494 -0.15036376929895395
Ni 6.573718551254665 2.5645135173953646 8.058788488516216 0.6544146601119826 0.4808317723840881 -1.1668656020632486
Ni 0.9441851742454024 2.9805042894467273 10.973404312929159 1.8236101958599884 -1.3460311260852431 1.2056010709602334
Ni 7.119143560664646 1.2372171423195144 3.614122654678556 -0.3142407425929943 0.06444495784794708 -0.4254586949304221
Ni 2.6770055648294546 1.6625116979647967 12.771206049646587 0.9079226036012945 1.771195429703698 0.4551657350765516
Ni 4.188656411818835 1.1996112490328887 7.4603337733776085 -1.6249071160256983 0.8608606171164852 -1.6451049311298118
Ni 5.19623756747321 4.2125206167372395 6.606423211344015 -0.5513005678286118 -0.19778930977076903 -0.29024309412681626
Ni 6.410753477823558 6.659694815446083 0.42677292685835627 -0.6722172355110423 -0.8983614422754206 1.419355131590375
Ni 8.292434405910335 1.4585355464516891 9.755660920050078 0.37550113206537267 1.4582242978517468 -0.2588041588912446
Ni 5.880884394582613 8.453752709645318 4.150592772379388 -0.7795397094488058 -1.1462947198904323 -0.28328286075889925
Ni 3.6537725892207655 2.936376443860763 10.832304991700482 -0.3479962417768846 1.4997728107174946 1.0194989677194055
Ni 4.515191304614653 5.3832529214946 1.2628062687162327 -0.38198108336276154 0.08243959465315479 0.7032126554512921
Ni 4.56972078025862 0.12435344113797864 2.2943465278816713 -0.30052005057279213 -0.674529942804619 -0.3419135259179144
Ni 0.8593783956517411 0.38065872347509055 12.984122206815094 -1.7892139777683056 -1.1486303100021444 0.9729154635329115
Ni 7.631754125338871 8.587280611785262 10.007072412216788 -0.513134855392168 -2.3863262046143934 -3.156421223710532
Ni 3.525994425341865 6.311370461473302 10.591882198336553 1.4563936724009112 1.1884135034373533 -0.11216000453572297
Ni 8.801165292825893 2.995232178875902 4.326116092905569 0.29918487670113636 -1.009856559533635 -0.6777574486029811
Ni 5.709527308349789 2.2529205010513818 1.6872718572432968 1.7481771144316536 0.21609376450691167 0.07189524347840522
P 9.158532924451965 0.8865007855847375 3.4415951524696173 2.466323508374643 1.3025555714001116 0.09855938303315284
P 5.0657892177028545 1.0184014559741041 4.36247341843389 -2.0511258290505965 2.6772791803240406 -0.31152462921341184
P 3.9065749970347667 7.5806949609754355 0.7938425440161669 -0.03240567002421516 -0.5306481816855829 -0.3386410258142297
P 6.438832296710009 5.220315759414276 2.337280698032535 -0.9229820690375781 -1.2564708612269069 -1.3021231118483831
P 7.21156734688665 3.0868651434924232 5.829545186333002 -0.3973269696912125 -1.0170790454240033 -0.43427372211889076
P 2.578143560360458 4.763872136296548 11.615855690305056 -0.1609006642745358 -1.9187608103219085 1.2221348069491984
P 1.8779315032984263 7.950538966400954 4.332719918500533 -0.30204780007122817 -0.7115132048971875 -0.48274518735671695
P 8.146337092135004 2.424724168896713 12.112387456172266 -0.053108706899521435 0.7616754275738753 0.7465164604452499
Ni 7.255378863830421 7.146608329833899 2.7713784937143844 -1.9268790685536688 -0.2485498281530881 0.5245050449023225
Ni 3.4113159887632043 9.148019648990834 5.457431988088927 -0.7755640126305094 1.0473275598958995 -1.877447296285102
Ni 1.9035448195324887 1.796058207671928 3.8084377573077366 -0.8610112837617365 -0.495891752041004 1.3180827205014332
Ni 8.180230775767656 6.354381853027996 9.979239213217218 -0.14501201806873734 -1.1570483588625105 0.14642766746934135
Ni 2.3827920162389145 8.019405572563151 9.802081217913583 -0.24062363132747594 0.719256339177716 -1.635261976897461
Ni 5.962785601559893 3.817202851831569 10.935031787874395 0.16587266356783048 1.0869469740597344 -0.2173312364584386
Ni 0.3634411415561818 6.60047623287078 3.33988898135596 -0.41330663294892045 1.5491716728655964 0.6515769335528714
Ni 8.118751373779032 7.670876535351304 12.914769943149292 -0.009479143135028834 0.9477407640394967 0.3642193885039663
Ni 5.7454585205895095 5.8314068734301445 4.40721903525049 -0.314076191990672 0.22686103032574478 0.4064222471242614
Ni 8.361654555849102 8.4920377791343 4.585629319825864 0.4776392335887193 -0.5321893009204577 0.557989035592381
Ni 8.635009021622071 8.627398526642246 2.1341967793660843 1.8930654624383334 1.0403511285780662 -2.1582570129131606
Ni 5.663240984970036 1.5088038892096405 11.073693517801463 -0.3275562287549778 -0.3409478195705354 -1.2773821574582775
Ni 1.7425800595740744 7.449697687973039 7.1559390944002415 0.036879646635168746 2.24785224477449 0.5483232303678428
Ni 2.376884113656775 5.448044470442661 6.404864182808607 0.8392183562563611 -1.7014858810227018 -0.21026841607438626
Ni 5.740871755277707 3.2218165245222363 3.8109702472020017 -0.1769219794034566 0.9316160905634924 1.402289691467656
Ni 9.28446893917927 5.5511862153648615 12.31947479291918 -0.45687551867880677 0.09386969086696736 0.6314426246968416
Ni 0.2609125159728213 6.278397852416449 5.8697012467027205 -0.8047036103089431 0.4834743522132577 -1.9053424800334735
Ni 5.8319837080129675 0.2774034723930449 8.641828694996416 0.499976463633339 0.04931118753030217 1.210872346661502
Ni 0.13808954723604247 3.4961664951397564 0.04799170691251881 -0.3154887560674825 -0.7681579499744255 0.4532533485451871
Ni 8.412313657517997 5.6884821498603415 1.313343490820048 2.234137466291559 -0.6146342948902512 -0.577708111287863
Ni 7.930461401405274 1.3614505646491315 0.8423478197830702 -0.3238687526010616 -0.1788780746885629 -0.7340131857719165
Ni 6.252198397815969 7.432829928317261 7.847098570025389 0.32477326669320195 -0.5311857993566077 -1.1791904421771886
Ni 4.634847265416062 5.311976635381577 12.566092975778302 0.5302193216782805 0.6847099686614143 -0.7215543911832735
Ni 7.798812863551302 5.16676318104767 3.9927578052219683 2.4918018551514054 -0.820038955114433 0.8740796869099203
P 1.3742060519563963 0.4893604094730172 10.896577389524003 0.7475335888558544 1.6912796299136614 -1.2142728877026183
P 0.7478176569554028 4.226541418613278 2.470251303535202 -1.8884467327193994 -1.2631485303573988 -2.652022719750097
P 4.874596464847793 8.570794307256834 10.347388999650283 -0.4443341916786864 0.15025038364954124 0.8432081941420445
P 6.99085368868808 6.0262187981032405 11.930653860097145 -0.2274456991846212 -0.8337236516903771 0.30749133968430264
P 0.6378674031991721 6.996370832359275 8.940600167169617 -0.5098844667756702 1.5349051356442531 -0.5634726844147716
P 6.093085090792746 5.19123213189968 8.3676229330246 -0.029411877503213862 0.4876169136267215 -0.33739918298732857
P 1.2886577618102995 4.543577148359704 8.037886608294114 -0.0483753059795941 -0.6372044668812832 0.7345775429158188
P 7.812824361643746 0.721367930576247 7.726328946327788 1.5275273551229436 -0.7998794494474224 0.8211751256014053
Ni 2.603812699296084 4.0921296570319114 0.17009270204240934 -0.29594631515918063 -0.18692562758338774 -0.5967124203045078
Ni 5.406372823725492 8.009283056012967 12.564036839604046 -0.3782776663692453 -1.2593834068880119 -1.732927901582067
Ni 0.2515129034078836 1.1215990235978675 5.811652149725174 -1.1383628666378651 -0.6891294378853486 0.05968353190356172
Ni 7.621678127706654 0.42167631420560675 11.676641960415933 0.4147071128408729 0.8757082236522788 4.271937524767527
Ni 0.4996783054786747 7.900875369576608 11.28850206455297 -0.3708721179337936 -0.5708090701751847 -0.39772806178437303
Ni 3.19339346564281 8.850010156693976 12.009523894379525 0.3516587782301363 -0.11873482953976326 -0.5849935892056828
Ni 8.660947970281923 3.5231102524277493 8.2364767994847 1.2238510183093567 0.10564868577976644 -0.9628048574614707
Ni 8.300919456547991 3.7911708653357796 10.38791255947196 -1.5034906258887137 1.2720453186263965 1.1256125089507325
Ni 2.017134713430661 8.555080216766703 1.6378696967379396 0.11249321950542562 -0.8419624946604015 0.4048358764737479
Ni 1.8162846332051108 4.923664619522128 3.988795323789318 1.4826857733282206 0.0840089960228037 2.8283556594193033
Ni 8.525373235751315 7.929233301970876 7.044619323698985 -0.19790243830986562 1.0390514359300362 1.0106775127730334
Ni 3.9479210113261485 6.484216153081153 7.948327457040679 1.382926970670328 -1.964723393094952 1.1575666932598256
Ni 1.8745356222866454 6.0556187542600295 1.68706810438259 0.9323696809000653 -0.7499481118346181 -1.0538591903668302
Ni 1.0345156091587742 5.308962209497148 10.219974613709903 0.4562011183196014 -0.09463845071219185 -1.1518179637015067
Ni 5.199112436603731 0.7984935054347677 13.144816226670924 0.11830596953246077 0.3021701845817054 2.0037655945990784
Ni 3.297949385671286 3.6107425900988845 2.5277012368493006 0.08669785570887649 -0.43802444741057467 -0.0811455584320796
Ni 5.847679190935911 6.530828108886693 10.042217454742822 -0.6862289764091021 -0.010900191852271549 1.0751756924564195
Ni 2.1082838813002978 2.4707872014702126 8.651905623006991 -0.9346543631691838 1.242156501486764 -1.3291104390705044
Ni 7.750042429951972 3.383925649862703 2.27529610059476 0.5060249838202641 0.4192484523546521 -0.5260788171473456
Ni 6.722299975249572 4.210176063271573 0.1837934537628163 0.5926505915303084 -0.00929788036215818 -0.6000047179025345
Ni 4.856686681429497 3.0674853622662877 13.135692936478724 -0.7908906156852508 -0.14411573150671309 -0.8198461223773366
Ni 7.492764902229296 5.012329677172188 6.477184353440868 -0.20010947326351342 2.0408123629397306 0.9640220176980235
Ni 3.2175460878526265 4.6814313098708205 9.11468047086038 -0.0007618178666890105 -2.27281739936026 -0.5505199809088455
Ni 3.494603459495978 2.938227896795953 5.1276007647657815 0.40752139372571106 -0.04225582334541755 0.17249171154624485
P 6.751299868711822 7.31271808211975 5.650780427602698 1.4275194125687223 -0.7186647283403044 1.731216318207599
P 2.0891646060147915 1.7598571857079843 6.448697098454644 1.112091334535846 0.39124913892824875 0.4431651110712497
P 6.462882577300294 8.75091555763513 1.244177302826126 0.7912467134730888 0.5961089823925539 -0.47974959506350273
P 3.8389271865233723 1.9008932412082213 1.0934932237389938 -3.0625425339824996 0.13387065673993717 -0.8242087702214064
P 3.762329136194627 8.281856003964046 7.259441826125886 1.0455869230557089 2.394099677912225 0.9143498472838768
P 3.8585023472049804 5.1850172044589415 4.906065582475868 -0.4693474258935723 -0.9920910080200979 -0.30483976099406856
P 0.6460063530871336 7.325687556449675 0.38368059238639585 -0.1577585191011283 0.18244290922168577 -0.48142801120719014
P 4.714924930808933 2.824935723972786 8.876845059713919 -2.2770532918184783 0.10561320455614069 1.510584813731334
