# total energy = -340888.9247493906 ev
CRYSTAL
PRIMVEC
9.06534389508583 0.00000000000000 0.00000000000000
0.00000000000000 9.06534389508583 0.00000000000000
0.00000000000000 0.00000000000000 13.26804712946100
PRIMCOORD
 96 1
Ni 6.5971316742174455 1.88512916795058 11.577869950281125 -0.8066077693101914 -0.20353623955687525 -1.0446988640238006
Ni 4.553322729226307 0.3460513670571991 6.103527333041283 -0.7795391952281736 0.3242060813358223 -0.03451474594741798
Ni 2.6997862842525526 1.6481157555462504 4.660003694503575 -0.15762405040579305 -0.6152351616990437 1.268911400983105
Ni 3.6534332509650502 4.535010734846627 5.113067818419376 -0.8184191601228228 -0.9703554161152191 -1.1099627182286174
Ni 5.290253588195914 4.6089204824592676 2.3669530949206066 -0.692975293994 0.4202727798541085 0.8618857159468898
Ni 7.311870571681379 6.214438187713381 2.367908582152101 0.27424517603666315 -0.7351624688850112 -0.2062063301898707
Ni 5.490407312903321 4.575623474857008 11.325803534576071 -1.179365534302472 -0.2500462101929565 0.6081214334723979
Ni 5.787950025541872 7.904172936426519 12.155441131428748 0.3287160533910339 -0.4297796909032792 1.963716806207308
Ni 1.6844315226180326 6.624427424255672 0.17230589523466555 0.0052933871884554 -0.5676165313798159 1.5234984364692084
Ni 2.9749647938541366 1.7674247446704954 0.598156763740386 -0.2583788984283679 0.08941499752972343 0.26844888106986026
Ni 0.31800500655628056 -0.07833726150127264 5.362400126448729 0.3414964929851538 -0.07317565285272559 -0.29172147844455565
Ni 8.463830998319565 2.2598904786713674 1.4067709218970639 0.9722390062911773 0.24992871077848575 0.21197717123537685
Ni 6.640917284541137 0.4275986667811672 4.766678314040216 0.5324726364888315 1.7236413340738186 -0.42879315862029377
Ni 0.26642501367434696 7.772580406517885 2.3833794977998055 2.0384070959323477 -1.9979366466221267 -0.039132190114771315
Ni 7.570504828934984 3.6045801134838134 3.5107519925785815 0.5636066388894745 0.6331439236586643 1.3258669924325424
Ni 7.618496758759751 3.7299266215471016 12.608027511728801 1.1912188340966323 0.3778359508461364 0.35121680559671126
Ni 7.892270140079726 8.647558320147775 7.3195570766489695 -0.0772883894695185 0.34824306768036795 -0.9991036918925053
Ni 6.995888949850616 0.7173080158833405 0.3708242319291559 -0.607062138969948 -0.23726011417188173 -0.6489798622496565
Ni 1.901392394642237 6.450400020242442 9.307773707613396 0.1564914794632466 -0.3563767525310959 -0.6493835254459784
Ni 0.25302099640217096 4.8925025657192505 1.3815620139906206 -1.255061125363574 -0.6747592852066057 0.4015744321136568
Ni 6.527963101387266 1.7224606396590028 7.018225956856326 -0.25616389305492016 0.31870623456351566 0.1773716653463655
Ni 3.288525968903032 4.3595510065205305 0.7216911095875858 0.06043275136476044 0.7078020745941874 -0.7332585669940791
Ni 5.955468512740939 5.665332185948032 4.806190521319064 -0.11616295504752898 -0.3465931907817708 -0.275336609328629
Ni 5.515880928847333 3.006711627674751 9.129265304183397 0.5289522820403987 -1.504462759993996 0.24191278245254466
P 0.020383425427084906 5.488440133309069 12.557954178978502 0.7494382620777351 -0.47231190783853494 -0.9407823304437928
P 4.02300011971576 5.917076781949877 12.571169637100631 -0.3170298753023572 0.2977280896499518 0.26799559558252556
P 2.2327035127581687 8.297355025652013 1.5988528645274092 -0.09775128530956068 0.7545375309775134 -1.2017757836768723
P 6.0114107490364885 7.869144448167566 5.828918127027344 1.1559947207870156 -2.376640859005829 1.111145425682809
P 4.668235026630679 1.2980121798317659 12.659587560854481 0.9655191710688404 -1.541289184793726 -0.37664604430309323
P 4.001007595772639 6.141444039819723 8.17258597998575 -0.24901674048717756 0.5062394138239154 0.5289977905663534
P 4.572967329137579 1.0177752084163885 3.65055681739244 0.04491023024912911 -0.2891002387716247 0.5928933036687337
P 0.18178552519646352 5.865739740280506 3.6286785167805977 0.3846784276892665 -1.0506080304193843 -0.9544418302087563
Ni 1.3014116837388845 1.096725287155318 2.4442922620747494 -0.07940877824663098 0.37625060863688753 0.27338822735300655
Ni 1.6065330237543722 6.632930716695346 5.070702747461672 0.4569914754313807 0.4755011041997941 0.062411215247369936
Ni 6.1292511524728575 5.445515730641848 9.178330570708438 -0.6610753599616099 0.7059742773568293 -0.36658274652982026
Ni 8.996447139799448 2.158748438426766 10.188838093038594 -0.09492152917024943 1.1220101363114547 0.7847258816354357
Ni 2.450770356720155 5.086627836831368 7.053917121743572 -1.4808271228529273 0.44597404127495455 -0.19916279307952797
Ni 0.5904176797790329 -0.0944762929835227 9.46762744666988 0.21520159170994552 0.40057067343949077 -0.5017543814693681
Ni 1.915235174552025 1.465430948249557 11.64689075800814 0.3083529163536496 -1.6222647933068448 -1.1235034330275295
Ni 3.7736215784332696 6.742838944348438 1.4389066589646529 1.212486485226157 0.029633763706032833 0.3677826803751924
Ni 5.5193166941294605 7.733372794789113 8.242084531328512 -0.9829340241111783 1.125285464628617 -0.5703467858267854
Ni 5.318319892453087 2.6792895420285636 4.888187462093147 0.07784734729678205 0.4698511050028682 0.2572671534214279
Ni 1.1976950858686253 7.807799266995636 7.492771319327616 -1.6239172413086034 -1.5620310453267678 -1.5923880603520706
Ni 5.166946782476897 4.74136515468062 6.90243613417673 0.6831022578546623 -0.43984350289718444 0.7802470199284757
Ni 8.202177981596439 7.020175005763074 9.13761085964178 1.0793303380547412 0.5963609505023599 0.5102768171180825
Ni 4.739107884086294 0.07092906258687913 10.610537034105752 -1.196628692258294 1.7320886935102233 -1.3429049217514357
Ni 7.772979281642987 7.055384800897073 4.572102495343607 0.6628761606157746 1.6842911144109702 0.8302107534411122
Ni 7.174893227583868 6.4374637747078856 7.126772569877819 0.16359672304946019 -1.6704616647270458 -1.9190950537328757
Ni 2.181765346213899 5.271116647534773 2.6898706112562683 0.2830900280218028 0.776886845206991 1.437826450921685
Ni 2.2145093678472683 5.428989608981374 11.477949011839959 -0.5295215242803074 -1.1649380460232326 -0.3524337087229478
Ni 0.8884326968270791 3.285072072933399 3.854553341316455 0.17690243901943084 -0.3383918859179011 -0.31448319762110355
Ni 3.6535239044025736 2.985779748950651 2.935582220990946 -0.03552647504138398 -0.037387953730154966 -0.483081230539897
Ni 1.217530057998695 3.3447401655111495 8.266841985116091 -1.0185857118765167 0.1792459995509429 -0.5028656122556758
Ni 4.009646868368597 2.606077825884851 7.018465281931387 -1.0731548053716486 0.2849407080772964 -0.17152523386791751
Ni 3.943216029351617 6.921172386644019 5.940210632671414 0.38233023917206416 0.42580502252624736 0.1340928000530723
Ni 0.6193596962426804 7.271439138546045 11.289887549163765 -0.5209070431384191 -0.4661844547845584 -0.22689445466684152
P 0.2531905183303393 5.7931172714806936 7.716112380284701 0.5647021859464985 -0.8372861722306547 -0.03370716244445808
P 8.557911135781112 1.449983602495609 8.193735426959904 0.7385835787514183 1.047154524653145 -1.4950723199180316
P 2.0392853384587317 3.5090767170531536 10.429149477500015 -1.3742811220698719 0.3374524048227672 -0.14444971780736413
P 4.094507551234037 6.0624033076432715 3.6857575471826873 -0.6700058296820203 0.39666799595097485 -0.48292542168832314
P 7.235059914067996 3.692921888350143 10.332398689769038 -0.32040084865711915 0.07412130459544654 -0.8221757989517776
P 6.439512542395908 7.523573544329239 10.147707721899955 -0.6961948293725623 0.7671279660480144 0.8953164848015097
P 2.465084534505064 8.672352035310361 5.982429751594705 -0.3247010186943698 -0.566330979799173 -0.7408386933341822
P 7.052220995927514 3.861464759393222 1.4349396645386387 -0.39658674909107827 1.387130210118398 -0.041950890510489044
Ni 5.2359521791195345 3.233889142107817 0.326160189795865 0.750157913852579 -0.9088191472736349 -0.5567271381608219
Ni 1.7241921203156954 1.0903614158411912 7.40804117741221 -0.9685980671044803 1.4015684970309152 -1.4090030989320896
Ni 6.983958957472567 0.6143909813320354 9.361681680770927 -2.2749812397807982 0.5681757463173956 -1.0344795002886378
Ni 2.8611040763250344 1.8918828490460562 9.341793223112719 0.9282410034436724 -1.642177730180688 -0.20399955234653896
Ni 6.136856975881051 2.0394485146462733 2.54556756287251 -0.25331793896569277 -0.44536751803920716 -0.6336949110661281
Ni 3.9882707878006327 6.678067063238132 10.549543588271412 1.0982965947445988 0.8869390593710919 -0.7218374696413311
Ni 8.07291524503215 7.189171143993769 0.11369754134156054 0.15256257672248563 0.962976864262961 0.15846968623553997
Ni 7.485916106382114 3.931657716067413 7.920400808277542 1.2667015378159798 -0.05414563280446805 -0.6101379496817944
Ni 3.073840498160659 8.37859863636028 12.573862950729445 1.9313952112564672 0.1465377106846444 0.5448375858120875
Ni -0.019379891873703408 4.851744780208834 9.880966327728654 0.7964817366197832 -0.5918743754859161 0.14751190167245562
Ni 8.829146220850438 2.326892434344743 6.079220426838195 -0.35576971507471633 -0.15944439144398345 -0.23713207323444968
Ni 3.940034093694554 2.8592728768870663 11.341778483336405 0.19225963820179146 0.08309599729023108 0.19979914111194624
Ni 1.3438284271559762 3.4245423865627966 12.575189210520408 -0.8957494585738702 1.8419832990505376 1.4454274031973944
Ni 3.051086485342343 8.57143662865957 8.510629928906527 1.9824773746442632 -0.7385558108372765 0.8290889811318432
Ni 5.599798815962532 7.755981762107392 3.2737449259148788 -0.8541708638011354 -0.546262234073756 0.8754961076414728
Ni 2.6657368531188497 8.540433153026644 3.7079150603821005 1.1183391152177709 -1.105720912233128 0.11724333259590129
Ni 3.5718451571941965 4.1946614690096355 8.994859798108418 -0.17414801620274523 0.9296497108657409 0.9733600072694978
Ni 7.350434544003736 5.915617261605754 11.267530598401802 0.97797488033369 0.4268113523035746 0.8876674528966843
Ni 0.8284418780117457 -0.201521685079633 -0.14384162238676526 -1.2694909276356587 1.3136833058821569 0.9165365705225506
Ni 4.453477033138287 0.11274205411006634 1.707093068930075 -0.5003649573210092 0.3081323157024113 -1.2856569958725599
Ni 5.928290612171493 5.76966522719345 0.23332653710026213 0.72653821755111 -0.03754453391267727 0.32723175553602357
Ni 8.031468493396556 -0.07622322333823228 11.161598430518477 0.35575711666922605 -0.3649750357230682 2.5660321745208905
Ni 9.128982465458325 4.817985440075204 5.667645661673623 -0.7124339169392441 -0.11014194566442967 0.5442200068327466
Ni 7.604907808475028 9.000227388144165 2.581789050369268 -1.5442107293158953 0.6210679663307368 -0.5446352399932942
P 8.550604468716744 1.260817074416009 3.8640928025470185 0.8201739380304004 1.8113010394753322 0.2415901090058033
P 1.7752209402974881 3.2823887311827127 1.8029554529733267 -0.6498663786196679 -1.073229367363326 -0.41633230714912167
P 4.683564522915847 0.960835784308085 8.295421387829645 1.3602380137132446 0.6080496996941979 0.7015964600041079
P 8.979032614451247 1.7926173349581844 12.53147159027486 -1.395135596921378 -1.611871880108295 0.07395264022806619
P 6.228625450685757 7.8919709837359004 1.1535568336729687 -0.035237483046055444 -1.0850312450942603 -0.07456867654551029
P 1.8379712497510268 3.1637596428398918 5.923095263667039 0.5832586087924472 0.8415284924467765 1.0574741614115981
P 7.027617652983725 3.8464888115143943 5.706494285789803 -0.529012702964689 -0.1867068267043623 0.8690835192469096
P 2.3056976606518256 8.534957685400245 10.611266794277816 0.8201543976463747 -0.28429124741875555 -0.4246158873141526
