# total energy = -340894.8056521746 ev
CRYSTAL
PRIMVEC
9.06154836489573 0.00000000000000 0.00000000000000
0.00000000000000 9.06154836489573 0.00000000000000
0.00000000000000 0.00000000000000 13.26249198737585
PRIMCOORD
 96 1
Ni 6.323003553903795 2.059037541053466 11.316738656203833 -0.16434902783445243 -0.02861560685416362 0.15288447883827863
Ni 4.629092047842533 0.07021340850094522 6.14074591059192 0.38420405915600925 1.8780666750366561 -0.7724120972650891
Ni 2.8238956647340854 1.6238113669164844 4.925424618982703 0.1948767641096644 -1.933176471526606 -0.05809767547368058
Ni 3.3594603653382498 4.0706288141956 4.615599402135891 0.31783205948867843 1.20099159721268 0.757341833195528
Ni 5.133358159950566 4.413998071255201 2.744579930771541 0.8455013610515955 1.320437593886855 -0.7344993813797157
Ni 7.151210963101626 6.345539625006827 2.699938212118911 0.3666195133050266 -0.6984342602260424 -0.4171110942966752
Ni 5.1462436819081505 4.584409552221682 11.347732776670586 0.4692615510479854 1.0120779926649859 0.0971272785723166
Ni 5.619890821657059 7.843295790831921 12.575442111225101 -0.13387862715973717 0.3964113998554786 -0.6884390966865435
Ni 1.7103672781252384 6.591778143765902 0.4052741317469671 0.5514651184309342 0.7216176403210411 0.017420766579608706
Ni 2.801912348089149 1.416175044739204 0.3239748248192223 -0.6836460461732743 1.5627064741272376 0.35211849147537416
Ni 0.5748220471420288 0.14235239605673342 4.704484131307444 0.48678773285720683 -0.3124211728857523 0.4611270948663091
Ni 8.562637756430298 2.3236528801571117 1.4612218146094882 1.1776950885785846 0.7414310755025424 0.1085414339465292
Ni 6.958861473232675 0.5901732164446617 5.030489649144032 -0.6021402761882985 0.8324550693905985 -1.6027575765118527
Ni 0.7112635951165313 7.473493996817134 2.6610523890692748 -0.4853175760695835 -0.21631822181289195 0.2635966951838815
Ni 7.75664020258974 3.9355573723532964 3.837157111108848 0.6820290793951415 0.010395741412027256 -0.9401547241621228
Ni 7.588938124622779 3.6739867135434254 12.687523498384854 0.652571950476289 0.704435986335432 0.2041021393626743
Ni 7.956963855132864 -0.2721219258755611 6.995699386322808 0.42299095011621995 -0.18823509042343065 0.7165517957623595
Ni 6.943529333181878 0.9796077614252027 0.22626595972481794 -0.45215137373026 -0.8151600297555767 0.350080635109739
Ni 1.8678751140371477 6.5381337766850995 9.196689709144447 0.2831378505406027 -0.08929081324703332 0.5047851978758919
Ni 8.995036727437347 5.154471567940139 1.5468045155100534 -0.3921778213901052 -1.4127903338886636 -0.288327108051026
Ni 6.207287579643348 2.12105477894215 6.891402775473717 0.06266061225401466 -0.5441935244701853 0.3526016017593798
Ni 3.5300983850170646 4.326653805327523 0.4279542814710447 -0.5361125472342638 0.21610482025050523 -0.29719484285430103
Ni 5.895117234046451 5.65824835642953 4.767653998164485 0.5167503406575682 0.4257605424415571 -0.1933029918646413
Ni 5.300761206817245 2.8352679080932757 9.268638404181875 0.10286109573230026 0.9250898594092004 0.16683657014299655
P 0.24749898015450303 5.443924611464136 12.59724600920987 -1.0468272232207132 0.08475975814589919 -0.8807334447810122
P 3.873268288009811 6.290363856230645 12.772854288237303 -0.07539862864597337 -0.959969702005521 -1.5205488669225815
P 2.0961355205853582 8.600496906035636 1.4864337609826161 1.8023242898980185 0.019778725288824 -0.8166471558240647
P 6.4132475153493536 7.731666574941988 5.746531398781122 -0.13955870826365 -1.3526517167255545 -0.25584816158671425
P 4.843334238871486 1.0637261160892375 12.64105134693656 -0.5214950544314051 0.18487003060593968 0.06768763315496085
P 3.975926570891299 6.241214017202558 8.146564977343774 0.5396961508204641 0.8686559447911877 1.1897893007389573
P 4.5365826992736284 1.1589267445606748 3.8560169119881165 2.346125464025792 -0.9729977388340728 -0.8399444357891083
P 0.3737145706542276 5.530734246030704 3.6522915541405787 -0.07971319686092723 -0.127551913610761 -0.015132227655748133
Ni 1.6180210374292154 1.2830337127259899 2.6996201517667933 -0.6243116700790151 -1.4066554246355194 -0.8728463287234516
Ni 1.8713003793676448 6.49232764905107 4.975676342307584 1.1850440727444882 0.5495653303050599 -1.5530249851734157
Ni 6.307934198759306 5.5569221211765685 9.08691629838596 -1.6558428863726062 -0.36015498862660555 0.3069807185964713
Ni 8.523772774942197 2.11842692987907 10.215885563627523 0.12436451702171486 0.8914747424579162 -0.35465925561935696
Ni 2.552620087487806 5.224363291469569 6.9620130797986715 -1.221070370240426 -1.2003521638564683 -0.2190469335979647
Ni 0.5383511267658779 -0.1514891554026072 9.219156006324082 -0.4205962246317982 0.6285989846004594 -0.48788019459043713
Ni 1.5313382645415545 1.291361275791405 11.31448414293868 0.01721353566480906 -0.11746290480587512 1.1905038103074788
Ni 3.967263730531629 6.946610259669627 1.581645263312245 0.39288898852451687 0.6145260514471611 0.20459990493469923
Ni 5.724325168043248 7.764759350039807 7.900877400733096 -0.48959820572280843 -0.05682189408505053 0.6298989343588055
Ni 5.564080744486338 3.0037311561336804 4.711089094004268 -0.670991076413425 -0.5579137022697552 -0.1017776328601344
Ni 0.8823519737554673 7.391985368119192 7.005088962871647 -0.07998804778886869 0.10017377870812426 0.2729773650678331
Ni 5.119947068180366 4.845345902637017 6.963404933647255 0.4449180892066144 -1.0908442522316117 0.05255334861668368
Ni 8.283886401676982 6.862183812356817 9.133161911121919 0.9788613967037012 0.7601440785310135 0.28974121478973325
Ni 4.402979228287252 0.3848086244746712 10.608905763346895 -0.05648353690902531 -0.1634206024829121 -0.7140038325295252
Ni 8.435205199967914 7.1311215100918055 4.773290281327367 -0.867826506911357 0.13267355110804246 0.6070461981303481
Ni 7.473276519653293 6.129847586218933 7.044969743945855 0.14470991344728626 -0.35270521721677967 -1.5905548637980738
Ni 2.2640913219101333 5.292904844273486 2.3003656066839775 -0.30561134905277043 -0.8655369395462319 1.5482337344323593
Ni 2.204203547917393 5.365206939702155 11.4645225444275 1.4200022782560706 -0.18629956396361463 0.40989683593642307
Ni 1.2331770729154201 3.151878412451929 3.8571169839752133 -1.795594941593985 1.910556420134245 0.5903160298598608
Ni 3.7021953140033137 2.728704097811142 2.581822739817418 -0.7623392864101194 -0.9331942336838895 -0.49117017819561865
Ni 1.048113068035146 3.206184272572748 8.236325958254634 0.28943551062385636 0.7821583780185755 -0.373294354222041
Ni 3.7514720147103073 2.894965389567655 7.349449553336424 -0.6572428735893971 -0.350164710183113 -0.7504134815068109
Ni 4.133289422027315 6.854698973301287 5.922472236638263 0.06949511867734483 -0.32273335344503773 -0.3808438844345247
Ni 0.5550878068331485 7.275644147012702 11.447852013664228 -0.33056287679178553 0.0893473775165816 -0.33104238753136533
P 9.544347797105965 5.365904678936145 7.931434754562468 -0.9298404867203084 0.661997357555247 0.5260088831413586
P 8.573538799267833 1.5742718813031829 7.975187535307898 -0.8832053033602726 -0.3867229689231211 0.7888432462379188
P 1.8099990038099376 3.34897615373141 10.386017042745559 1.0183527699301045 -1.2462826078399956 0.5646083406811114
P 3.8317845190071234 6.0098726841665995 3.640050308280873 0.5218231271947852 0.849835212540259 1.0720248055322634
P 7.077386527526069 4.046235125651425 10.430551835125968 -0.0730057029337646 -1.1230162089784659 -0.49268147263382245
P 6.400642901395064 7.573161968695807 10.07971948672722 -0.5052605948504136 1.3400214295560535 0.4251275368432485
P 2.5646085161445464 8.444719825885961 5.919620567327396 -1.566463884287141 0.4162762571002057 -0.3368551375584005
P 7.003598338144486 4.119706160835739 1.6572675101088883 -0.23740023929417178 -0.29588332313172916 -0.285737750057295
Ni 5.391412937945006 2.9202471098641816 0.5708549012116275 -0.22191731316722427 -0.16735541876094404 -0.5261343529756294
Ni 1.4389829622970383 1.0955140282040103 6.953816003031561 0.18758023044825115 -0.4905268881846648 0.37771793721103336
Ni 6.71361066325938 0.6845709917195855 9.163665801815178 0.1424447715621934 -0.3444931137196325 0.09829687340038555
Ni 2.6265895078392565 1.565609040943513 9.22767114344331 0.7667824097831375 0.0985231304785787 -0.3018377409429511
Ni 6.453054897880767 2.0102773486105945 2.5798726945816424 -0.38177462377891025 -0.22294061222541603 0.9112704370276048
Ni 4.1710760792447035 6.8902383664923175 10.509185234486962 0.02573545709289116 -0.02106221998693792 -0.3783416868379613
Ni 8.021681434472574 7.059426538412192 0.2875193090755102 -0.6545545281239565 0.32493601752331136 0.19007188652185328
Ni 7.640824551295866 3.72803885030643 7.924670308612161 0.5742216954011595 0.07732284225187974 0.8947058478007043
Ni 3.090667652379156 8.401260639311717 12.552896072418728 0.08453530083991892 -0.5484091052134298 -0.2842195136405557
Ni 9.314637542798815 4.7819875555713125 10.257609463665288 -1.6495547393710492 -0.05622925480637413 -0.45028089618042455
Ni 8.595585546752224 2.4089582976737796 5.887220094534471 0.08945099297398143 0.056788983964586065 -0.3686514561333909
Ni 3.7778773670200128 2.8608305363930975 11.534124298405139 -1.3745325759590457 -1.258438012255607 0.06382300799323203
Ni 1.2654361855518486 3.5022884926908855 12.8297898097309 -0.5661800560436056 -0.8264320031249702 -0.2845375591016067
Ni 3.0822857200227807 8.383635927492096 8.188726550173765 0.7129705061690044 0.270653859140979 -0.10201366013034044
Ni 5.367454203728513 7.788935561420141 3.6314164648763816 0.18059402893840512 0.693361216578509 0.14054986853232568
Ni 3.0372770086561682 8.442155407662336 3.445052127787308 -0.24875345952346192 -0.0914130017963587 1.289499766657418
Ni 3.398044438823056 4.475353816103868 9.331648787785435 0.6648659373522936 -0.2710001867368042 0.0719554072923793
Ni 7.287487590893548 6.0588050460308445 11.342865818974792 0.4120156820516388 -0.3538051351491778 1.1151419484367118
Ni 0.4490604402218225 -0.1437832145638379 0.2201113559881151 -0.3275942810817648 0.7709154581149047 -0.5274906098932076
Ni 4.607924270562 0.4524666763004836 1.5862865884505537 0.5291890806415531 -0.4920404966157139 0.4615914360972373
Ni 5.857738346511263 5.560755156189268 0.3334405183754057 0.23280516372432167 0.09797317151237965 0.44082437875321495
Ni 7.7775723796094445 8.82533204725335 11.463846552909892 -0.16097625470747762 0.29012662315361004 -0.5540488199977103
Ni 0.33552467452888285 4.852241741040477 5.772035127015736 -0.7742787181601827 -1.0920441860769838 0.17497076921435675
Ni 7.845905516798013 8.92075921443712 2.357156143401681 -0.03199120819461588 -0.020326370262177897 0.27881299791300374
P 8.43200647334975 1.6323835917912208 3.6878218857831166 0.08023898745741019 0.14269288301725747 -0.4470050536426301
P 1.7599158252870333 3.1992159417813397 1.6797347134433713 0.47832674657404717 0.08208941040258766 -1.040376325389047
P 4.721275180665675 1.049499484954633 8.163316155888632 -0.5843554414010517 -0.5535618530589628 0.5226037141145515
P 8.75353739854031 1.7163569616793617 12.476901395979006 -0.23861971352356973 -0.38297430051396625 -0.1546289723332111
P 6.118629389184131 7.787503836758187 1.4202935185294445 0.7981274997533222 0.21181750572906102 0.5528296028786286
P 1.859873766717494 3.0873511256305792 6.006277967879276 -0.19350996566912482 1.5238630188974789 1.2972326165253014
P 7.005057247451919 4.140103706494335 5.845655677750192 0.25786493490642687 -0.06796634073764425 1.4877534176591152
P 2.1505229346426176 8.35781957583446 10.501758389341788 1.8243447600331677 0.45452912993381717 -0.535055309614343
