# total energy = -340887.5431041641 ev
CRYSTAL
PRIMVEC
9.11377307015522 0.00000000000000 0.00000000000000

0.00000000000000 9.11377307015522 0.00000000000000

0.00000000000000 0.00000000000000 13.33892812247565

PRIMCOORD
 96 1
Ni 6.661511865548588 2.1327778142855163 11.096374054993326 0.14968859760880027 -0.12806407736048914 1.6559331320935675
Ni 4.854460297999695 0.5468209112604743 5.936236899462266 -0.4071516690911182 0.06415982250736046 -0.3942452454420952
Ni 2.9821267745085955 1.9422452761132767 4.6469889013443915 0.7719055899423158 -1.0988555525718624 0.16775728218505304
Ni 3.277732001506424 4.509185008195079 4.638759164332551 0.002982993887723895 0.8789748102186926 -0.2512440871557996
Ni 3.8646680959687987 3.1149782434140167 2.5107460305672897 -0.9175554987053681 0.8532681494812078 -0.46722215202045336
Ni 5.596339647100271 4.683449461576472 2.7420034633545995 -0.7625038370124417 -0.0668715650115687 -0.43785269771940083
Ni 5.5526026505113215 3.201531745519717 0.2810605566797817 1.3073823033647936 -1.3593784939264266 0.08693028343465674
Ni 5.821504522642381 8.025460903995974 12.142199556134074 0.10051162166351724 -1.0881461365741583 2.2496414754644287
Ni 1.8095578551217126 6.972081907799397 0.2833307975321066 2.0615714498639526 -0.7910032300037152 -0.7230692851659031
Ni 1.001175304497993 0.25664749296592065 13.632384375671936 -1.241824829178958 -0.11869214922728591 -1.0296429981319428
Ni 8.332048227449247 9.355743665010648 6.36687087573332 -0.36899007041973225 -0.5865923011513705 -0.24261340806399506
Ni 8.800222746051942 2.531487155142645 0.7431233791139942 0.3153550587030956 0.11465551726406706 1.1395203772810762
Ni 6.8071681855078685 1.4990607230548403 4.729143185226818 0.2175058143630899 -1.6384722563046428 -0.7394307572430621
Ni 1.057261463491199 7.551107247304653 2.4176670669992673 -1.0079845393219027 1.732555605844313 0.31436389843441986
Ni 7.810029538009395 4.294008827852279 3.680103256351767 1.5318637777147681 -0.6667628972646904 -0.4148261549172404
Ni 7.659123684806681 4.299832528794212 12.370601643842967 0.9428816361749826 -0.49051223289664553 1.3426727511359715
Ni 8.510340968493136 7.676558332540513 8.862677609612007 -0.028342812808751186 0.18608513395996337 0.14908053171115615
Ni 6.994164579759185 0.8512400681189343 0.3367375072656436 0.4712770388161174 0.11101560651863461 -1.2566361831601778
Ni 2.2046854831929577 6.611468138049125 9.285841026161462 -0.8360772395242182 1.3431147237693966 -1.0176639713931959
Ni 0.16537852471412323 5.1462012852488845 1.1784272526661865 0.7293708019038987 -0.9643963703183068 0.08479626781078944
Ni 6.389793837562978 2.3179787952573943 6.920942704786287 1.2424979439865826 -1.1760755506972909 0.7096339855966036
Ni 3.5902068223125756 4.212376763162298 0.28816747685899874 -0.7557852873416855 1.9902297648961724 -0.7331760345826019
Ni 6.300159880185959 6.0602853750346455 4.571490405878074 1.8372648105289453 -1.353614594859456 0.1963842018931263
Ni 5.57851310712778 3.1693965819496737 9.05144936684218 0.11281280762837347 -1.0738220066420023 1.2644423094681576
P 0.4025517075505863 5.723722852210449 12.369361259338746 -0.38024970249395157 0.4637532196352464 0.05921481979725931
P 4.073792731044863 6.32546882778494 12.870852086491258 -1.239497466597362 -0.3130788610744092 -2.334734705690347
P 2.694723943203632 8.734494215233125 1.4169675014514602 0.6628123972573746 0.36956522619691196 -0.5813685908585858
P 6.589595082868154 8.192498135394654 5.591958656422982 -0.07619258530217846 0.017104006670138283 -0.2941419149605902
P 5.158021848819601 1.3311303419029372 12.525426419432272 -1.0650548019723336 -0.2990581213152849 0.6687174498878999
P 4.320411428210309 6.356847548196641 7.920789221182036 0.843372744744367 -0.34478287704590943 1.0246419453729256
P 4.800342713972776 1.561645002191393 3.390248820111936 1.9151288699962759 -1.755121921180603 1.6362459380772854
P 0.48630454721582256 5.8453370390166475 3.5069907838765726 -0.7353951537211078 -1.1667200776243196 -0.24908204650747423
Ni 1.0172064311910463 0.0615407521289605 4.5568044720786505 -0.7102867886892541 0.08252186995431594 -0.26264461568325737
Ni 1.8930126744101083 6.862625494164622 4.729436648717163 1.3003094556784123 0.4952196656746439 0.3544458540569702
Ni 6.514251521542702 5.8262892534632185 9.254054920097015 -0.8489499817218281 0.8067005861343138 -0.06328179077778134
Ni 8.899717805806382 2.3960656022534597 10.08361605639971 0.255439870404702 0.11834839273462198 -0.26237644962353524
Ni 2.526811789597713 5.890331736278502 6.867173266887666 -0.3752527634999925 -1.2654792353731046 0.03493383576270758
Ni 0.9923167171496998 0.3489472289431213 9.364514760138217 -1.2543702699441366 -0.8773804691483793 -1.3644695352960887
Ni 1.584055769978896 1.3194920537920622 11.410172195637927 0.8165880204513549 0.41364036213925537 0.6261021863205346
Ni 4.417336403980986 7.040535456742843 1.5108867548893519 -0.05771946619865543 1.2406223242304248 0.3240656991032161
Ni 6.123425594323715 8.297169818208591 7.761228929146051 -0.8156912196686984 -1.2645032446130804 -0.30315954507816817
Ni 5.482271664331509 3.3293068428685544 4.960293986870121 -0.834011615244441 1.0767561495696616 -1.234132602741023
Ni 1.1243661740318187 7.92564686218681 7.050130436948895 -0.1821462039168734 0.26460482473342173 -0.5493742973401764
Ni 5.816036258847139 4.53875920155435 7.239076267243216 -1.298185981577506 2.436941712778416 -0.7402571097990993
Ni 0.888830736202031 7.712275208896441 11.501144054890183 1.3184814986017486 0.008338344662366286 -0.7654894020033268
Ni 4.9781341975021 0.2773239097530325 10.598472231645093 -1.1278737941810832 0.7703876106358926 -2.3839165667316364
Ni 8.31340144790747 7.495403866777115 4.525177857041565 1.0562899112955098 0.25340098559780233 -0.20701545635472737
Ni 7.6418986538516664 6.4341779120343645 6.700743924147556 0.081792190877143 -0.28752466675438876 0.861550186984342
Ni 2.542624185738956 5.684287556473758 2.3658853429902162 0.01468074194062633 -1.374749062845226 0.4639139135828269
Ni 2.2269868857045556 5.362516687215693 11.210448417403184 3.2441410929260193 -0.0036820768372775297 2.4006919864177627
Ni 1.2649461224345164 3.0994119191435594 3.5436062782495177 -0.9832189023414487 2.297925250171481 0.8134237637907604
Ni 1.3428050851057802 1.1553165471128923 2.4255103800362434 0.5491043315082414 -0.31918780218562454 -0.604734776388352
Ni 1.4816260753210082 3.5028604219565658 8.236854868547063 -0.23024357364473252 0.03237713077912489 0.09291863980760771
Ni 3.845911951151116 3.1654867733360756 6.632582015939856 -0.30750239542789626 -0.44533975012506527 1.6488044914685862
Ni 4.651323411779421 6.9514847808373155 5.73371154740976 -1.8465140970413554 1.372605791249978 1.326828070794231
Ni 8.570008840272225 7.591608854481418 13.640788185747924 -0.888852988564353 -0.38005764108780354 -0.064788714340611
P 0.5221225864519614 6.029180067812707 8.018055963439915 -0.5029874825455208 -1.2901949929522294 -0.4987433625571862
P 8.667526211287386 1.6353116292863044 7.921402578104402 0.5145055104874494 0.8588441009070886 0.8705333643195587
P 2.339049838415063 3.27159843228276 10.340176968522206 -1.9955046401418668 0.33338620517319356 -0.15011205829946406
P 4.377345168091778 6.31006655142834 3.609954545631795 -1.1972053906973703 0.006448326728505024 0.10363628333542797
P 7.3425658937000815 4.034886034141712 10.333934034022636 -1.0204345921597975 0.5851532547119986 -0.8985506754680913
P 6.686702334098673 7.898269088118628 9.9704084138014 -1.9448819328889926 -0.35334722167615273 -0.2668596822058694
P 2.7679531091949237 9.001773835771596 5.739820509446345 0.383661556388978 -1.4385311902981937 -0.2218419798445986
P 7.240792390697623 4.190622187030224 1.4352023384539963 0.6587775650663685 -0.24860022177504926 -0.6459073939719199
Ni 2.9090981115231296 1.6569112712775127 0.27714436842508866 0.24981223980527942 2.0932764942767177 0.7857579224443758
Ni 1.55076315723886 1.3566489062807363 6.675640036440896 -0.02901052829973714 0.5061517392061153 1.5695476654187872
Ni 6.8877157112117935 0.9469301276491854 9.08693110785491 1.1057509941401151 -0.11944034024722011 0.25169017355428264
Ni 3.018764141936722 1.5050758132296074 9.123733434574193 0.9329702905985418 1.0828751179832061 0.05620225822318063
Ni 6.847241445354006 2.2068363336190866 2.325735527450946 -0.38268762251148286 0.029626821727497366 0.714301309165286
Ni 4.29951354673949 6.7440097386728155 10.351594703326674 0.5840628498612973 1.6761702850760487 0.35404938994949997
Ni 7.565953583508738 6.58178457941395 11.563209760343486 0.5152591008240224 -2.1891866126124815 -0.41673417057323076
Ni 8.034401515301195 4.278588323949695 8.324971382720904 1.003510305600633 -0.7018923939779719 -1.7164849255346952
Ni 3.5552008202500307 8.825458783466988 12.555399796048597 -0.6751850598901146 -1.331362468329475 -0.4051924884822183
Ni 0.3296788900832845 5.008446606473729 10.196596766050519 -1.7008220221864578 -0.33064258098978544 -1.099948528525725
Ni 8.837643897957387 2.759067180527654 5.88325398017286 -0.2541643461263881 -1.0238101935002497 -0.19482662759801928
Ni 4.033591878376837 3.0159115309902034 11.533197194503297 0.3422937920754685 -0.8323663663315342 0.010985295366910112
Ni 1.1919903696329868 3.6191886204273622 12.598723938721006 0.45981094715804677 -0.37870678348686393 -0.20497220067245345
Ni 3.414128728105761 8.444448389760462 7.949521301916839 0.38033634867048693 -0.03722160335561977 -0.2992884921585362
Ni 5.89273777234841 8.113126286406706 3.352712834666792 0.1508921309985982 0.5647541222303564 0.2285715852589483
Ni 3.44171611895276 8.561059115194011 3.422942657966393 0.05318146911898583 0.16696795351453825 1.080139721329914
Ni 3.8350756750635435 4.619142679344417 9.28909646587423 -0.522016988373146 0.19387737631087257 -0.5011578855359498
Ni 5.362297956663884 4.937504997503447 11.42435140365899 0.5382025969940731 -0.1426550878007866 -0.31669357500886103
Ni 8.082339961239489 9.037818807955238 2.473850743363488 0.5470564478402772 -0.05288244982132828 -0.16706077033866068
Ni 4.864986705805537 0.49644544242410016 1.417274635601293 -0.4375914736382141 0.02430489529395169 0.23882231645267904
Ni 5.955413189214883 5.6095090490738135 0.3195060966695346 1.0172083719130158 1.1596698556457576 0.24824643798005633
Ni 8.0108332983437 -0.3338602891320467 11.302927694708329 0.2712750376647457 1.8572379112167627 -0.18734548872962573
Ni 0.37892333969134256 5.113692456986167 5.636990720154105 -0.3313712316256938 0.3530528303641855 0.11349980639306906
Ni 7.656125253492289 6.396373981663253 2.384453744084262 -0.7260286249045432 0.26962027567014213 -0.2143785815880179
P 8.711427255790193 1.623263221390786 3.7047268482217453 -0.22492781785877394 0.4332226551465571 -0.13902983234337346
P 2.0082927889868163 3.568333767131605 1.5113542914438451 -1.8320282447203544 -0.7107292755433114 -0.7670410627611628
P 4.921738170227163 1.0808843630866474 8.146763399765842 0.07401074715951125 1.0155412686232381 -0.2613801471485369
P 8.634917131521757 1.3819851951986941 12.267905827013712 0.8968537473816425 1.7995361856299201 -0.15700004366854897
P 6.544345199962521 7.999213237778808 1.0863462472407954 -0.06637405654985988 -1.0072193790211041 0.9067895184381157
P 1.7826084283841581 3.5020584099332632 6.0134287339505095 1.4673537709568405 0.030070594133135307 -0.6320882287006404
P 7.330444575620627 4.256195783708176 5.760403054371638 -0.7568733781995416 1.1851826552048816 0.8445971040697713
P 2.764426079046992 8.721014944977853 10.364374035816155 0.18372151882379328 -1.1331278434911711 0.26020309612130027
