# total energy = -340888.8085329715 ev
CRYSTAL
PRIMVEC
9.09636499187884 0.00000000000000 0.00000000000000

0.00000000000000 9.09636499187884 0.00000000000000

0.00000000000000 0.00000000000000 13.31344964027902

PRIMCOORD
 96 1
Ni 6.0909716054333 2.1803805405860937 11.572862423780592 0.6995943419724145 -0.42245821754120144 0.08074060968417707
Ni 4.411536991599273 0.2636053857844142 6.1351835787474895 0.5743618205234495 1.119809272005394 -2.214362854767793
Ni 2.8487814539114704 1.8713679191030181 4.420810735898881 0.9104957636451092 -1.412409296400161 0.33164531122268687
Ni 3.7799854536125066 4.089207291494691 5.013525342755507 0.1539319462661865 0.8607094362506016 -0.3248591415387889
Ni 5.015863108606413 4.49207620889082 2.713134637094776 0.23186079753318134 0.28013454493790463 0.19950834934440478
Ni 7.327831667866499 6.297613733196128 2.6177574289238557 0.7665718364342281 -0.4601994408457171 0.70166073758314
Ni 5.088124633585412 4.559298347560859 11.72929625430348 -0.588637099495541 -0.19609855233190743 0.6696564167624016
Ni 5.665616473315609 8.070122355537848 12.241570794249006 -0.36352056266472876 0.17547367699270427 0.8280335432841353
Ni 1.7005927592395096 6.357395045150052 0.6764948590613173 -0.2412653786765329 -0.46859794932205745 -2.1027057580104174
Ni 2.4491872279796456 1.6715662579545167 -0.005317735083424268 0.8234117282414076 -0.5171288070429094 0.7134433320403648
Ni 0.5767022752326922 -0.10460092246204643 4.999826216796498 0.6685043054358294 0.7618206949024879 -0.332215324793544
Ni 8.724332939184569 2.5538772948204427 1.3296966558097294 -0.45031663451436643 -1.1140566857923329 0.37254024966483584
Ni 6.909035015042597 0.4292410993219998 5.030100739383998 -0.023749022790481678 -0.28905113070124416 -1.645145040339128
Ni 1.0771460826268984 7.203056826711298 2.772232812023786 -2.5032010981272825 -0.24374906433033502 0.6593005274493743
Ni 7.666234645241712 3.6764415287842165 3.7510117112455497 0.2795671024702089 0.9813628229693163 -0.4272795501892448
Ni 7.656792618186299 4.129868043843144 12.754138237153283 0.00851215123606921 -0.5819537739380944 0.2677199733236357
Ni 7.900193157635951 8.673720763330698 7.246816710676109 1.1321233134860567 -0.09038378920089594 0.5302082659346868
Ni 6.787416612604378 0.6836309575439488 0.42435271267500657 0.5881349630481418 -0.09889362644412002 -0.7842242594086687
Ni 1.8413772031090911 6.467752147497134 9.378194222408432 0.8363209801039081 0.6889188645364394 -0.7960706172242935
Ni 0.02689158437756956 4.840867235300022 1.388246319918468 0.007663944303160994 0.8419848632579048 0.829666450901868
Ni 6.527851832232309 1.5998050330603426 6.975835082368349 -0.9953974466855116 1.0484115369886975 0.8818017381445266
Ni 3.541833516870921 4.506721356828407 0.6172475037433781 -0.20900574731187876 0.1885351381623527 -0.9090410334764538
Ni 6.250103417868169 5.637599668565443 4.880803916980259 0.017875337618524053 -0.9460957722369061 -0.46341383401795677
Ni 5.493513244136021 3.0423248158170777 9.030526597098788 -0.10664498825476472 0.5284100363836836 0.7806434840359459
P -0.07451105608767228 6.117032691670061 12.44275055472207 1.0492785129746833 -1.6211386501222016 -0.004316110876850632
P 3.9310669828642917 6.26160122345395 12.336495913070548 0.7860104047748141 0.6200274408813645 1.756090969962092
P 2.1494256098832323 8.321973418238443 1.2922887636491514 0.8689372234770324 1.6096090522160473 -0.0074297168051678485
P 6.385157151675216 7.684964061144501 6.12429341035564 0.9414857842687204 -0.024155771310597107 -0.804907241679317
P 4.665653049229345 1.2005837581008416 12.941205896688228 -0.42973032572258246 0.5214261488666826 -2.1104782028669846
P 4.099977387866182 6.271043250509364 8.149362611881887 -0.6103809189305359 0.45488419928039076 0.5919877611353288
P 4.718502930917157 0.779684935284159 3.717674442502406 0.201052296792757 0.14589802021811646 -0.20018506369645522
P 0.237961822709352 5.3730682728058445 3.8723499456362664 -0.18168134846531292 0.4354787981705855 -0.46209717208906226
Ni 1.3159256685658085 0.9733019777477134 2.536571460068108 0.5910333676418595 0.33198726794313793 0.02438485660226768
Ni 2.1019334872856303 6.361270096716147 4.875665380290854 -1.0267170827343997 -1.0983598438823663 0.45473713217956524
Ni 5.98259751069516 5.45825573270367 9.192803932612426 0.6459953257000358 0.869112058492 -0.3721543270803268
Ni 8.289808670966824 2.5230315204997242 10.501383376659977 1.496578729260229 0.3106728227360779 0.04234426929416578
Ni 2.423790176400924 5.255434078315865 6.992143955497106 -0.17862842057160205 0.6182055571812771 0.6485859692453475
Ni 0.9291300284403097 -0.09550091873734984 8.965263815488225 -1.7660300834526745 -1.0195236503097538 -0.24580954640378957
Ni 1.1513906152148368 1.1843103607962813 11.214624822133388 0.01694639804635146 0.20335600522526912 0.8070587408046811
Ni 3.9935863007369825 7.045935310980906 1.3585576032484712 -0.21318301861801997 -1.659970792498051 0.281508799577612
Ni 5.478185868810037 8.366745727647636 8.079346979465491 1.6302848353978439 -0.7263759809416329 0.9323288003598008
Ni 5.747092616220554 2.5798928992313104 4.538262093448771 -1.5299436778739197 0.35290704881494056 0.7848685778608869
Ni 0.9238541366367071 7.305609247735118 7.2572011211640275 -0.25368869204155015 0.8026652397226758 -1.3716848220976054
Ni 5.1662351213742665 4.810658206541809 6.916963406932286 0.5778891169504177 -0.9927502388706516 0.4233660740674515
Ni 8.183262945629586 7.000244268688672 9.45400060089754 0.45154305072229983 0.5002937377634415 -1.4449211529849373
Ni 4.64404918193011 0.6870148053903974 10.243567827311757 0.3427421924667968 -1.0998256297946156 0.30796210867313417
Ni 8.15949414341784 7.311858450612833 4.929757825462066 0.14463689411750574 -1.475632466025865 -0.7318624579775008
Ni 7.549428219982986 5.922807102376057 7.059216913778216 -0.029837137966090548 0.7781816527590146 0.008237300308127748
Ni 2.3118775956082986 5.042724674978895 2.7572820262161972 -0.18263317085562095 -0.9071278756141409 -0.20782535385053238
Ni 2.078428479664063 5.598594454679499 11.577069492675706 -0.9581791857640014 -0.5463648210898913 0.21507355077251347
Ni 0.9556186438404661 3.151126439718613 3.9719478672500688 0.06047543167723778 0.25449087622787137 -1.1316314614513026
Ni 3.9964698484986068 2.435879245723317 2.093127296156203 -1.5811119732176189 -0.8318991968871285 1.3359542014652155
Ni 1.069050317617922 3.1751590365205407 8.22189429890669 0.030970737349901502 0.5571958502671243 0.38103543162004055
Ni 3.4201332471460955 3.2948399131757125 7.732691779600229 0.6893495243159548 -1.1884986069519918 -0.2554483550451343
Ni 4.504228952769463 6.9151659651729895 5.9478366608015625 -2.5560889472652493 -0.5875358960115623 -0.00623029718042798
Ni 0.6264029952956643 7.750512468621674 11.072596905143886 0.2108685115522304 -0.47632668542488293 1.3839790660839264
P 0.3755971049540936 5.428073993040991 8.076351546412171 -0.5700410816609086 -0.7841414698868754 0.038089607782869885
P 8.921169185284839 1.4076352222967075 8.055968411319906 -1.5306093364823767 0.9103751789068452 -0.0997012099470799
P 1.7799221599622994 3.5532130697093813 10.540391319455475 -0.01682195665334522 -0.5821903154289328 -0.5823589797963132
P 3.958428849321596 6.052412113441108 3.7838159329892256 1.0862273222848906 0.2862820525965392 0.08331505527957264
P 6.818207808734025 4.0752625636758575 10.63550291376318 0.6402172855656781 -0.05469970553572515 -1.0440920836777374
P 6.488555534660648 8.021174814511665 10.120498554627549 -1.774516009436499 -0.25862263900805776 -0.8026292442784178
P 2.4478955441242807 8.205321631187752 5.8327558160172215 0.023039141207650646 1.079909864707295 0.505988988376006
P 6.894580890773761 4.383338259545535 1.6813957901665388 1.4214657501754744 -1.4503276687124893 -0.31341927513296347
Ni 5.56206345212214 2.988710839454261 0.5764293842773335 0.7336912836561236 0.7571176329998639 -0.8200009027876457
Ni 1.994114270823386 1.021703736863178 6.967380920571333 -1.2068454848902956 2.022898201663471 -1.3061324901180924
Ni 6.928846898401642 1.0886711773082163 9.362284679711015 0.2648794185510471 -1.0911088187469078 -1.2132832700958396
Ni 2.6583945307228456 1.5285895900768862 9.346427895931637 -0.060961370174720815 1.5368290921398435 -0.37572944602609487
Ni 6.5408141526118495 1.653036962085657 2.502768457427819 -0.016865922517403212 -0.043025611631906546 0.8365292394599722
Ni 4.450087387226286 7.148560502926154 10.32793570470699 -0.9960389369242524 0.07363922275270543 -0.5669411025793462
Ni 7.9856989903150275 7.4951593053273085 13.694614161880892 0.9578973928575246 -0.09214730885922195 -0.4993709688388561
Ni 7.77812903330398 3.7536332836900295 8.055955676408656 -0.261338238167008 -0.7354625166239334 0.5992827521348453
Ni 3.252059707740638 8.468388512153593 12.511833809707657 -0.8521751735273453 -0.18815641466669533 -0.07101361220440028
Ni -0.12190857648741653 4.893507900588727 10.194428352980307 0.6706100389249225 -0.3025777044327692 0.8364495352619724
Ni 8.653299423504686 2.07487180087922 5.930835554282711 0.485088490777913 -0.08372591756474612 -0.2953390205924849
Ni 3.6711565406154354 2.6785702686890365 11.372775136765481 -0.7201590534976435 -0.10080447031358769 0.13613502729408167
Ni 0.9377897680903609 3.4621129724454502 12.666310102444104 0.32393662972451953 0.08941499752972343 -0.5352995644146652
Ni 3.2173388818538258 8.523021281416415 7.920916496785894 -0.8118636183924921 -2.262098984501491 2.2021056346669945
Ni 5.563437003264113 7.668481447440832 3.6672159952200545 -0.46470247092239325 0.9621908780265559 -0.1512158328866041
Ni 2.945521297586149 8.166998644690207 3.589532126958078 1.6321275450335373 1.6829441134647725 -0.05962593919274892
Ni 3.623800863495512 4.755133993491481 9.662435622237075 -0.37470691829885144 -0.6991377140509701 0.568528501671124
Ni 6.992648803764519 6.109009697582513 11.555967744734332 0.49736987924842735 1.0119995740185668 -0.8677745706274991
Ni 0.4205977331292701 0.25269156684309974 0.33141060146240403 0.49107196205485754 -1.177143586950489 0.4718352253124326
Ni 4.545480968854529 0.14513159678844656 1.395875441393781 -0.43195715817057223 0.573727015152928 1.8196437550130724
Ni 5.905614972188455 5.857031285769418 0.4858041172757267 -0.2498325515202536 -0.004450579572185883 -0.740090759424564
Ni 7.742189294483232 -0.028219653693648834 11.349170069126949 1.2115662874047328 0.3490192837247602 1.2346262545479896
Ni 9.380080808546479 4.413128855505532 5.933098729939153 -0.9208506245168723 1.3218609565969428 0.4592321918364413
Ni 8.179733555940281 8.716964883389883 2.675377444511339 -0.3981641208805272 0.04769164964900819 -0.27135114231831975
P 8.548363754804067 1.536821800563542 3.65740465573839 -0.5294911852630043 -0.37233790384604265 0.0046650095758371275
P 1.918814559874727 3.1399379105489045 1.5086403516036435 -0.6512056662563817 0.5291847097661789 0.47739600722966175
P 4.535520448983934 1.4106643119011897 8.055342581395617 0.03247329003735698 -0.6809754413196466 -0.21892532041843582
P 8.44426495169988 1.6294318944471249 12.546329045738037 -0.5485188913184166 2.4014923708318707 -0.20445592315766725
P 6.233839116928786 7.819763096726548 1.4296647994863019 -0.7794304375644513 0.3649264418733199 1.0714982436048321
P 2.047755536281739 3.1890764752438376 6.017625793725009 0.26011105062812623 -0.7288321557916093 -0.22506845720169624
P 6.938670972794558 3.712244822127285 5.993835160236833 0.18991247812585357 0.5818936101241203 0.1868803761677491
P 2.4634048467538365 8.679778942539663 10.339105131509822 1.7899734816421495 -0.636830114261 0.8618448354066253
