# total energy = -381172.725005077 ev
CRYSTAL
PRIMVEC
9.19449428594349 0.00000000000000 0.00000000000000
0.00000000000000 9.19449428594349 0.00000000000000
0.00000000000000 0.00000000000000 13.45707178120103
PRIMCOORD
 96 1
Ni 3.0272320525367693 4.770563322213018 6.701069668923645 1.1768234846069086 1.435468749322786 0.2887413127703092
Ni 2.385851719747691 5.595291064095765 13.108008387435298 -1.5697656949668641 -0.42194631090178947 -0.7910073437687732
Ni 8.601835504654161 3.7857226581118697 7.873665582643986 -0.7989921617464626 -1.0016920214449716 0.01895700071847703
Ni 6.561614016852715 9.609717571252112 1.0865952121026887 0.01762825460472448 -0.7698124548587129 -0.20666912875890214
Ni 1.5190223888653998 4.5680361981918445 8.667108138518905 0.3903052869577407 1.135683005812857 0.03376166983147734
Ni 4.5983228621281835 2.7117873450905243 11.243571837237647 -0.6799932799120354 0.3625941941957175 1.1869364046711945
Ni 5.457980487524638 7.10602001918139 7.571352451832192 0.34448154375540674 -0.6769316102675761 0.9725935614171186
Ni 8.63226008600369 7.19163914928922 10.356696670073022 0.7117993686790386 -0.11374226142117831 1.5548982909367286
Ni 4.734235875578993 5.0983562353868 11.108893644359592 0.4376763200425366 -0.6516658937222519 1.5612959669329562
Ni 0.9099303614027459 5.978949724105369 6.619008808076095 -1.1674494995911764 0.5098723825908121 0.35687914608881116
Ni 4.890514693710736 1.6602957924421622 9.23172639747516 -2.1795912556145622 0.2047927376717957 -0.3250566022615757
Ni 5.069880886810344 6.16420958799526 3.326318835329359 0.6932298332069674 1.7528382673527487 1.6871465815818942
Ni 5.58636321021532 4.580467154367294 1.8736954058697481 0.48593644060050506 0.49483734263456075 -1.4650978850431284
Ni 7.947362212106325 1.0397593780330716 3.4598808166100046 0.9794558357545905 0.795867757184868 0.779726114427999
Ni 6.243714379451704 8.769460328644264 3.205259527279021 -2.0175873309735186 -1.0021350225196612 0.834035526503841
Ni 8.581800701764882 8.68576284782687 1.543324356518751 0.9089099072152284 -0.668727477190229 -0.4139211266044678
Ni 6.1769255734913004 6.501105050439525 9.802548181676666 0.6502474161081705 -1.2405315642888313 -0.5662605315725538
Ni 8.153585522800968 5.9492607022928485 8.287389319279406 -0.49376673527820125 0.24346392898974842 -0.04613818911895925
Ni 8.152895935735023 1.9529473487353453 13.382963300717469 -0.8864634052862539 -0.30822358986463694 -1.1649064214543485
Ni 4.085830949211481 0.8015088856476414 7.011295581454812 0.7075717037509361 0.9611760636087964 0.6440690552116004
Ni -0.11418182637930493 4.866838871113265 10.439673302544149 1.2380445362009194 -0.7088577695522115 -0.02288487501797349
Ni 7.644679462627183 5.883391345753705 12.04421368208104 -0.9876851656429182 0.7389538176066435 0.19776025630504654
Ni 5.137855782524174 8.476882328304782 5.794373011135474 -1.797254074463963 0.8881253663697093 -0.5314171986411235
Ni 2.4859613727345953 1.6007522479212957 9.80950565544735 2.2033256231170246 -1.8962526019170631 0.9975229776689466
P 1.0399248789288984 8.769920053354895 3.357122229840447 -0.46676398143711223 0.17821138763884148 -0.23652040779237973
Ni 5.29601027747529 4.379981208061319 5.443573634542899 -0.24122218414342328 1.6627208444393624 -0.9676025359604304
P 6.210715339722644 0.5488285540449402 7.896811802374812 0.5624663546374442 -0.6698029696425948 -1.1003514203910985
Ni 4.106582922649342 8.64909520490698 8.987506839446905 -1.1582184679112117 -1.2768599664062203 -1.214183927533238
P 6.145921739006377 4.654317331882981 8.31368465327805 0.37704585084467324 0.16315834996046094 0.38663812251879864
P 0.05852111676442405 2.9432587368929966 4.213409153658558 -0.30338785903889043 0.6701930059921619 0.0065164609622791
P 5.962730636314323 1.7965214186962009 4.090316942937813 -0.2426476037360402 0.022670702124638377 0.12678161110363972
Ni 6.367968774240923 4.2234541385858355 13.120671964314326 0.2881383890789876 -0.9365137849754258 -0.7562645409709491
Ni 2.0111484971011704 1.1335340245074872 6.2715203688494805 -1.3747187238279228 0.042789327251384374 -0.237762507729597
Ni 4.041835294404138 0.671257841732957 4.359674248143348 0.14720748305815937 0.6263585253057148 -0.42296858151871675
Ni 8.07519326514425 4.527010365015175 1.3330067375512318 -0.4900088108976658 0.8758030973589304 2.0127721689730627
Ni 5.26801304259789 2.009318792752861 0.3693226046333007 1.9361908328728978 1.2018578018677173 -0.8430621554824834
Ni 6.7902810879203415 2.702169904144134 1.9812709881572923 -1.2467564621526206 -2.0718455780964513 -0.30086869216146245
Ni 3.474755669347166 5.607611686340663 1.855151949941755 -1.1738080948193526 0.13435479546520732 -0.1644457013133168
Ni 4.841029925858466 8.588668988941702 13.020295670995255 0.44897966087049773 1.4244230330315855 2.2347974684730607
Ni 8.255055960931339 7.838710873995905 3.9416033546442066 -0.08586096162987794 -1.828114511488245 -0.558822844347586
Ni 8.599913855363726 1.1539366071652701 7.36103207451641 0.7297248428092077 0.4180662591210929 1.0551344575348278
Ni 3.8368716294166223 1.1159173735961252 1.7978647343006633 -0.7095393690002683 -1.9428175941607961 1.1182666101086225
Ni 2.5782097331697176 7.998170987125211 6.8634701813021435 1.1228010076438664 0.08087404993824782 -0.9300572307168047
Ni 3.542831704497335 2.7901060467935417 5.465885913648641 -0.6952131821855834 -0.6054351448894865 -0.7496408650068445
Ni 4.343304370647215 2.979034513874265 3.021583874741963 -0.048865872462767454 0.44593290362437393 0.8705845292724683
Ni 7.016171421735759 3.9195944938474803 3.875798359564552 0.35907872484329123 -0.0396950045967768 -0.22252820727834577
Ni 6.496397469402669 1.5481137685540998 11.818053949585194 -1.3741865054735365 -0.8949925258031877 -0.676169535290571
Ni 6.31568888014802 6.724374953404348 5.398156510930288 1.792711449398603 -0.7972443258174206 -1.5674223915456682
Ni 8.94399021778804 2.1837107644834464 1.8358140897137922 2.4589148746153975 1.8699041938305216 2.1648032986721106
Ni 1.1574580984487 1.6055149959234278 12.216638951499547 -0.986468776737314 0.47657222577678565 -0.27353940821889017
Ni 7.809803384191458 5.062672403347658 5.649480654636628 1.6077133778552313 0.13776125004359502 1.7823892415369884
Ni 0.5234968030397767 2.368327013778455 9.56173426430476 -2.2613348526419568 0.9304364684330944 -0.13971965932154645
Ni 9.278531889713877 6.30945501307187 13.794844460712682 -1.1227467573671632 1.8816528497260174 -1.4200534432089804
Ni 2.537662013692105 8.113515917022411 -0.2195442939098738 -1.2790744575590358 0.34994513797313925 0.5855708018653915
Ni 8.110003620233194 8.311813573705784 8.551673102578421 -0.3836121912082813 0.5967023930021789 -2.0759516298450245
Ni 1.3633504073516896 6.783118576928718 1.9230018005342937 0.48083948569357177 0.08433604034491927 1.8752883409605703
P 8.150689257123997 7.31441323051021 6.554213368460985 0.20230339559103866 -0.45103114408288775 -0.6507968608537372
Ni 3.70760623528153 6.260567887343418 9.003816952730654 -0.6694728399966856 0.04036220586713049 -0.00558495028694522
P 1.3210833174563186 0.33237361019050365 8.268576464670984 -0.09205294937320276 0.6283950961197693 0.1362484129434944
Ni 2.3045907798966385 3.811320129999778 10.943869023332814 -0.15855298997796563 0.3448201580417481 0.8864911732003958
P 1.9504556408037277 3.299554582125871 0.11992930471160784 -0.25676887362877066 -0.3636025808555738 -0.20655368622696038
P 5.783870140396409 7.283961065678044 11.746072093293506 0.7127992706984627 -1.7147224343176337 -0.786008347892285
P 8.254062955556376 2.5393078281561623 11.326656045291061 1.6520024295805935 1.0848852064346994 -0.7247093918724874
Ni 2.7015354840434638 2.7504134152777016 7.892344197636905 -0.06293057808594968 -0.4997898015438296 -0.7839807759392948
Ni 6.223265824322858 8.806734808182188 9.960709112773731 0.22211888765506907 0.8254932933607849 0.6218228422188904
Ni 0.31472661744824015 5.390777929324667 3.863390389624634 0.010040414955137546 -0.7165438253425594 0.21489383066153958
Ni 1.5735825175230311 4.123969711205389 2.157881591341381 -0.08722056098156591 -0.4846796853752685 -0.4133734816311138
Ni 6.937972248457506 4.040538870720161 10.505182234910158 -1.4433342681137917 0.7730651574680556 0.1644277035911878
Ni 4.068830329412363 3.849707143337427 0.03693796104974189 -1.2253923946545477 0.6545432152700469 -0.18586916129441536
Ni 1.9127030475667486 1.7705469725455758 3.8659473784651612 -0.5398342190602252 -0.13916944324503128 -0.6869445144188879
Ni 1.3517837336322256 8.742290598246 10.92383146209527 1.0266746595322385 -0.5189424632128805 0.06523428651846185
Ni 0.2481318153157227 8.814835157583499 5.579692604664071 1.1894105772433 0.1836245882346128 0.6387070195687387
Ni 1.5550188337077704 7.433261262702415 8.727247486264748 -1.2316401753364723 -0.9006872621951197 1.5474516048506963
Ni 6.844942356014312 6.83912224117773 0.7913269027565965 -0.3774842239336725 -0.24458955795375945 1.1695914856348437
Ni 4.142754062881752 0.23376449865909735 11.05502494166675 -0.7492870812118514 1.2771610425864068 0.7459860418630765
Ni 7.379188442238052 8.520786038169998 12.43219467381999 -0.13086195182060043 0.5299802090842809 -0.06465398853495961
Ni 2.058877116558832 6.909358982467862 4.828760792781158 -0.037587728445786873 0.43262050278618397 -0.8449853406471253
Ni 4.575410182550358 6.150785626444848 13.28798325605178 1.6138238616283433 0.4405459282808477 0.9752582527334752
Ni 1.3996410760088636 0.8024209794735324 1.3701184745415922 1.5692183071038266 -0.9299096493953469 -0.33602055747224713
Ni 3.0409962103730477 4.793972504478324 4.181004078255634 -0.13809755033709117 0.06018206880653507 -0.1041060238829949
Ni 0.03839896618012571 4.272497570715901 12.949834584046334 1.167362596304325 -2.189939688728422 -2.0351153125549533
Ni 7.076478109276272 0.4258080603790527 5.605866571339109 -0.00042706023508958706 -0.5048551318818789 0.47530467191827175
Ni 7.017918375636155 2.122282348648995 9.270414990222985 2.0349361066646114 -0.11198259841759425 -0.9192459990339136
Ni 7.612682622767298 2.6723705484010627 5.944284642024984 -0.2502824945734787 0.845348380413499 -1.1514112151813913
Ni 3.312822237274668 1.5244563349450528 13.063640355612344 -1.4100641932067521 -0.47784389340035777 -0.9967246501373673
Ni 8.374713108614253 0.4958884952675709 10.422515456893995 0.831616118429071 0.11716697083201112 0.7726632940439467
Ni 3.003344756572407 8.036539611474435 2.945053502163298 1.3502312802095198 0.3701930895888979 -0.058136499131416004
Ni 3.6457364837248734 7.075439131430247 11.321138429314074 -1.6285280006077374 1.305144158062894 -0.8837470347963554
P 4.779031451382832 8.056013550216745 1.7105556561565554 0.395600473918409 -0.32089192936092475 -0.3323914453600921
Ni 1.0748639569368188 3.6546091706400423 6.118688566598046 -0.48830802615647523 -1.1220983251498868 -0.9133846551571303
P 7.510421458134643 5.923819536806556 3.0541231897603915 -0.8067468659912171 0.47393427393330634 -0.45185749663892505
Ni 4.158200813158938 4.018821475389974 9.275206241157175 0.17065003035181578 -0.9689585357676926 -1.4253905391511774
P 4.1314448350002415 6.5057850479937445 5.685585594510708 -0.46844419735301257 -0.6295826886699674 -0.2900032102018683
P 1.8355244631460952 6.018605577644357 10.551057244334556 -0.2917111940319105 -0.09472561110935945 -0.4552891480282933
P 0.22463160755771122 8.372120261246296 12.77187790690952 1.8699167922360116 -0.15037199682907007 0.6332297985042514
Ni 5.0198996162705924 3.0394791188279666 7.164666181067106 1.492060015454269 -0.12710659854322626 1.716402136012902
