# total energy = -340863.05701223074 ev
CRYSTAL
PRIMVEC
9.24002073635384 0.00000000000000 0.00000000000000
0.00000000000000 9.24002073635384 0.00000000000000
0.00000000000000 0.00000000000000 13.52370434326336
PRIMCOORD
 96 1
Ni 2.76946526886134 2.7437595306747617 4.571769232491357 1.0988159575831784 -2.448139638376764 -0.6341872773215143
Ni 6.799722151604942 1.0282387674840563 0.8758504945434775 1.6431503785066026 -0.49538704449044363 -0.8307730537024854
Ni 0.7590861982400428 0.1485795363192605 1.0556862496131834 -0.4003757838198653 -2.1930139567783717 0.5451394333232225
Ni 5.036735400971946 2.0662072769920043 8.656848083327981 -0.6271491395278102 0.43824813338560653 0.11939148928715569
Ni 3.6405867207003277 7.949439474063458 5.952120249003954 -1.6440672338939168 -2.1029975782192234 1.7287840546170223
Ni 2.2677228931354594 5.728628167115367 4.6682609229064544 1.104327631430027 -1.4501896004727282 0.9675840240176691
Ni 6.605422991796397 4.777497374170131 5.998466345911302 0.9215903308963741 1.7441955040760866 0.7180679752965697
Ni 0.8087605506811089 6.551341149378696 3.1249898576139308 -1.579114740281932 0.9897803576090504 -0.47291431730922423
Ni 5.509242350521574 9.053317052760791 9.149164713718086 1.2342513877070742 -1.33571148932679 0.21979203929410535
Ni 8.975238876025855 6.492084895248384 8.850277757168389 0.07208267689886295 1.112707113742974 0.7918421809652427
Ni 8.263249064391488 4.503891114844906 7.697016886688826 -2.5152855400956424 0.321428261480369 0.6898912557520376
Ni 5.078029054442765 1.325268479829762 6.022552308431416 -0.19213699658099814 0.36126159142722297 -0.21301666824348478
Ni 3.8869533983670217 8.022250838876628 10.678371543175313 -1.0618231824089133 -1.3124435199377849 0.1890527012287196
Ni 2.2396886696782055 8.59378309257635 8.813817558638403 0.1994283880360888 0.17998442037886422 0.7759375939198443
Ni 3.7330885700841656 5.674694165032313 7.3449674698025085 0.12109407380055918 1.1159945262449942 -1.688265525677686
Ni 1.9007185023976043 7.299561083022255 13.092839828478333 -3.211251284176534 0.8223478057532675 0.5814364679820438
Ni 6.188476288010929 6.4683195614540345 7.884238190476193 1.3152786753937349 1.1079752554849434 -1.065039889573998
Ni 2.9833070729059075 7.808261194497415 1.7897680272541245 -0.08169191785385285 -0.3507118409358347 0.0376031550647546
Ni 3.20535401552333 2.294269473225337 12.659499479584804 -0.09419313564465713 1.4289234920051004 -1.1581948137621279
Ni 2.6124033933417636 1.5728271201945399 7.551109564418293 -0.6297305271017413 3.109084129187465 -0.629200108519568
Ni 7.023034977087772 5.270822090842104 10.128983923601384 1.9867952852933266 2.1383124514704335 0.43545797223497906
Ni 9.020126897632757 8.823397612323467 11.907608485631565 1.8252418179261403 0.9218638962727349 0.49418865330696826
Ni 5.381194140676281 6.144235067868105 2.6901757253843996 -0.9293216381023608 1.2674016492067979 -2.2222646261133727
Ni 5.721393230738627 2.312536994575037 12.837011369394293 -1.4591804911174289 1.8817132706503077 1.7348824542052768
P 3.3531851101484444 2.224978556380926 10.22663893264973 0.05195556713168471 0.7255326591047311 0.28610361803714596
P 6.620077664968185 3.6126356574313125 11.204768142707605 -1.3588850992297759 -1.4508002374735338 0.22759739427113707
P 3.8504091156467064 7.611217748477002 13.262561456654067 1.8733474151841158 1.3899267990269288 -1.0355519074172101
P 7.287068574744665 7.278253594791397 5.815450175642524 1.2237751707660989 -1.06552788495401 0.8507932055781542
P 2.455258357633949 3.7576393056563218 6.279840690820086 -0.9907265235724034 1.2881584221381752 3.1591062267418626
P 0.25085085981692656 6.603159186672129 0.9371441732856302 -1.6258355413772387 0.9181820765457736 -1.096943166040498
P 7.691707570670851 3.263002506014366 0.49806761940783545 -0.6522011974004317 -0.9044618987462036 1.6936049356127285
P 3.701247458009777 4.348122842253483 3.4971085999284464 -0.27881325502331983 0.7613872069094952 -0.6840260552205123
Ni 5.6966484547272485 4.2445144877293615 3.8791529727102607 2.0629158797069893 -1.581512551090147 0.17272439638234124
Ni 0.8481489118391776 0.24577808833438466 7.142747764065302 -1.290861680001951 -0.30946414713995735 -0.5212960510467216
Ni 5.6917327636002675 8.362911929984744 6.5178035694642436 0.8642801843209954 0.5948555696014272 1.7537988314938053
Ni 0.6171844250363251 3.4955738324544026 5.006299696078785 -0.10690364123279009 2.8297587104144166 -1.4919610279825595
Ni 0.20294504737906352 1.3639010072769526 4.827272442839176 1.133301392954558 -2.1153607277702666 -0.08010426165175882
Ni 5.008313096636246 1.7139222395723448 3.127735067827889 -3.2164670240495186 0.4488292513355625 1.054668830752319
Ni 5.438325189996057 4.556827194669101 8.728983078610145 -1.331032852904198 -1.7018283519637851 -0.6495696733148555
Ni 4.562528287573889 3.6287964540123068 5.863378164130584 -0.05736696795524314 0.7649088469095086 0.9204672730355246
Ni 0.14670566007762206 2.1719408363266623 2.6006353027039397 -0.33336152258284524 0.05130842046598905 -0.9401133294012262
Ni 4.308547832672923 4.199210665181268 11.36375286657967 0.04623871925256552 -1.0686983122621916 -0.5238370723010204
Ni 2.6743484935584503 0.5437170187381634 5.414863852889823 -0.2606612667046414 2.2230400708268165 -0.8875730934106649
Ni 8.118310096312888 2.0156828426267235 12.338271076463817 -0.2803410045217559 0.3194677953198885 -0.9925921160262325
Ni 2.9914475313323545 3.8709127220579274 8.496226951751801 0.924945363411536 -0.2626325314983993 0.6826587425593404
Ni 5.239369059646162 6.292749924040957 12.165640689703922 0.11466194502197027 0.8283626444887798 -2.7618319646654563
Ni 1.1627827120328593 2.6854642387196486 9.009491633559158 -0.5715508334372156 -0.9355511639518405 1.3788926526999543
Ni 4.887490583146778 6.159222381792846 5.024408289068742 -0.37045097123597487 -0.26831132705073146 0.6082281342535912
Ni 7.439565879932046 7.717052948041729 10.77755392768097 -1.5196921753492407 -1.0129796785436491 -1.2208060608354458
Ni 2.8185297799219913 0.328284083091968 0.07734267107007077 0.15864992056714614 -0.5077406809597901 0.6436291394607044
Ni 8.096309606513374 8.792462022298785 8.628231738553058 -1.259873459150553 -3.2161556634566866 -1.0546631743253643
Ni 4.319700537917783 0.5205698423430528 11.853229114540389 1.2459355089132218 0.314706112265187 -0.15583636237775098
Ni 1.0536395849804274 5.255576056331732 7.3212742081713 3.007878052560084 0.132728572715694 0.04802409328776246
Ni 7.704153878843863 8.589292442411478 4.084510589550328 1.1818250515865583 -0.7075763317366266 -1.4988179030033928
Ni 5.0605746549336175 8.377418762821886 4.2133506691880696 1.5627406697992827 1.2222008843004435 -0.9147725366435923
Ni 5.2547352144284325 3.497135395989101 1.6747889029915406 -0.822012791011352 0.7605665107804127 -1.853199222371015
P 3.979723208357406 0.19394157099912027 7.726714313910848 2.3669822528701427 -1.883919534273007 -0.14495442535792455
P 0.4649513844471246 4.707956976761006 9.790702137878977 0.4210222564256233 -0.21852037167053337 0.1325920471378297
P 6.261564853451561 6.832034504746016 0.4037824459873296 0.8734723923432248 -0.624587292337905 2.056031236772014
P 4.619298976077964 1.236739839439536 1.1308833878267037 -0.8835994534748977 0.20500459657228567 -1.1586997784230046
P 5.474398231649689 6.820308918204401 9.858348331000453 -0.4714259056891558 0.1025628477655911 0.21412069994094093
P 6.411668993221859 0.9744618457565628 4.313926448847765 1.5948558051662727 -0.9328175670707612 1.4285720222029525
P 2.8143994905728182 3.804403051509045 0.4750941554059338 0.7054315174794819 0.8984504024448011 0.7147425104677626
P 8.227952184494749 4.172710285195968 3.7381816696127212 -0.12714516509064552 0.5425451902334849 -0.1738410264852877
Ni 7.125765529624931 2.406618887535405 2.778269160789511 0.8402635096914239 1.3098549332750022 -0.17741074611441704
Ni 4.198221982943323 5.6617211756671235 0.5865962597980614 -0.1675801331772404 -1.1214313809898493 0.3971423644842321
Ni 6.242890771181584 1.518264796689239 10.88948938905403 0.7066142249336734 -1.3309732033108561 -2.7564205638418984
Ni 7.630723432629363 1.6339221384870117 8.103958495827124 -1.3511044268430925 -0.3473362395953825 -0.5790021475089383
Ni 7.777103843970764 7.992470251466369 1.593782563628523 1.3283141684214541 -0.38287042794625026 0.059850139388413055
Ni 2.9298073518058754 6.259338008410955 9.495926066634533 0.43386723070909156 -0.8376895783166606 -2.1729590950100253
Ni 0.12483268256674185 2.658889938567025 6.9714830523967 0.7009408286979799 -1.1253530846417585 -0.2291691096336311
Ni 9.20225694989575 5.89207489708747 5.346366653842042 -1.1808657729970824 0.13299391056193868 0.5477372759573857
Ni 1.701272650939194 0.7979026021034494 10.888989503922506 0.5421011607175309 -0.24615587399961475 0.2789693209852098
Ni 7.96482410888756 0.3439523865581726 6.188893936956304 -1.5110373278877203 -0.8486954425088609 0.5738272881762182
Ni 7.282106683513109 6.174680936784272 4.005640543022946 0.13065086425105885 -0.336820170555407 -1.1129256575116833
Ni 2.0073021436564766 3.234007320381913 2.5462429955834818 1.4077340024116787 2.2131603498192596 -1.947158644738311
Ni 1.3781121594448025 3.372940274865521 11.36423981568191 0.39744498332631556 0.3643695409285854 -1.06355610593962
Ni 0.008304006796649216 6.291567201363789 11.85776042079729 -0.47395330009669995 -0.5100233063463797 -0.37453054062198726
Ni 1.2634527399058906 8.0379773544746 4.9890023769252 -1.091046598050405 0.19563446821129532 -0.640297246873994
Ni 2.3568983349897614 5.799785568184686 11.52868723991915 0.3837551445440488 -1.6287941097849303 1.140959423720448
Ni 5.57104885042453 8.610442850286775 1.910886221412885 -1.379291945020902 -0.8927114430784948 -0.14848660688089912
Ni 1.9196328252113808 5.520413535808265 1.4037060933783048 1.1822595680208154 -0.9152276219031399 0.0179324161087046
Ni 2.8024151834455737 0.9436648560456116 2.698033439170836 -0.9897410197306826 -0.5549618187302829 -0.19991715474704924
Ni 7.182822658777384 4.931842683540587 12.769392896335562 -0.02484971205382817 0.8472697658059279 -0.11549369689464627
Ni 0.6925432636158645 3.737089499140524 13.480726666484939 -1.2167105506098335 -0.16580710043721766 1.2806939954403298
Ni 7.4204482766581314 2.6918860532558355 5.224301357539456 0.07732129958998296 -0.3875552350164293 -0.1166316671538314
Ni 8.150687129600367 3.1092023578779178 9.675723937618487 -0.14118904477822133 0.2829455320241385 1.9796807857357324
Ni 7.763650373517975 5.191533471367255 1.5237432050899662 0.29686342765681134 0.6516293840573617 1.1389508779308513
P 6.987885937525677 8.80016819974221 12.587363560300547 -0.6506698483575697 1.0176932819692344 0.5507243836101676
P 6.365515088749551 2.9660005137314065 7.110695979514043 -0.8147257704316355 1.1063402909846818 0.7774617438738547
P 0.42371779111225527 0.1208132734685529 3.049838919504987 -0.26602510211971603 -1.1625662033569462 2.151937755563352
P 0.7111009216223074 1.4180105697573997 13.038920610428741 2.4696641427121016 1.197552232513828 -1.7276219159881214
P 3.2217273325853775 7.438919078467969 3.8249232899579133 -0.6079255154115079 -0.1330980402399708 0.020864245043518907
P 1.3846910543365507 7.61605951943666 10.53537205548685 -0.6743041999470581 -0.2720797929542282 1.1612688247017613
P 1.7790643870257519 7.485202343233093 7.038330907711086 -0.5519932230202622 -1.9057805960121563 0.29327185365081104
P 9.019517056252342 0.9177271933340572 9.685555319872448 1.493477464627086 1.979821682188971 1.6897464810985867
