# total energy = -340895.12549124303 ev
CRYSTAL
PRIMVEC
9.00539930173528 0.00000000000000 0.00000000000000
0.00000000000000 9.00539930173528 0.00000000000000
0.00000000000000 0.00000000000000 13.18031215780574
PRIMCOORD
 96 1
Ni 6.353444137099021 1.7404824870077389 11.160482043461302 -0.2097007164963743 1.3506267158757255 2.146127062418846
Ni 4.554768761188942 0.22268550863154518 5.999862451113379 0.29478366230964714 0.0978441021336831 -1.067141509298033
Ni 2.833008498883767 1.661198953442868 4.7536241827555905 0.42365660872467675 -0.3394264978300025 0.22517541509320577
Ni 3.422582971732304 4.237373470355927 4.7894620689635365 -0.04753558368711813 0.2872120206099763 0.6409287098104058
Ni 5.115066681604564 4.545331102945419 2.8142340428664974 0.36477191857332664 -0.5222892681979262 -0.5098402438012961
Ni 7.235937226061205 6.119510885007398 2.6129840856825286 -0.10118627913303863 0.2863435019620939 -0.6044370426422752
Ni 4.893173648092704 4.52571734373321 11.35584066856234 0.6011581147806873 0.24344567415730328 0.2419798882450542
Ni 5.454516194802455 7.814975381977564 12.49016433976231 0.15259008752631142 -0.2616549980764784 -0.41464463503405363
Ni 1.7902283115661608 6.09513326967799 0.6157369582770541 0.7212018929398611 1.060810939094315 -0.7483658549491627
Ni 2.847408132024411 1.5244069413062955 0.31236397436292324 0.06716852742669722 0.4547355895176685 0.7505842027567202
Ni 0.5925768729042538 9.231884874378379 4.628569807789446 -0.05887954794502763 0.4435991132848747 0.17215232592895513
Ni 8.607927787814408 2.1942195200229606 1.3058765238136452 0.24905633547586137 1.0253297154685697 0.27087163157873995
Ni 6.949826691657581 0.6970268947585825 4.652742100019663 0.02958979784197485 -0.3782568404336389 0.8808859111984765
Ni 1.0112793013101191 7.653391506153567 2.8240922532473998 -0.04349535217947348 -1.050771552580442 -0.6799341445393259
Ni 7.620170588920399 3.8698991551982584 3.6035761842092286 0.29104862074724713 -0.29114503711579537 0.5917949283982323
Ni 7.369883532086182 3.7658597795423123 12.504530652926332 1.1999202185253721 -0.14258721067732863 0.04589727675274677
Ni 7.921329145198955 8.808198858117583 7.052363066205852 -0.27029261914681835 0.989072018688116 -0.5599502730838097
Ni 6.901944984710237 0.6695982502183867 0.4397561509321389 -0.3203113742671064 0.038893591741403985 -1.590157114139023
Ni 1.659271798038179 6.4115379666114 9.137725322061144 0.5122298270793952 0.5882846012521287 0.5557953703751718
Ni 8.991431713347527 4.758065645585462 1.5537870558287161 0.16478868647503234 -1.1144549496720162 -0.17213304265524548
Ni 6.455304206175833 1.76052850537614 7.023511568609857 0.39760464883263136 1.1735417285318435 -0.439508745265585
Ni 3.4885295092488366 4.249134521563983 0.5684261936318469 -0.25796675059161384 -0.11345018410205622 -0.4668328870018347
Ni 6.092395628355441 5.749713176885198 4.771219832032328 0.16004654380435662 -0.11837924597255742 0.7627082397137639
Ni 5.220141678155553 2.8016336884635025 9.056047252878951 0.49410303557169744 0.5091434748445877 0.4668827664031637
P 0.06743783160539425 5.375385753022069 12.54227948482061 1.099712758365835 -0.8390594620809936 -0.04375374804718271
P 3.7177529376177847 6.1924005852202635 12.636901014111025 0.5721141621398533 -0.5570079026260343 -0.2869178864083252
P 2.4486310496391765 8.297358589489589 1.2786270867152874 -0.3780634934759102 0.7832595815025543 0.5556902122558752
P 6.463706243524314 7.846836483948545 5.801709450675544 -0.9515922765751029 -0.839819994396102 -0.4325996768505775
P 4.76101041108702 0.9840019474745907 12.484140628312794 0.0922871768711959 -0.10988072158324302 -0.2515970996198441
P 3.8788054948956296 6.311163788383998 8.192868943879276 -0.5696397324574318 -0.6394919773638793 -0.15278497714593686
P 4.873478840288709 0.8800949511852281 3.83249162792939 -0.55128874075407 1.2381309252671384 -0.4712513277845045
P 0.2396237637749079 5.686288151113119 3.5548227546302313 0.16777785101034332 -0.834379540106821 0.05008071870647504
Ni 1.6897370631506232 1.1312042009561192 2.4971287258840937 -0.5694900942534451 0.13822944792926517 0.021330900267292296
Ni 1.876058770267522 6.283472186190451 4.907596695270975 0.3290148155783753 1.2648369738034153 -0.9784819018770956
Ni 5.634723235939055 5.713133245792455 9.272032744589522 1.6776409560843042 -0.31924025269011475 0.21576749151574454
Ni 8.58814292601954 2.400200013347505 10.211195909468378 0.5454001431837768 0.12252026472412447 -0.18711563210700677
Ni 2.303977324099363 5.339598297049013 7.01440350797293 -0.004047944817128513 -0.7077714784665681 0.11953521395387157
Ni 0.41288404005554025 0.07879003769488495 9.045028246555692 1.5143733342394887 0.7786768472278783 0.7620670065853391
Ni 1.4776148876485184 1.1156518767322967 11.490635283181343 -0.2124137445521632 0.3663456908183497 -2.7825697114334402
Ni 4.0982490598557355 6.833332849063855 1.6464841313341676 0.1485925363311441 0.2993643397017941 -0.1217281078401323
Ni 5.46770009906631 7.7864462776688965 7.866642958701223 0.7104371982241894 1.0703597591250147 0.8285143395752957
Ni 5.29626431664077 2.8589620590534577 4.769177407519321 1.178407541264577 -0.3164128105436486 0.26609966411139335
Ni 0.8197794897180047 7.586544428728301 6.97131717603959 0.9989928773462537 -0.11048518793646134 -0.8264134911822091
Ni 4.8260203870984695 4.582361303992529 6.901316407853941 1.0108171236746912 0.6391196816261251 0.2655507335864588
Ni 8.13426180661892 7.238999061750898 8.86362799004002 -1.1274590752411677 -0.1711159142446408 2.0288724169690346
Ni 4.447208274489849 0.23785150123452095 10.36370594517198 0.42299634943285863 0.2723538725512213 -0.7678337338657872
Ni 8.331155852264345 7.272283016777678 4.748971993587075 -0.5274098772539433 -0.38658567201430843 0.34600440815783634
Ni 7.014638548889109 6.073556333464743 7.11540446197681 -0.27974887946371174 -0.21810231029650826 -1.2874716804837958
Ni 2.5105972007591073 5.170891150546935 2.72500314546976 -1.0539208968427012 -0.3968443736278391 -0.41430884896118975
Ni 2.2780958071223703 5.106916795430529 11.334330372302338 -0.5602181820332158 -0.5466476424376328 0.2845514430586777
Ni 1.2199704197599506 3.3365724050491967 3.9121146650398533 -0.6587497971522268 0.29362435189422337 -0.5404913930282498
Ni 3.8261779426292617 2.578137693914097 2.6343223788199617 -0.08653381932718646 -0.28176102479773407 -0.14555040707071062
Ni 0.8755472246461254 3.548721596748564 8.108238004336348 0.598048365507112 -0.25156856037475384 -0.8529477900273117
Ni 3.9817372064638343 2.467830560493368 6.8957807890349585 -1.6922340234071307 0.53342574443072 -0.8368524271273459
Ni 4.024062582174295 6.879809713753575 6.009022743065014 0.4035855490064146 -0.24715140514366468 -0.778394282990453
Ni 0.60905765377398 7.145306889646297 11.478469889554265 1.0718851946306058 0.41142432832454306 -0.7283706427741585
P 0.051740520456265884 5.760186456023765 7.728420889189582 0.9723359368803577 -1.4766369960309795 1.2010471330409638
P 8.498142967540742 1.7796829892348949 8.054620758710282 -0.675155749314076 -0.47874866460281423 -1.0069841230818461
P 1.8044388313259705 3.3225059716747842 10.037927528328566 -0.20891473025996926 0.1536974616578772 2.064137410818916
P 4.1090105117650975 6.116169881945997 3.8354967296048326 -0.33439587738463056 1.1521954016455835 0.42518178711995164
P 6.759623657534043 3.8044929416269664 10.324165038859322 -0.34790728160750406 0.9673811639782437 0.20692572485439847
P 6.449495723764503 7.604149983944035 10.306055181294697 -1.080947304832874 0.23286918419303765 -0.2097025162685872
P 2.388141783969567 8.462661695136655 5.6107265489910425 0.09214910863143486 -0.0642662661782377 0.6152508454283275
P 6.8021201358271615 3.882173514154292 1.537615160147685 0.43442078921971633 0.07280207156339075 0.336706270685362
Ni 5.344992531102323 2.8479664667678257 0.24758813872774427 -0.3931882649324906 -0.6309042356948683 0.24462246807422386
Ni 1.4297692022975235 1.1459010122666449 6.748781157032895 -0.3728513531473514 0.8912225172377941 1.3338037307811157
Ni 6.798761121967587 0.662080543060282 9.315356819058767 0.12516721542866832 -1.3444961774979556 -2.0806163823105455
Ni 2.765702146105048 1.6702583849247241 9.091581657137654 -0.1885652200693398 -0.7022783165624809 -0.35055500364299624
Ni 6.371770124241742 1.7739555554153519 2.5452364683485302 0.4179683000906479 1.3709371452983037 -0.2764568389760013
Ni 3.884505912517911 6.913435873945673 10.530120317066423 0.12511887868923616 -0.5799403430524915 -0.45974101315205984
Ni 8.553490150331486 7.141353519446958 0.5681623354385881 -1.365829648868409 -0.0859216396644843 0.5057876709984773
Ni 7.569983499806698 4.001621127648663 8.288913326225488 -1.0459039400754953 -0.4891127814459576 -0.4582220054043722
Ni 3.031352413782254 8.487885817980272 12.26016824815167 -0.18770415762062512 -1.1502462483390126 0.7843754402745523
Ni -0.020938453417955586 4.847093020962826 10.213529208371906 -0.026472849479547957 0.029002300769621018 0.19219381796086255
Ni 8.36992409533531 2.4573392705566266 5.629258759772863 0.6279914329234474 -0.11988385554254193 0.3202674084030484
Ni 3.5643999965596085 2.5585779670964124 11.361718492546641 -0.15289502036123992 0.36478194587565566 -0.31233246982668794
Ni 1.1243871138470087 3.113949934211263 12.694564385547027 -0.0515912418137305 1.8499020396769819 -0.006657100305201438
Ni 3.0068217066683616 8.336793232093015 7.911916702072876 -0.03609571728129267 0.49146508372821807 0.736841656359647
Ni 5.624574151167632 7.838074230636571 3.5375161786641964 0.27017794794582506 -0.05954417811222003 -0.04572835527505028
Ni 3.221213242740474 8.469442760649416 3.5200394006554108 -0.0022386595225316287 -0.706865421712531 0.29995826453205116
Ni 3.5217324156838297 4.40940360912123 9.180890901506451 -0.787542010927992 -0.12212585749918323 0.03870075900430754
Ni 7.260233792798827 6.008978616609485 11.650459504023676 -1.2427249723957243 0.6400015700104462 -0.7934714890385496
Ni 0.638790779940624 0.13551594708589781 0.177338821527285 0.08436612225190632 -0.3999664641965886 1.0790076646079996
Ni 4.668416897671072 0.3204580270626172 1.4746926356446792 -0.3366769601093234 -0.6190033704922243 0.24734449499107727
Ni 5.632507907763572 5.41433410407478 0.42717921056677105 0.8640125324819055 0.7142925674145376 -0.14755946708093942
Ni 7.998865631340883 8.802156235329983 11.333222708214596 0.05909012129393695 0.2793544722387705 0.2998461644342191
Ni 0.16591997548454804 4.8381686704672795 5.792008834778669 -0.8722847997930268 -0.43534150126177285 -0.4108967379558472
Ni 7.938619511446633 8.81019805671497 2.4382784428483792 0.5165793622973426 -0.3176520822673884 0.5479576194983079
P 8.596626011959806 1.7222285430577169 3.4020497612732785 -0.36647810263115593 0.15143334821404889 1.2177703593329157
P 1.9429598800873111 3.170197656910738 1.6133226497349764 -0.7802629607680756 0.18312913665543298 0.31341516136790537
P 4.7436299908484685 0.9513033433884882 8.086002773449817 0.06398010239638657 -1.4766282542802311 1.6080373368535534
P 8.44475896175104 1.7622755527990823 12.338696228733113 -0.601303639219616 -1.2091862172083303 -0.4840883316481727
P 6.42237146171346 7.704091903015246 1.2734588881790674 -0.2255646801118244 -0.8054142632227226 0.5104583370012693
P 1.9205274309607672 3.3108259690585147 6.1049095309271975 -0.017305581157983103 -0.7715854875987357 -0.39562541361907355
P 6.901683828136704 4.078067960501024 6.0431595093853625 -0.8020967688137154 -0.5097494838597028 -0.5530579168393507
P 2.2062327224054616 8.397984918891437 10.195538222075234 -0.2840847878349043 0.35621708702478005 -0.493410380380047
