# total energy = -381170.81290031713 ev
CRYSTAL
PRIMVEC
9.21405182387477 0.00000000000000 0.00000000000000

0.00000000000000 9.21405182387477 0.00000000000000

0.00000000000000 0.00000000000000 13.48569621486706

PRIMCOORD
 96 1
Ni -0.01907953653190599 8.025853527036293 3.697818178984562 1.1335081096487254 -0.33202712004213786 0.019920393073010856
Ni 5.488174735130968 2.106359825084901 2.6069739879462057 -0.7811674748602159 0.7939057483624907 -0.2109610712660367
Ni 5.873570869056709 7.387642246849658 9.249650032016714 1.2373056011523658 0.3495450743212432 0.9241370085776279
Ni 2.685601175390725 5.545062289362865 0.8897631799808666 -0.4331288098811702 -0.8984372898186784 -0.3943820281302757
Ni 3.5628433807286175 1.0977344587828677 4.008555617465731 0.15671593676922688 -0.21140921454704883 0.487102178773832
Ni 2.7644181722970487 3.179059705823055 5.106830941074224 -0.27385488257678 -1.513358262711413 1.1199123732421616
Ni 7.346252727314561 3.4642253870545026 10.501985218843984 1.3934759498307678 -0.40186085300582397 -0.47030670448304807
Ni 0.8778881103511181 4.272122640473177 5.6556447289667044 0.30452917173218524 -1.851643962068753 1.801755304768426
Ni 7.915966748324017 0.02984984138154375 5.609739402769955 1.8821035641101909 -0.7898387773819687 -0.6337887563315149
Ni 4.292494908436689 6.931998183953398 1.8657864677052005 1.1969269402250031 -0.6429819927950088 -1.4375050630265243
Ni 3.518910782967412 7.5603412149365425 3.947802768611179 -0.027714435196132915 1.2328383094096316 0.976509351531757
Ni 1.0098139789511937 8.24601407462569 10.66533745304476 0.3946293682543913 1.1275945723777676 -0.10985038256593986
Ni 5.195683882922139 4.18595283043484 10.342261478141186 -1.1147156595325705 0.985297382137032 -1.9785309884020057
Ni 1.7528535235525182 1.9988779138255766 0.11980846941472315 -0.05998846473849023 0.08798854949584202 0.6962935597339556
Ni 4.266824560835448 8.553597543263388 8.200084791894925 -0.3413903064245927 1.6871892618943716 0.3169247171830606
Ni 4.70980851691042 4.555556080014376 2.0664399467710544 1.0541047307187328 -0.3862403728597477 -1.5196448670510732
Ni 4.526706884630498 3.483961885461487 7.893771019559972 2.3009131291552114 2.129439574460836 0.280965011259
Ni 0.29795202055888564 2.9785250880221175 8.464013927128045 0.481447551591216 0.5322432940868447 -0.3307258847322111
Ni 0.8313451717875324 1.199761651528217 6.986304882347855 -0.17172783679702683 -0.6040752884274823 -1.1411753963859959
Ni 7.437950968279225 5.9503515605718365 0.07456655492913294 0.3220656379540518 -0.82000527366302 -0.46379667127867225
Ni 3.8759644943441875 7.749920325451811 12.35598599321941 0.3012849537632747 -1.562035159091826 2.823572893318679
Ni 1.8880605159073687 6.3024757543726375 5.378203187144488 -0.4879681263185532 1.549924748981537 0.37944880385921104
Ni 7.849726931775085 8.50150129583431 10.183965915427688 -0.3225914285505348 -0.029473069758452465 0.9177760993566064
Ni 8.260166857797085 2.6423135612375916 6.319545706262824 -0.17427477158859664 0.38928558744397473 -2.172853936890729
P 3.1833534538425017 4.355712516079229 11.873615652414982 0.5896179753515717 -0.22857209947958054 0.22421973604815576
Ni 3.760549284705585 0.7247514950970376 13.112384991154201 -1.175276451834763 -0.8742663489994298 1.1475332202832236
P 9.017119620229662 7.1355273685060965 6.313004651071825 0.23857806165235684 -0.3749252049572446 -1.2087247041908795
Ni 6.2175590553442674 1.1528437010667956 9.587655534636832 -0.6459413325336488 0.011850728690998947 -0.5915208488012393
P 6.345643585855701 6.380196279145239 2.2821307579565153 0.580049100716214 0.89507737220751 -0.8724046132003427
P 4.0550027298932605 1.682642450788176 8.79929483470664 0.9739986692947612 -1.3665223040600594 0.782373322242859
P 8.091328577307083 1.3280120349674402 8.061331311100837 -0.672270714456797 -1.243418398918323 0.38671217028984367
Ni 7.971075990607945 5.051143056353341 2.190629697694891 1.678974073073431 0.037030827501052355 0.7499771653003406
Ni 4.641864100825871 2.143658305734515 11.508894928748546 0.36553090822653816 0.22614934897070083 -0.8957000933931735
Ni 5.185096937698224 5.8680055819242085 3.972522226093092 0.9608402775359324 0.828575017609902 0.34998884672688113
Ni 5.891906831629025 1.3588053952270769 0.10299190394199333 0.4401276097965065 -0.07097633120856164 1.6048219152400491
Ni 2.9614422364597695 5.053925699919592 3.529260927066649 -1.6443845080240196 1.5890695375017987 -0.5029741128090821
Ni 9.073408261111206 0.4023435389303938 0.5407478071709694 -0.46744815198833045 1.2407423947480567 1.3286908350345825
Ni 6.722958996577462 3.5064625993316345 1.0010348306401877 -0.6773589276129819 0.160163271887879 -0.09951737607104796
Ni 2.368306096425779 4.84767837016145 7.39744323347688 -1.1346244826413556 2.3625851522437116 -0.40022871671903976
Ni 8.814944901253915 7.959834847724415 12.370482460513392 -2.5945181977757255 -1.2453978912421972 0.37451305712049043
Ni 2.5078529070577953 2.785260356889298 7.6098971483549755 -1.2804304573662981 -2.4609074795653942 -0.7728957217697269
Ni 3.7403797258760387 9.098912755784658 10.679781400244941 0.6997838322754012 1.803305165754049 -1.2768874772100463
Ni 0.5027149666133085 4.219151058147428 10.389420836753056 0.30998916640549196 -1.9958080303148984 -0.16740761215511812
Ni 7.5769449358186085 1.8540883078650943 4.043159909443916 0.3285034231595955 -1.8008790728110597 -0.6933486181730187
Ni 4.1746656172935905 6.5350015591339154 10.536091030633644 -2.0893676461406145 -1.418603598136331 -1.1450572479389054
Ni 8.945830503434687 5.084461066736 7.687224233126654 -0.25395325855684653 1.040410263950776 -0.8798016769953622
Ni 6.15727151609268 0.4277282509337748 6.880522963598375 -0.1850780328516877 1.730232614138091 3.058225394664385
Ni 1.1020282068023142 0.9196231568191087 2.692594640512528 -0.46135952259208934 -0.6313909455232998 -1.2180781203813216
Ni 1.4714011050932532 5.9786386988115385 11.793942670120233 0.4040966843148782 0.0710542356343486 1.6875304472838746
Ni 1.5372815736319732 8.250215682129697 7.501593343697937 0.5331863747264043 -1.3134045982994735 -0.6695502302018403
Ni 0.5343375915118942 6.58444415971836 0.6774880177027208 -0.1973928456632988 -0.9807100198766657 0.40223494851579117
Ni 8.527328282311796 5.219953694688711 4.584098447481844 -0.9298168325712245 1.909446732009834 -0.5239358026624138
Ni 8.65322908260733 2.537512938977535 1.5877515409635594 0.43420635921606515 -0.6127175374835125 1.0216442961971826
Ni 0.652364984763186 1.840119805724577 4.595399481700409 -0.5316159449154908 0.7694507006439201 2.1520210593057776
Ni 7.107175731905587 7.312031739880602 4.227724733109006 -0.6849120573698914 -0.08892108861244041 0.18261157358906613
Ni 7.207968241744056 1.294629526223974 11.849907897792587 1.0720209488775216 -0.28880327635649616 -0.9508392004591626
P 6.253567568777739 5.381393091788978 8.209673855336638 -0.5627694877001598 -0.34106711875721907 -0.39803530861214675
Ni 4.070556048899324 6.31980738532667 7.937235543502748 0.32214482793141935 -2.0031274467944464 1.09787082006109
P 5.978472845883748 8.733446615348324 11.367429752585094 -0.5776895993451019 0.21663318195014947 -1.4726970375466248
Ni 6.182637799992974 6.267849348670747 11.60510160513363 1.7548007903957583 0.7922905813565709 -1.6295566989825676
P 0.9812688472682629 5.978205638388976 3.238414783058402 -0.512537331017485 0.4103784035585319 -0.7427451663282757
P 3.909254862572215 7.297805244296857 6.090301946661474 0.15862703774901069 1.264596318547519 -1.0062786123743894
P 7.160902866457933 0.8480926318736831 1.9323386406014693 0.6556886417283998 -0.45915557296223497 -0.2483690796008497
Ni 2.147251785836627 7.687826832097623 1.9929698639756428 -1.3410393292976066 0.37224123036717827 0.39011399688254106
Ni 7.050214465261339 3.2524956966277543 8.075356018955771 -1.5419970094940283 0.9249103964085426 0.8613547831440844
Ni 0.5289814633494385 4.345927193339631 0.6083384036762332 0.642232516223494 -0.42921636220064147 0.13806412599599446
Ni 5.076841046109213 9.05590156317784 2.40284036161223 0.6709928761856381 -0.49387395028002684 -0.09274509034422092
Ni 7.7623685090875885 6.00393127029948 9.601411192186685 1.422950048030485 -0.26844888106986026 0.8685952667565815
Ni 4.300225497682002 5.008500425808279 5.806360812880208 -1.0662387949781058 -0.5802725295809297 1.335093910347449
Ni 6.676474106538603 3.821417309204436 3.8575161203430377 -0.5067415502713144 1.2622897819015293 -0.3281869203604413
Ni 9.242522963147525 1.3369220228103693 10.047989549768925 -1.0988534956893334 0.0012477563641720446 1.272850588136511
Ni 8.121974512742018 7.85777079877289 1.483089129476661 -2.524178728820214 0.07763497417565984 1.6425916777896552
Ni 6.404069886695424 7.255623316328989 6.926913870311487 -0.6536870379173387 -0.49017901792694296 -1.3797889392619784
Ni 4.782341530663819 5.512389262588277 13.15162855808473 -2.017617927101138 0.3957650245207313 1.1935965903001895
Ni 5.604032219243678 2.704978325787499 5.91691653173457 -0.1273922481044451 -0.4458789104579869 -0.9614943661801635
Ni 2.872112006741882 4.267736751938291 9.649163935717983 0.3448636096851738 -0.6101150668636589 0.2917273919818266
Ni 8.27513047750434 8.242245527544243 7.974078850006094 0.047367176430053906 0.5956626388837548 0.20594690588089692
Ni 3.629110839432181 0.6106843011993043 6.479823211463409 -0.5380010225062283 1.133815613586815 -0.8317351605054385
Ni 6.112601794207965 8.017542452543717 13.278434178241872 0.13276071150521007 0.08906121373473048 1.7226936254485687
Ni 5.459095188458493 9.043702158933748 4.929143485481484 -0.5556421326267592 -0.8070651685625844 -1.0809827860564996
Ni 2.1549915891334837 2.3675321160960934 11.047374143777605 -0.1901716453245112 -0.08864700901544732 0.8224856168827125
Ni 6.062956484489557 3.9334417478748924 12.345264522842955 1.4704123552775064 -1.4199547128475867 1.1593458966474357
Ni 0.8658370523368815 3.680903023160313 3.3359832962616687 -0.5815074304292953 0.8563671001215057 -1.498010062390117
Ni 1.3902529531463288 6.030136032890266 9.513160849309742 -0.3339371925806571 1.6560125791812512 -2.236404150838548
Ni 1.714771848521675 8.1619542823909 13.135971120296219 1.7288349624596162 1.39237268946426 -0.2716977270244611
Ni 6.654692088688877 4.9244129914188575 5.971210330456865 0.2747920496790687 0.029450701160949274 1.3288034493530472
Ni 8.932414844386802 2.954393487028703 12.464329418298087 -0.47662159095748236 -0.17536800465277538 -0.18318724358687807
Ni 2.895266918271645 2.72584815253438 2.379861438466955 -0.17891098480902737 0.36937702144550577 -0.40491249534795426
P 0.552040548743145 0.82790280213074 12.151447870022658 0.5913120752245429 0.3450304742803413 -1.975235091259553
Ni 1.6942705838365486 9.120648703376665 4.9824652017658995 0.34062848855790373 -1.2903531157966488 0.7093650482059332
P 8.470873788502463 5.220322256750466 11.644911836234105 -1.525854852516527 0.6103935173360261 1.450296815474554
Ni 2.053213175779819 0.9518944509463833 8.997210819058807 0.6361922235666849 -1.1817641164416357 0.3879175034518545
P 3.0157498562593803 0.4740896726819461 1.9797808705957374 0.9350785951907961 0.2838739573756789 -1.4850144214613974
P 4.405652675447041 3.5849386763308346 3.9482607069729094 2.1743840003820103 -1.4074370399965503 0.6657313706763824
P 2.571789210720757 7.786942384555108 9.388849472905525 1.1867764820545625 -0.25756385872624027 -0.826931311358892
Ni 4.182350136281184 2.9497772472052213 0.36271574605048784 -0.5336923678285453 1.1692986369847733 -0.955459215729677
