# total energy = -340862.3703616669 ev
CRYSTAL
PRIMVEC
9.31226205579582 0.00000000000000 0.00000000000000
0.00000000000000 9.31226205579582 0.00000000000000
0.00000000000000 0.00000000000000 13.62943681653261
PRIMCOORD
 96 1
Ni 6.051052020262459 3.998238344773463 0.8116874925864855 1.3855505243361042 0.4980525071377487 -1.213169884446427
Ni 0.9869321588248829 2.868633018756453 12.242682879977243 0.2629004404478053 1.0607960266959795 1.5201971400101175
Ni 5.296982286788816 5.591221831451021 6.845548145839389 0.2577739178545173 -0.8570011341610788 0.19593580150179804
Ni 3.599235851810792 6.984429359916144 6.397317310663778 0.809685894014883 1.4302596943180206 -1.7464133376630118
Ni 2.016337544956292 5.064054675603078 10.125336159561368 -1.6696080584774988 -0.47146601489847195 -0.16783132995609806
Ni 7.937334513133036 3.9268412314739365 12.761159832860388 -0.552112522206946 -0.4457534406237162 0.7209720363172422
Ni 9.187542945233542 6.377148813470077 1.6438871048370987 -1.051183700417196 1.7134039726165264 2.7923843835310165
Ni 4.795936026050456 2.080852896585237 0.92260677734219 -1.223935350493047 -1.3384759394458046 -0.5197122514993695
Ni 6.825115180402868 1.4512974192649726 13.511079091128918 2.083361549155851 -0.7003787855469229 -0.7424687727384374
Ni 4.466067766704022 3.2392703614503926 6.816912939970597 -0.9575474657172733 0.6892225118197872 0.4050433644988637
Ni 0.24687551731590937 6.090563948230359 11.662695642435517 0.24565116644905435 -1.9556836514901865 0.3541128961975837
Ni 4.504303914768173 5.488097841275078 13.396837191266226 -0.7550561224851448 -0.4795634471946257 0.4159445847923998
Ni 7.235860435837261 9.0342537992803 10.236674496110274 0.03540306208964225 -0.19831921413231005 -3.207808319933256
Ni 3.0103470229552514 7.482737815605585 2.971462741450947 0.6881583322213309 -0.6201428834133063 0.224352147860962
Ni 7.697012965862804 2.507009945747388 1.8091983811241976 0.11284366086630888 -1.161024055680807 0.11400888481900366
Ni 9.136018199193854 6.284370746455185 4.572362582115192 1.5097499765348643 -0.6612527660797386 -0.004527969777340588
Ni 8.595255140722031 1.0701558449547726 11.563377573768054 0.5347010115987179 -0.02760516331177827 0.9436069443767814
Ni 8.698965803408456 8.633305043544759 6.108481671681464 -0.28435012568114904 0.15333879276687784 -0.14137673530899522
Ni 3.255781002102546 6.01008737941146 8.408817135474107 0.028948564713550146 -0.9864160691225077 0.35566944205142614
Ni 5.046836303033517 7.016016552861493 11.833022503074138 2.043853463758899 1.4134503360701656 -0.6770380539384534
Ni 4.725237332406266 7.862864353350029 8.194876295425244 0.9869251475484422 -0.2845835818481937 1.2917273704363559
Ni 1.5305354572284093 8.601652664764913 1.5736819610826802 0.8066697328963784 1.2212367206149612 -1.648805777020167
Ni 5.767400517575155 2.8239993466494187 2.900153163414889 -0.29768926599221635 0.5343770526003958 0.37931562071545644
Ni 4.119539870512295 0.0857473091511721 2.501506398863337 0.6213875544536847 -0.09331793212855542 -2.052121617304963
P 8.015939317275633 2.691066805583717 8.544116853558295 -0.7907121811258576 -0.39501091996352616 2.072414563226044
P 5.717943093715263 6.277079245253473 9.491457930187673 -1.5208229465195744 0.6278500222495769 -0.24259078235617576
P 2.196604314129662 4.481991734845692 2.1407074610475694 -0.5243322667698841 -0.19405118288457548 1.3044083083381341
P -0.3417888860237169 2.263475668062608 0.17453320941616127 0.758927432515093 -0.7430518989354171 -0.6055755271220925
P 0.7845729791139109 7.9437227249138465 3.3171869894259327 -2.159129131105469 -1.8092256450035422 1.6167142958022607
P 4.035925069375416 4.437004196779954 4.906256532354985 0.7881827298357845 -0.9310265366086096 0.46516886903585053
P 5.6110662619246465 2.695015204701886 12.455683181556921 -1.606351464510698 1.229606432735895 -1.444428786729551
P 2.9160044959124054 3.6069277802815636 8.464207401499529 -0.3731850823376863 0.2599359585028427 0.730280972422994
Ni 0.8872509119366454 1.832867357630446 2.469408893956488 0.3030556725104523 -0.40086377919987737 -0.3942719849149726
Ni 6.377474742642567 3.67129413571737 4.926468797180421 -0.6675100598433601 0.5281454698683872 -0.4149495678689821
Ni 2.288069352192522 6.2276311336556525 0.8523401726581017 1.233900946346191 0.5405425579811594 -0.07865930167511616
Ni 2.3824211914974387 8.342520348110952 9.392930472570054 0.1854279599919387 -0.2081415995393706 0.2684100574121248
Ni 6.22139191806798 1.8429152884052193 10.02984822428377 3.154584427612109 -0.641874875773759 -1.3681523834643148
Ni 2.682127033995411 6.050465347751976 4.589658246459943 -1.164923133624897 -0.7668130059107569 -0.23597713369440004
Ni 4.587061987794505 5.018191784902652 2.1702152258724303 -1.9538504549361901 0.5446951466969522 1.2307585440624675
Ni 1.6847092680784097 3.7753307275762857 4.230590458163203 -0.7030848716241762 0.1758626849010068 -0.48249373346754326
Ni 1.4793273280991417 2.527524859090137 10.130242790446658 0.1310126184658518 0.11544793125837537 -1.0175508428540994
Ni 8.527815738802744 2.6615376225560925 3.9787729233661326 -1.6376852416269732 0.32640308898714104 2.0252839282868282
Ni 6.132338755881549 8.690510269447849 6.343808121576729 0.1611066096377548 -0.4562538259344078 -0.5572012495837629
Ni 0.40100649176038267 5.0165900758264135 0.06284845671820813 1.3165773396005005 -2.3044530239876697 -0.6234228397161586
Ni 6.245110249563206 6.858462390879664 2.1722872041832617 1.7265088854296007 -0.5154426775897382 -0.058934569552679145
Ni 4.415371811988667 2.748653834231724 10.453246050194238 -3.223485107238564 0.7783714001723177 0.644402270181303
Ni 8.37457315415986 5.249163821053448 9.2422441038657 0.4586176981808941 -0.7845772718727132 0.9780622978411737
Ni 7.238002256113627 6.587764244733332 10.857414054927776 1.7106150970174796 2.1008023703401175 1.195221784608438
Ni 0.547341240398887 3.2175821030866785 7.769855342235773 1.0742845481007175 0.35562084820167783 0.6392040138098153
Ni 7.332856957570385 7.55008409490416 4.197757284552733 0.27577601085889275 1.7263057682798593 0.45555757119833157
Ni 9.611651296740039 1.8304834185402308 5.788503965880801 0.4567623901397101 -1.0407316518459366 0.23631420531884462
Ni 6.48795541985472 4.493976616131265 10.957576745765092 -0.2775549571361865 -1.4283082270186045 1.4746909280482021
Ni 1.9189219714299661 -0.39690444031803995 4.791864705072948 0.5835159762188918 0.48284726015222007 -0.040037989758492334
Ni 4.73197941014578 1.284831422481051 4.2446976039747915 2.391366081031146 -0.8344062795796985 3.057398784998031
Ni 2.2611289780206776 4.547866676737025 6.475822473602215 0.018925119039277082 0.01762645483251158 0.49247064217459696
Ni 8.016889168006891 7.668284637373298 8.44034193626358 0.7723048822632634 -1.4206771928359083 -0.03973665646798962
P 7.138090996352232 8.674157937250905 12.126477955269953 -0.3800234454157584 -0.6341934479691014 3.914617177376239
P 4.880016440290892 0.6292397916360518 8.575968514746467 0.04289268559846806 0.689146150055897 0.3353682686002289
P 4.614356227925054 8.413498409617276 4.799660930878917 -0.651494144031078 -1.456783451640162 -2.302004048226545
P 6.8371745597850095 5.79411739745729 13.137646207361216 -0.5902232130357383 0.335680400524009 -0.6791461014203917
P 7.338481563861362 4.90367889821369 2.4632618697633206 -1.1350767396874257 0.134921980822587 0.7384298267823735
P 7.338509500647575 1.0529467846472829 5.548188937194018 0.7329598048067377 0.9510652004270393 -0.31320355957773155
P 2.7261181600195346 -0.3232695904428159 11.456577102526422 0.07599538168970783 2.755265881412164 -1.79231781350461
P 9.321574333223639 4.093577283857922 5.804682158777013 0.800650266175176 -0.8580115777034641 -1.790308239273749
Ni 7.335036026895035 0.45718923128805977 8.042212933483183 -0.6911791213255258 2.7148489110476985 -0.5630985889048044
Ni 5.070508073218387 0.028737640751576577 11.318442731867774 -0.9359180603729558 1.0768883042721518 0.08747432886358485
Ni 4.248915127466816 5.058858433367376 10.84561076275259 -0.8023741908448182 0.3740047500255043 -0.18361687492512893
Ni 2.827929121243445 7.090468088120358 12.079360702868541 -1.3343164087514763 -2.2160654392811963 0.4978933558520651
Ni 3.7928470925321234 0.15610703645597182 6.3460160589138 -0.8034797652041712 0.5875387242250398 2.624685722498041
Ni 2.5572030383109 1.3407794930045351 8.506200116083185 1.919399472347172 0.07474942509774868 -1.5372229851441526
Ni 2.874080692068077 3.5186940971573946 0.3563784070105914 -0.06465501697622414 0.80751639716739 0.05858669929495717
Ni 3.534143139933436 8.972308631982994 13.466237755577698 1.1536128508184005 -1.8315003972413426 2.162257135211489
Ni 8.881588574885827 5.6617994656882855 7.081187487740246 0.5769007848952192 0.6650615983028675 -0.4321895858963525
Ni 8.545956025317349 8.755230490842358 0.8837243582902998 -1.5436890524844704 0.9928641387406965 -0.03837191490997908
Ni 5.779925510060854 4.321923262104652 8.814974239386045 -0.2663912272098832 -1.506652054335831 -1.0356231269747778
Ni 8.538552776970784 0.2713341736457914 3.488386409020621 0.5060072432084511 -0.2872935245801891 0.8891412092287333
Ni 0.06460847424965595 8.051484221601223 10.886267167729036 0.5141941498946178 2.112998141075361 -1.1952865764081029
Ni 9.260765261899014 4.021705245192766 2.4210652166403075 2.019942204358941 2.0726202514789467 -0.6905993375626559
Ni 2.9292372203155126 2.136866152943219 5.520903078099335 -1.2689425113313564 0.23712358859401744 -0.5330110254908046
Ni 3.1485689288773675 1.6721656510685676 12.590465137869955 0.30954462266890564 0.8326324755087273 -1.7974196535075497
Ni 0.3953595360404358 0.4771742769189602 8.719350345082209 -1.1489588969861566 0.13251697092552017 0.5824319991260937
Ni 8.413824338789766 3.1449371466696183 10.730905112238757 0.39723235309487714 0.40738306837563387 -2.5408531041521014
Ni 6.645584079933118 2.805272387624331 6.9607166157781615 1.1127675346672643 -1.3511363085222923 0.3440912502955235
Ni 1.3876667325327878 7.189289813219428 6.532166315263725 -0.6300449730183666 0.021479252919698492 0.4005375062087102
Ni 3.358774620609492 2.3623718912582476 3.0094884323922906 -1.7995099603776752 1.9810462986246915 -1.6179545959672652
Ni 5.981927098908295 8.751002723862056 0.5098277238714564 -0.3372294901786837 -0.9390262669846344 -0.04694037330528045
Ni 5.804593692287337 6.021504212710692 4.461378111524989 -1.5815513747478829 -1.018438387665375 0.1564688537554273
Ni 1.1195667075043076 0.20772118021154162 12.913959153828685 -0.24253113276283392 0.5607018065378537 -0.3587185132903951
P 7.082515416311593 6.645844823271111 6.594603169998387 0.598382351807763 0.8496999725139753 -1.246539461045808
P 6.80719838817797 0.44172249521408263 2.2915577255643758 -1.1038530057864537 0.3638414363392572 -0.5269542777737635
P 2.4771268967610593 1.2902325344823196 1.083125963567474 1.272652356082776 0.24673642909343313 -0.03781244286208327
P 4.433186169330782 7.294006200209537 1.2650037540791532 -1.5829148307543126 -0.13162865478329588 -0.8074534051399384
P 2.2793158258456385 4.9866045919573025 12.286255885434372 -0.003445535346439227 -1.4781521471239254 0.45534751207005447
P 0.6396248262978012 7.472019401961688 13.522622571192317 -0.16732559396427313 -1.2905027540006355 -1.4129667115655278
P 1.351097479379372 0.14770644484158518 6.811965335132193 1.0788055758995228 0.4283984942850364 0.4896982216357825
P 1.0115351552168677 6.7574150351455895 8.678761919618884 -0.567718604175319 -0.7756527156895738 0.8678072236376473
