# total energy = -340871.6539236473 ev
CRYSTAL
PRIMVEC
9.26560945306283 0.00000000000000 0.00000000000000
0.00000000000000 9.26560945306283 0.00000000000000
0.00000000000000 0.00000000000000 13.56115601671654
PRIMCOORD
 96 1
Ni 4.533875729368471 5.131368543743282 1.282991312245217 -0.5619608757559353 0.5724628037285238 -0.027703636562855512
Ni 4.371106771159239 2.1064621447716267 9.565673256113751 -0.4294696158620281 -0.18178779213619015 0.8527390164506152
Ni 0.4346543640959849 4.411458499570533 1.71117364825962 -0.06609457763622811 0.9609981432700353 -1.0052388582559655
Ni 3.1120772510711854 1.7744753642947795 4.307850456609547 -1.7934041045902536 -0.8038692873331059 -0.8416971568141568
Ni 8.676928059336623 2.743139220788542 5.646092596987151 1.154193663022535 -0.42084356475591395 0.805101102857678
Ni 8.554862922691298 5.102191140122807 5.827255642737623 -0.5818393598474172 0.9417853177870104 -0.803131637836133
Ni 5.272122414304928 1.6540409748826095 4.4149970357542925 0.38302109459150163 0.26999231429758014 -0.7617638735226235
Ni -0.001999518482470098 7.669339378260576 5.413586030537367 0.700756994821948 -1.7989330048282828 0.7414691278293295
Ni 0.39630215416716086 1.9644203545201597 2.0912248503118396 0.24420440670019877 0.9963274146989486 -0.705571642601772
Ni 4.731418519202865 0.37371630498797126 0.384438468045962 -0.06535821369083582 -0.6692488969113377 -1.1792495775498981
Ni 2.6787247050789404 3.501705386874476 2.5235415011866604 -0.06648641375800807 0.15626265128189218 -0.41534371798360725
Ni 1.0162427601429003 5.830384638991238 7.050797879286009 0.9782489599306828 0.44373795285558415 0.45480346664112636
Ni 5.6227516006517 2.9416178371601456 0.22424720233822784 -1.9596644905148057 -0.6799971365667773 0.01596037998399832
Ni 7.359914356378791 1.442173553102437 13.222370975329353 0.6526208014363535 -0.3741911550046975 -0.7915498465358045
Ni 3.7824162855997496 7.543567997903535 1.8379160644691288 0.7344911538495995 2.2294120357914315 0.3733717444271957
Ni 2.8873954916577587 2.1196749036038898 0.13491561015476763 -0.2092757131438138 0.580917105143464 -0.13527782150010895
Ni 3.5930828255868024 4.035302559659325 8.200010471635025 -0.2189543738841584 0.35560824979618755 -1.1784551066730606
Ni 3.63416653713116 -0.34331676750355905 5.6061003742158935 -0.7267773301451096 2.358564718230409 -1.1318906286499604
Ni 0.29458892830378963 0.8314809517483533 9.785649012574229 1.0328188247567631 -2.752708405097634 -0.24403522811218617
Ni 5.115200055550925 3.6064994278232096 2.8866005023815964 0.25027529548462707 -0.34298876125996414 0.5438955336137923
Ni 1.2651170253845445 5.022608822023013 11.640448870272074 -0.2588743500075477 -0.36890368135351304 0.5650947933992267
Ni 0.979310041555663 8.005301105118237 11.39115394636915 0.3919515643119121 1.0636327248138264 0.26809484016455115
Ni 5.102839732772358 4.436735081684427 10.118019389275238 -0.14877251355243412 0.30959861583529263 0.6136115100526915
Ni 3.500445264012493 4.19737659717261 11.919102803737346 -1.0174081466286478 -0.729053527773796 0.3576257944468486
P 7.390009055317916 8.691614050044292 8.654864790520785 0.30701440004788416 0.6374209537674635 -0.26981567951039986
P 6.3253812835185785 9.089896264914437 4.925791544102816 -1.0877668988578686 -1.3520480217032844 -0.17624140839666422
P 2.3662790945721093 8.802727236521498 9.739975118192913 -0.1362170454849267 0.16284621803668084 0.3107460991761745
P 2.0373499651574263 8.046912956391514 6.706371091790791 -1.8655078645350387 -1.9953097505222408 0.008810913423410631
P 8.271279685089445 0.45258609773418873 1.879020160353901 -1.0718653971362637 -0.5288301546402377 0.040167573357821146
P 6.890898480270572 3.212266284208114 9.864004564005445 0.21803571872463093 -1.0571707712385665 1.4818861602450608
P 9.306470616208486 6.343875439640035 3.5182250416585163 -0.05677535711783125 -1.437366480566131 -0.4253815618355835
P 1.9250137182553528 4.126124061814894 0.36243449912951164 2.0105643626884664 -1.2776624077028575 -1.3770759112061897
Ni 7.512537472427205 4.951226568135387 11.26921204232724 -0.2895270418963981 -1.5986836635527952 0.06105547255042388
Ni 7.903592512059505 2.0336715182735494 8.333072959933936 1.3188908182250254 -0.20110269041471815 -0.6454515373814239
Ni -0.1445703750237845 2.966514529293589 10.56965946830201 -0.7508377135284231 0.6118238220246496 0.656374869162147
Ni 5.359728750040585 9.174333762276577 10.156465181857781 -1.2578042353263499 -1.4519798596039317 -1.2201275467111827
Ni 2.1991089719552157 6.3001139670139645 2.54545652025403 -2.1556679120297453 -1.7412564760524205 1.6201405478749906
Ni 7.173573688163054 5.020681575292921 8.825314938822546 1.2607250085175705 1.3176173508292406 -0.7683672377717541
Ni 2.2589555422901295 2.237190626093085 11.089418453628246 -0.7380127938496129 0.28273727266807436 0.24515674331113904
Ni 3.690103020350215 8.713916371579534 7.920026923238176 -0.8427698210530453 2.0716684290886387 2.503488547460714
Ni 5.676390212769491 9.243362551407264 2.5431234398375056 0.8862523177167123 -0.1350983584994512 0.5488654760245579
Ni 3.4238094096635114 0.23426239940820895 11.72820252919527 -1.7470766822786232 -1.55009855555524 -0.006799796530652805
Ni 7.380233837528268 0.9711563053898907 10.606478219895113 -0.4065870548368998 1.139949751509011 0.10075561935352326
Ni 7.525731700040909 2.8131501645028334 1.7219680830699893 -0.625223126149691 -0.3307158574298821 2.029028740041241
Ni 5.726517158970434 0.7452588980390218 7.975207332740041 0.9537049520427318 -1.2330838497615344 0.4908935274954643
Ni 6.637159770157302 8.406242549851536 11.911766294310006 -0.2460751413603504 -0.3729328571175642 -0.27348670060408387
Ni 2.2434449123566034 6.16713394263764 0.088879430450631 0.06955502538100279 0.5701516390968439 -0.05456009463406732
Ni 6.385885712112322 5.4795979372867185 5.096919935003822 -1.8261956971989775 0.9961430666022846 0.49969904160223616
Ni 3.3183111824095515 5.604072132344657 6.1398133671167345 0.11662215407213464 2.336152154863164 1.625270670012704
Ni 2.149111744284184 0.6393409386847102 2.096174538788835 2.6134137491286475 -0.5849632501883796 0.2108523136023143
Ni 1.087523092328454 0.5569520675342197 7.48746658683931 -0.2362015910003803 -0.3903849911557406 -0.3436307657193372
Ni 7.7522758469194715 7.077127961174957 10.022955164630682 -0.06774522586577365 0.1797026274723873 -0.20382960242757797
Ni 0.28747201381636944 5.101922437453708 9.39569750700709 0.5062481555746635 0.33680114439201353 -0.14134176830600173
Ni 7.267675216003491 7.314253433850467 3.710942302180259 0.7227751509642519 0.5332426818856365 -0.2670394023168433
Ni 9.981562908297324 7.539046380575244 8.772359202108637 -1.7112383324237757 1.1038972287608277 0.11592692777732293
Ni 4.792367697042015 7.0419001146951095 13.305677141798494 -0.04378434417480201 1.4458068980240004 0.8581344764345739
P 2.3647965970874227 4.222236226868937 9.887587392743086 0.01682581330808715 -0.046108364322288334 0.7633628425786272
P 4.329735825727223 1.86593619349062 6.919918368533298 -1.7855840943252022 0.8089045357641681 -0.6905283751154043
P 4.211395464012171 1.7014253007368825 1.9948727059774638 0.31365890194759527 1.0393401708150487 1.1451984015024599
P 7.64056966144839 3.8609423242417056 13.51279686538396 -0.9479209983711029 1.8613583611430393 -1.019583557013412
P 9.006922733818422 3.9436749494964576 7.540165666176183 0.4254669224605382 -0.4122064579062062 0.99928135512095
P 2.6930122745876006 8.644368708329209 3.756806141551801 0.3525296108708638 -0.3219023729033101 -0.7409451370050594
P 2.763319717798829 8.291877134517298 0.02054000265032305 0.4844752826739463 0.5730541574556195 -0.6779340833901615
P 1.1002262426503562 2.6252621395374547 3.947191248217947 0.7787501236679749 0.06255802523787936 2.182437466814106
Ni 5.455831649485347 4.951272896181783 12.669116812458496 0.7707154262889565 -0.312894512977745 -0.9246707695939107
Ni 0.9330839168613011 0.09876676211255798 0.23091566133653058 -1.6688416126251195 0.13289620864180984 -0.9928494834526772
Ni 7.241564729054462 6.279979798050073 13.294069186493402 0.8523556649692675 0.04967371307604348 -0.020870158580789867
Ni 5.095834932157217 7.696626597588075 6.626197627818978 2.6678895115790247 -2.2326464835683293 -0.2555031195424696
Ni 7.258669043784024 6.831737565022325 6.898546314169694 1.190114288178544 0.99028377960803 0.8673914762564675
Ni 7.579815061404106 1.3282899494507223 3.9000116923287464 1.1680845620720142 -0.11857722091597643 -0.8410242991168483
Ni 8.792294160473022 4.044225341395278 3.6670446250977817 -1.1371973855748545 0.4904633819365811 0.3764146450185776
Ni 1.540713307787652 4.781054388112005 4.827825330631988 0.17506255759721465 -0.13524516848996063 -0.9543063330721565
Ni 4.399626316520883 3.728935188839706 5.6148749062033785 1.1131190044694121 -1.1057425094996827 -0.41564942214948414
Ni 4.890332983951914 7.34524689688968 4.1859900899292946 -0.7796644079521282 -0.32472287307124076 -0.48224407935058244
Ni 1.4792174590010256 2.4511150131332595 8.771070355857887 0.5833272572468535 2.065483640434165 -0.9600818021033529
Ni 9.235783283016808 6.9940154459397545 1.208075154978471 0.3276801559273518 0.0563557530819094 0.11746599012966867
Ni 6.615135416900437 1.9468898217637491 6.229642522518492 -0.33267555225941414 1.0070342595934914 -1.078968326729632
Ni 2.132989584138225 2.6582940366181127 6.292498562747318 0.006093771602563699 0.00669309574945944 0.6626517033097943
Ni 7.963457613612977 0.09828680355189091 6.256344155339542 -0.2836433294221115 -0.17896214976193695 1.6389461106172678
Ni 7.312530030524519 8.500677639626028 0.4144507030625 -0.0021671828546478804 -0.5263402983388484 2.9667897671602064
Ni 0.2511035708342407 2.8643704525987315 13.175150650759324 0.6089912376718609 -0.1548860826493397 -0.2892336790256954
Ni 5.144831474026085 6.68901011968419 9.116785063042926 0.7312788175598889 0.8151520593357768 -0.19450421126159403
Ni 0.6234254016256794 8.394780991173059 3.244316953266095 -0.5662898421485925 0.5473423545118121 -1.1437691252551012
Ni 0.6200879291632801 0.6862378934908927 5.123092501535023 1.6384614576713654 0.6829325650460174 -0.6925654601500911
Ni 7.528048102360731 5.317486837336316 1.9459308312033428 -1.40905220700247 0.5906009080901312 0.34306512302385433
Ni 5.901192425103549 3.3057006881804423 7.922765837341133 -1.152328327679022 -0.11070501725675128 -0.31533886075317946
Ni 3.1012642850422574 6.7531559327246935 11.480088043914527 0.2470935553225357 0.33014018743207013 -0.7880451758166558
Ni 2.823407193975004 6.7564174271910025 8.715795437141374 0.11748193096926864 -1.6597658755760962 0.2213881801366316
P 5.287855418861157 6.81946989833655 11.282881595696972 0.5884756342170123 -0.5785686595159455 -1.1646485398072715
P -0.010869486245531383 1.050534780085541 11.90818606288449 -0.14435690098324172 -0.4837121792556766 0.25218176847872054
P 5.625012409315846 5.439996723227047 7.3491162153247105 -1.1647143600482006 0.01647434350593937 -1.0879131946277458
P 8.90324983159248 6.425366473251363 11.828447155987876 0.025171871279937294 0.7962739914843512 0.6234048419940296
P 5.2049745438579365 1.2120528810420692 11.917706476418958 2.348428915347988 1.2238726155759116 0.44483838500861456
P 5.878927166005422 7.0487751967803405 1.892974167928507 1.1093001449439541 -0.598254310870331 -0.366680191339633
P 6.776106846909487 3.64742562400982 4.311416789621145 0.09382906743701905 -2.6542919754002483 -0.03762038145593521
P 3.6286534996099844 5.424217390624421 4.055735081242008 0.4006087257662778 -0.7954029017333075 -1.0743035742641112
