# total energy = -340886.31803664187 ev
CRYSTAL
PRIMVEC
9.11931577109336 0.00000000000000 0.00000000000000

0.00000000000000 9.11931577109336 0.00000000000000

0.00000000000000 0.00000000000000 13.34704042556428

PRIMCOORD
 96 1
Ni 6.571369697829942 2.17921548958759 11.322547713287799 -0.566486788650747 -0.35048121298226736 0.07576475373614049
Ni 4.781430433009895 0.90846257176313 6.158070459992726 -0.13440158954274273 -0.5753830626991123 -0.29682203289591463
Ni 3.394191025511982 2.050186293245941 4.691084461487078 -1.9658271676820918 0.1273464824681742 1.4034132635491379
Ni 4.061788762213028 4.646218340695411 4.724972750166504 -1.5576118332131497 -0.23939412979574903 -0.19656597888662922
Ni 4.169414924855203 2.838961495562071 2.733980846373759 -1.1555463203956875 0.13472169188632283 -1.7514452436599641
Ni 5.685884153637836 4.494901537041656 2.702708889338295 0.06564823412742887 1.288166392557975 -0.49116272199645084
Ni 5.201703211481959 2.918025961763364 0.28253919539579736 0.3112045268698318 1.4246904277603594 0.3162749994142037
Ni 5.752218055269694 7.833592407847632 12.127294484935526 0.5593082686244367 0.7132458713175781 1.1882425250771276
Ni 1.899407529212241 6.963445552484889 0.6084142904265618 0.6110383500088766 -1.5918165041193164 -0.9665036464692968
Ni 0.9590237051433432 0.011957246607051384 0.364886615210985 0.031210621274849474 0.614539935404232 0.4389513301002182
Ni 8.222668007672105 -0.2358282370594348 6.886458466375944 -0.5651647274052138 1.2590051976129863 -0.7541654923500754
Ni 0.37198691433259123 2.3363504165904136 1.2405059718617786 -1.236406229266548 0.09421858956595387 1.1229586162676533
Ni 7.323868262712538 0.9455271180639991 4.749090604118355 -2.737897051116414 -0.5053845220227877 -0.03933582148514516
Ni 0.827080887469363 7.84931410793195 2.4617410060099965 0.2629374643333278 -0.5030011093922756 0.6583579610304469
Ni 8.143503228999275 4.042893540301946 3.7470611185645537 -0.17696851637067587 0.07423314758296248 -0.8138374542894112
Ni 7.9326555331469 3.9918983274994506 12.536380598968243 1.0436118016072091 -0.5237630245299754 0.40712261562539565
Ni 8.266267455527743 7.650357999614348 8.85373285417142 0.3014201937895583 -0.26239804689009 0.6381226078201785
Ni 6.971160493477542 1.2233561869554173 0.27948696046643484 0.41632793627374753 -1.3930146939236332 -0.8622029900769925
Ni 2.080836312957884 6.644415415739095 8.994810490276063 -0.4750179939157884 0.09424969991420541 1.2112765240784558
Ni 0.43835364550058786 4.865619954575101 1.3988227621656042 -0.289248848534347 0.363408976787529 -0.09043058327843136
Ni 6.703663609154297 2.3806794096935837 6.903089362224998 -0.741154167692072 -2.5488291803790424 1.1954673249603411
Ni 3.337395927991607 4.6378832862423565 0.29640055509890756 0.8594781349466618 -0.3752033983192958 -0.3997774881142341
Ni 6.096928184728618 5.867212624911944 4.597201107445287 1.236420627444251 -0.06046926102965071 0.33246883556524676
Ni 5.650464731870152 3.5326404748623896 8.831162548075895 -1.0622399582313578 -1.0506581669310293 1.6827664502363278
P 0.6810377840237058 5.5248643981919034 12.555427201518189 -0.2102103091429412 0.791678658804185 -0.9249954999231811
P 4.324224426381518 6.262908847857769 12.781819682732355 -0.7572387319587605 0.7072857970794012 -1.4366098049057645
P 2.7866257433672357 8.840063912027345 1.6153390245913046 -1.304206219629657 0.07546264911468939 -0.7476076366268994
P 6.651875015895111 7.782013558847112 5.499020257798079 -0.5417077819338542 1.9165599460158476 1.1832473858553816
P 4.903000029195527 1.0494234806281666 12.70762310719522 -0.23002297299349417 0.2536634952305696 -1.893572226871423
P 4.228161555912727 6.469014499601186 7.993649163566822 0.3816203575892331 0.7625089792187641 -0.23974534248758067
P 5.221045279857154 1.129901440746553 3.75342822471239 0.441906041853168 -0.2524139390941847 -0.14769444999690692
P 0.5320318149415088 5.841532632198813 3.404495852133373 -0.5750477908468806 -0.13089614749264553 -1.1523270421274414
Ni 0.3388026368170336 0.31552558376296197 4.7648132161342325 2.683456512779346 -0.7450918121835813 0.9792604319143328
Ni 1.6332420649657426 7.047726267206038 4.757258775096037 2.5036471845257657 2.2654632729880335 -0.19491661620866432
Ni 6.251263481844038 6.2680794997996525 8.77235572953545 -0.3287718463296338 -0.6685467286379905 0.8438820802806177
Ni 9.03331132878301 2.5098271571379565 10.284909124201956 -0.3846586301949246 -0.2179932955224697 0.2719697497389251
Ni 2.590405429727879 5.849074306195177 6.675896205101665 -0.018319881355110385 -1.113854854194172 -0.049813581088017436
Ni 0.9666656916112422 9.442139366184414 9.094726271583381 -1.2415191250130813 -0.4754507105778327 -0.32072172233164764
Ni 1.493570627325719 1.011322980075802 11.499449668772506 0.6203233748552285 0.0971614742443617 -0.22076340206843914
Ni 4.317084002271297 7.335641299144587 1.359969918076722 0.6897747847788315 -0.78463460747321 0.46994366471667454
Ni 5.8455451310602395 8.54426979141545 7.628514502971676 1.0979916619096703 -1.5385992966663888 0.4937603075202981
Ni 5.7530479129887615 2.899422557951295 4.7934560744839025 -0.7562910233335104 0.6867658227491785 -0.6807522695652469
Ni 1.189259065948885 7.816739912629641 7.2039985069536545 0.10181568518692143 1.7913235679121406 -1.3812130733030148
Ni 5.24526618207522 4.770833788289491 6.847018338362799 -0.09280731104072402 0.7766240784639077 -0.10341748245640255
Ni 0.5177965632990383 7.273584356526387 10.824649496615198 1.194740988317278 0.3448481830662061 0.7477238504897897
Ni 4.706323749776463 0.2813263264217752 10.44835644145905 0.08321375381501797 0.7517121457135764 0.2492507108748546
Ni 8.347903568726586 7.433719538359687 4.298174189455264 -0.09899801323246821 -0.09692724674636854 0.20870724223485349
Ni 7.597484207799457 6.334869367211218 6.738440119172593 -0.8258445060526164 -0.6777988433638779 0.33895032952453236
Ni 2.662584812655588 5.456834303859534 2.4789327397680903 -0.1943057220975428 1.1318564329779153 -0.4324284413800359
Ni 2.6272474647282507 5.249743766031949 11.348948131932868 -0.6558732469353801 1.3006046183213278 0.07043048600742063
Ni 1.6461276579002786 3.813387724743936 3.619236583812892 -1.1145757915205965 -1.3986911754831202 1.5087788708708467
Ni 1.718352637405958 1.0446905558348019 2.93307921601463 0.09442762025296642 1.2501958268514726 -0.5724124101065625
Ni 1.1133772408899507 3.670670435695466 8.194548598037539 0.6580630554978473 0.28303166398004154 -0.748586455600401
Ni 3.726280022188601 2.8833269659276177 7.291928771775582 0.2935433621446428 0.41613356087475434 -0.21458992626787557
Ni 4.471446657333499 7.450608510840055 5.645571307122331 -0.6806491683284793 -0.5967332462401143 0.48978152537820807
Ni 8.699635571193008 7.295680458211015 13.167549405665332 -1.264868598372299 -0.044928999302206486 0.45475821522548776
P 0.36389078594810365 5.972704867705087 7.748169954814097 -0.13628775082186204 -1.5741972483756566 1.0271973648049277
P 8.926241444392078 1.8744844396934253 7.917758219192295 0.4440786240244546 0.34986466244419095 -1.0554890126607692
P 1.940462688017111 3.4742586164286315 10.333038136113208 0.41423557252109305 -0.9073541326923342 -0.7338892585995426
P 4.28798426621036 6.36059495650232 3.3614116456088046 1.462359403066043 0.744191411856499 1.4291137536390357
P 7.0229034901587575 4.112446560338539 10.465053908311942 1.2618606647839106 0.7984817977689473 -0.9450202797845402
P 6.464710182640746 8.152066266342183 10.061012599665908 0.26865122688865345 -1.2458815157468348 -0.7411896489156977
P 2.6227607614559285 -0.22880362825725994 5.814945267584065 0.27609868430563417 -0.7404072622237184 -0.7598915962005752
P 7.428202352425224 4.310426901887567 1.4144122321738062 -0.8181337676719201 -0.5128096108422653 0.011713431782186279
Ni 2.856041973669917 1.8565102686573527 0.11144259621832782 1.4254159930724744 -2.194682602730046 1.3170115989244415
Ni 2.027442720154127 1.3512637074789855 6.983131419057985 -1.7045472935568449 0.8163213970535297 0.29548763035520725
Ni 7.350578738087807 1.1050513057524904 9.067698444025435 -1.7138839975767384 -0.26905591852623983 -0.20235250366141924
Ni 2.9294889414652125 1.6010235229716054 9.454148592890352 0.4422814229147157 1.224387093318485 -0.15363781206453542
Ni 6.701310825731006 2.325571385558127 2.2810490629643607 0.788207669536449 0.012705877602442633 0.9681861763780423
Ni 4.198934149433471 6.962296518720026 10.267477552443735 -0.022161623698703767 0.1676374687777371 0.11924930728233657
Ni 7.402586194921253 6.308323039516643 11.294158371911646 0.14735737837246235 -0.44892335371126557 -1.1280000353463027
Ni 7.769374187433618 4.06304722776502 8.108993914927888 1.7600173015996916 1.1936410703848797 0.44588816642936757
Ni 3.343779448907513 8.333650078452928 12.606840078974896 0.09563321052529336 1.0024378984720608 -0.7520885552163886
Ni 0.16607550401132976 4.953101549069796 10.297134478687473 -0.30375012747431557 -0.06597939221460249 -0.09794180405381198
Ni 8.796090572232348 2.603546363499051 5.659091604422219 1.3313303295399588 0.37904154111846333 0.516060256569079
Ni 3.8267839993517443 3.0798664556127697 11.470018901555502 -0.18488160057016548 -1.4266678632017042 -0.1497248501633744
Ni 1.498577131586908 3.3975560529662236 12.644958818158448 -2.0638211651300775 0.9638754648178303 -1.1097590868582436
Ni 3.425634425680616 8.613576589931 8.153893777187252 -0.011500801550747935 -0.07654122689084883 -0.32113335594776954
Ni 6.036284736027512 8.148938341093391 3.383754880746035 -1.173355066442334 0.02504357323218913 -0.07276581900881662
Ni 3.5221623812447094 8.793272703713754 3.8082043057602206 0.20303153200631485 -0.6780608387760129 -0.5608815266488276
Ni 3.37696463835463 4.676129695844228 8.905225069673797 0.6532931449130298 -1.026694199916264 0.7676519568722845
Ni 5.191562532541263 4.910915595131252 11.288619299619757 0.24992279724121474 0.053464290466727286 -0.4405649544442413
Ni 7.968530920694292 9.093416737864063 2.3332498492884017 0.10935827342086973 0.1839536894392574 -0.6808129475998533
Ni 4.766821289428064 0.6866224528935642 1.583719621631703 0.39622576620723376 -0.41006858562759696 0.04410393229774985
Ni 6.355889389655737 5.632627350567991 0.038393230582937025 -0.4494571147275485 0.919114615662372 0.9507692664531754
Ni 8.093128129657183 9.133450533322385 11.027858853725913 0.9322871484885878 0.3386402544832813 1.5276708226793432
Ni 0.2749428055058692 5.449055527657722 5.491359120767432 -0.2899029371785781 -2.892448376134154 1.2738376346401288
Ni 7.408586704582204 6.4219314731885815 2.313242070874834 0.6732929850737244 -0.713121687034888 -0.9083265239079323
P 8.758363963619344 1.7591342167430033 3.3040730368790183 -0.02291649958685731 1.0620766931806158 0.6601973282320307
P 2.1939340649565504 3.393534434789203 1.576138734578285 1.2456845692446803 -0.772251917538141 0.5647029572774468
P 5.045598767141274 1.2599246424879647 8.380740400318007 -0.3251897854053303 1.5684328350880536 0.17542251203979464
P 8.942054337632337 1.5994185234270348 12.704420403558554 -1.3585156317054992 0.03947903193122878 -2.1250396456209275
P 6.444538256546483 8.058337940665496 0.999654815773085 1.1826429195021633 -0.02180244058707213 0.10130712098161909
P 2.2285783448987315 3.8141172699914683 5.816573065417621 -0.09873936025444285 -0.6556001957796516 0.36828275994006254
P 7.0869210856297 4.126864198292893 5.8598980218738745 1.7955890280567142 2.371575014447148 -0.3743143108461231
P 2.4834996930176416 8.531293005324972 10.392285417596849 0.5149451691280292 -0.6501674547998544 -0.10824524286234906
