# total energy = -340872.57523321256 ev
CRYSTAL
PRIMVEC
9.22558810725840 0.00000000000000 0.00000000000000

0.00000000000000 9.22558810725840 0.00000000000000

0.00000000000000 0.00000000000000 13.50258073171236

PRIMCOORD
 96 1
Ni 6.600659220568747 6.05760420051969 12.774737393866728 -0.5676147316076031 -0.7923628293554031 0.12318026690562657
Ni 8.119523148959555 4.2882840054074265 11.546610495117635 -0.05592252219923272 -1.022895137885148 0.03214213195018335
Ni 1.4136091933449444 6.803520678095565 12.349730231931998 -1.5130587291931232 -0.28712640287470553 2.8920043466182
Ni 6.692868973990028 3.490934873972256 9.402819064763099 -0.03782015617156712 -0.23264524110768964 -0.06870630422746232
Ni 6.7846174480045 1.454635383786609 4.651112548421821 1.8925918652360247 -0.14120061474244713 -0.36791560640863086
Ni 4.006792860195806 8.001131176407748 12.17107764023337 -1.4988430998143736 -0.8970200977561777 0.551902720188985
Ni 4.220595865252155 3.595700652846901 3.6351511128349037 0.3912704790844875 -0.535795015993845 0.01800029323216255
Ni 3.403882224319108 7.326214825128038 8.858138496084445 -0.2861429559155137 0.7226941612146716 0.049301417338289286
Ni 6.302119188481435 8.135501867611445 11.749392612586485 1.7261602438409305 0.6098582136578465 -0.09036424881687018
Ni 7.807928909659526 4.657150695856962 1.2278962590456863 -0.0469030923094418 -0.2005434754771385 -0.8042937764650342
Ni 3.740219491000415 1.0287361074791086 1.2339916051272712 0.5688925698787622 0.3044139863105596 -0.1554622668677839
Ni 5.017529845221196 1.4871371307904286 8.537100944768206 1.0004746040981027 0.3281241854433059 1.2553406042772057
Ni 7.7851509325512565 3.5902298790821363 3.55325833462633 2.0552642766990026 -0.37339205614216986 -2.862184949263922
Ni 0.33370336126842304 -0.07760195716642845 12.533406156370784 -0.7676624983952457 0.27562534421364143 -0.8158526849472272
Ni 1.4373466316193773 1.5939971181719896 1.2154306443560579 0.6056362051566989 -0.076831504437758 -0.3275762833596359
Ni 0.7875921494223291 3.9280155631008262 0.136884663970812 0.1806248821763405 0.7291103491536604 -0.7819609172957888
Ni 0.9603375970373496 0.7759393090474996 9.812163023160196 -0.5311351486243303 1.2608584487716417 0.19126487838868994
Ni 4.077488542083478 3.1355190910252952 12.993303570077794 0.021841521355123673 -1.3882812930037058 -0.5266843119418284
Ni 8.094927730988454 2.3236212070993436 13.07342780304066 0.1739778091734681 0.5264973927420029 0.787287985935657
Ni 3.391584515333559 1.4335549148954005 10.85785760675126 -1.0324449863571121 0.11338642074365633 -0.16159820456219265
Ni 0.4943881975129941 6.943814196882703 9.83403781518993 -1.5456587746163315 -0.8898428632814481 -0.8400894460074049
Ni 8.15135142802943 3.0205774884364263 6.999319025345313 -2.2573013060025318 1.9279077669284992 0.22022398462520135
Ni 5.447405350015397 8.6345139298983 0.8608423966649138 1.5291512638796119 0.7628550497042732 -0.46083604598845146
Ni 7.814709716939629 6.209079132127896 3.2500307812070175 1.1388806868145482 -0.6253820203250584 0.2682794453715315
P 6.197002837257615 3.814420896379842 12.840130207693715 1.1653800186566576 -0.023617125198307713 1.0608983566017987
P 0.920210901438964 6.157600350327922 3.4774415287642553 0.10309018102397083 0.47800458734793805 0.8130013315413611
P -0.06870572252669441 2.9435899554398683 5.141121359246562 0.922589718695166 0.055525029650497916 -0.32059573827674465
P 4.318636190375512 6.7784363039532485 0.5677712932247401 -1.641025618854116 -0.601375372997816 -0.8975407461463382
P 2.366095814878391 3.952786267246513 11.773832118118083 -0.19208814562093368 -0.8966120636844817 -0.3730035624544995
P 8.731567117091087 5.925890478699216 12.881732074835076 1.1154921326872786 -0.6550936884568782 0.3267285906473599
P 1.7907512363526474 5.570087221050534 8.751778535579865 -0.1517493367925709 -0.5528933662370284 0.46679740577820894
P 7.049493308982831 5.175435011760332 6.83002394769323 -0.508680162054924 0.38416857793238357 0.7884290415186357
Ni 2.8583362954732787 3.2890697799641457 1.6587247670943561 1.4393724552525662 0.7862878268059169 -0.3265840946496956
Ni 3.39645562586947 7.107282393067964 5.990393023271059 2.1677340991656604 2.326909553218973 0.1937115401569696
Ni 8.718780451934318 0.4530732461626664 1.3003512605909309 -1.2793667919884741 1.679825622440449 1.1681087304417301
Ni 1.7037816169927253 8.49864869341654 1.1060465360604332 -0.2851075726724638 -0.8696784725184312 0.3939878780156505
Ni 5.622285598725133 6.38001082911534 8.291165216233486 0.16232479831557206 -1.3621529713477702 -0.5041925585972156
Ni 1.8983861731376492 8.204094115404065 10.799741936846106 2.7310550884939158 2.6931891666860777 -0.2986788835989953
Ni 8.18778327557927 7.619819167562484 0.674879448927165 -0.3967595272235167 -1.340799959593291 -0.40854854943864477
Ni 5.642812532328169 8.811322326528503 4.007633311275014 -1.7831379467775548 -0.30798730548411474 0.32221476193740634
Ni 8.90145632261914 5.411416330696095 5.440473243089859 -0.3275143197734488 -0.9226023171006562 -0.8697221812721732
Ni 0.8830843671024695 2.3886062499307097 11.538279789030652 0.021320358744331025 0.48332137157516114 0.2644587860738607
Ni 7.83326237468152 1.061975901533824 8.401562294106464 -0.20923406127260094 -0.8551224290811273 1.3503505793962036
Ni 2.528669129014441 5.153284374645324 4.838663219877809 -0.6188344490145278 -0.09526528566291334 0.4643345460600133
Ni 5.980358351055319 2.106746081193642 0.9381980306281059 0.1854611272227193 0.2350098846851243 -0.5838761877717881
Ni 2.91916059805522 5.094249836161804 13.476520502916669 1.0940751004640836 1.460048495544679 0.3535665367758104
Ni 1.3561430048445777 6.088297732248814 1.3825558636785076 -2.2236766759695508 0.5167937923009938 -1.014780993418446
Ni 5.077219400462385 0.8569556563831343 12.46062733668196 0.41132534085283357 1.1857292717369707 -0.34922574330861145
Ni 8.466746609641572 0.7971397105844787 6.011119229577838 1.185481674502539 -1.1016655112168316 0.8710938648087191
Ni 9.109502560678502 1.227298440934461 3.7015568962392438 0.22455115124564556 2.621086949403189 -0.4228960764095685
Ni 0.7606460515941271 1.947124955261174 7.55411360629768 1.2774196955644321 -1.3461681658837397 0.2158070865044283
Ni 4.81453922946047 2.1199478978165383 5.5094040699670765 -2.5661023656371937 -0.6720578271150427 -0.11102486249001524
Ni 7.935352732996668 7.132643534854368 7.901237430627829 -0.09615077359166022 -0.11773724151318433 -0.027542942615275144
Ni 4.935302178163279 5.58057671476139 5.358526033911282 1.2067254143726638 -0.6761877901230161 -0.638543754517997
Ni 5.7490082773639255 8.515494617353234 9.390815652039093 0.665612585710331 0.2677351428322873 0.12018878837747043
Ni 5.237495543152524 4.551978991104324 1.2309563866304627 -1.4461583678261483 -2.2270610190607516 -0.4567438781969489
P 9.006046815319198 7.828391264145608 6.049506901812551 -0.018209838139807345 0.8061958785837535 -0.10324470432396414
P 8.227628590739503 8.592150029176889 10.608856215278882 0.4843127889541529 -0.40617336433824885 -0.86486896694493
P 2.4290696794960667 0.4425459275404529 12.931489361888838 0.9990162743850215 0.06085981159985003 -1.4945640128230455
P 3.1516638702636386 0.38159154416579055 8.889572842540906 -1.16960768358476 -1.6220241380509484 1.8926533146015792
P 3.0324692715439827 3.533520188808938 6.265885691076525 0.9571486876169581 0.20039255172157103 -0.6242065119597185
P 5.050778864864048 6.725573683932844 10.459382313737416 -0.24772630381052818 -0.06776528047043166 0.24486055222695896
P 9.049001153681328 2.8168857279773487 1.7176227668734605 -1.8145689115933263 -0.10944851914183086 0.5776106664780504
P 4.00724491401448 9.144319930304507 5.563454945739424 0.10166424721072169 0.07914961104797337 0.13345593780002177
Ni 5.023877049858899 4.643782818647613 11.199418401435281 0.38042325195733834 0.09983002221546032 -0.0766867513297776
Ni 6.495367583170339 3.697726432045095 5.227929530814102 -1.080443882833894 1.5406242975162177 1.9289032980725491
Ni 7.4399386500829285 1.502350125627016 10.868011289053957 -0.113201815536676 -0.5682878464152277 0.002674204398053459
Ni 0.15758319351318192 8.389869783702649 3.229074857755648 0.2127256193656272 -2.7108377330057762 -0.4030037083610156
Ni 5.643144653501073 8.472254285758883 6.988841524899035 -0.29528862697052366 0.7327271199706413 -0.7099643723528289
Ni 3.1133684539102884 1.568488366975407 7.196727237724828 -0.41663595443246954 0.5166719220111489 -0.8743766493250489
Ni 2.025293363539165 1.9520237425614941 4.880035369874581 0.28349986186571174 0.8445976182904036 -0.41134848078128516
Ni 3.115259699478208 5.564856312577311 2.589295081451455 1.6544796874764929 0.16426906652613646 -0.008881104539713738
Ni 3.4667638330554222 5.436343869840098 7.336398029312771 -0.025732114658781488 -2.0609507855608182 1.222170031062508
Ni 3.757665078165962 7.933719803896561 2.293670335215182 -0.06292337899709809 0.23896347001623364 0.3813781596714399
Ni 7.08658017329034 7.013956343482202 5.470259899505196 -0.6062596976733108 0.3020282596872024 0.18160138715699692
Ni 4.082267396738028 3.821358538658261 9.132753810458158 -0.5088226011700592 0.39107096147917164 2.1959169893577792
Ni 1.049004724614332 4.240357075039887 7.0228138306517645 0.8744167585343651 -0.18344461101332277 0.0035545501204777494
Ni 1.3815225978072536 6.569347574434497 6.6993730136260465 -0.9415143235138107 0.707089364797879 1.2078307316217005
Ni 1.8876752653115252 9.052479200408673 6.019450858223636 -1.1857619247471192 0.08286896888108954 0.20454976842305414
Ni 1.9424568076642585 3.2294724806043176 9.14450167439079 -1.3013903474474167 0.2969793844093853 0.8642663003639245
Ni 6.068628778342445 6.516844752351403 1.6217135526095643 1.4519220097828027 1.4320352981612048 2.083550268127889
Ni 0.5714421547441325 8.774189334280313 7.951737377526552 -0.23926660307894926 -1.004409934596767 -0.27189441641629947
Ni 7.400748351680367 6.145422573988142 10.310273745486144 -1.7383850680418966 2.0333106552460465 0.6359392270156143
Ni 1.1657176401253508 3.9751398673005167 3.06716486340659 -0.9346016555543776 -0.13450417655887803 0.7633417595327048
Ni 2.7952978517386495 5.865259913468134 10.879191779316214 0.9262142028216307 -0.6290813235535165 -1.5653508537286203
Ni 2.384427058505013 7.797024264482541 4.148559705408293 -0.44823686916720223 -0.15146368723135206 -1.6684243225820428
Ni 8.446874692796206 4.857355184000556 8.828095368318921 1.6871044154900492 -0.0030434148120141134 -1.3962663680917116
Ni 5.272395943071754 3.7259106038011747 7.388558582076011 1.451342740240565 0.12417554093936034 -2.570603595941657
P 7.193680025963443 8.203162331002309 2.7939001751360157 1.130992028095091 -0.001560145398268281 -1.1687425073709872
P 5.666669903248373 1.705654411384373 2.9607246402852256 -1.6317215678443706 0.40123710337889607 -0.3274058192200426
P 2.5652947139151405 0.6740389978479575 3.0491795793350756 -1.2910501418636733 -0.6177134480362071 -0.16409191751832383
P 7.154701916088013 0.39989787870444476 13.305280671285475 -0.3570809776869721 -0.3803738867766417 -0.7228839086279744
P 8.832485825712936 2.850494545557512 9.657180522942607 0.9029022675685676 -0.5410796614315521 0.08718070888256597
P 5.348876068720822 2.4495781619228305 10.656817280322526 -0.8301716726730606 -0.8834960951278139 0.5707522487953203
P 6.41193136406658 1.5681285690380953 6.877201760304112 0.07883490802103198 -0.15728595034008394 -0.015051495016483753
P 5.947985762285406 4.914849049265332 3.27916887877638 0.18391923665689616 0.5302967118834351 0.5640897491734802
