# total energy = -340888.4143675046 ev
CRYSTAL
PRIMVEC
9.10742826533021 0.00000000000000 0.00000000000000
0.00000000000000 9.10742826533021 0.00000000000000
0.00000000000000 0.00000000000000 13.32964185926631
PRIMCOORD
 96 1
Ni 9.310432730970172 7.6423252970993865 11.925150764887324 -1.0588905821431507 0.8735796073450504 -1.1752893073505695
Ni 5.339921921782291 5.829965308644445 11.663676502490006 -1.7432115428962622 -1.4849401165800362 -0.05381935981330087
Ni 2.2565019374040878 2.661245152144568 8.379932260591334 -1.4665389883650293 0.33515049616246795 0.3318738822937252
Ni 1.9231973891298062 2.9102422379663255 12.734499672203107 1.7588914155253645 0.6141293302293747 0.2877727782094528
Ni 3.072354459167031 7.045670356227376 8.187505964768912 0.4733907427250105 -1.2572303651007508 0.34563494063355954
Ni 8.490081139697503 5.3657870177491445 6.349454832224922 -0.5334627683162425 -2.4788157273043825 0.4029407163335641
Ni 4.966535582187543 5.593718622242967 7.2132825532922995 -1.2090257803710662 -0.024790062460486338 0.3595533504868646
Ni 3.1184835827839734 7.067264068388436 13.110262139804107 0.4194672532336776 0.6204599004330927 -2.117642838936224
Ni 1.8417678739750023 6.33796854383288 10.436056206648823 -0.5233794159383116 1.4935119174094473 -0.3258654713161162
Ni 5.058329350585402 0.6383642296041955 1.4753651102913048 0.6075123391334892 0.421521564659545 0.6499895344610935
Ni 2.595817388262216 1.6320511257958652 6.292630855722811 -0.26666042171086984 -0.9967007388779673 -1.830947610061666
Ni 3.584100847328134 4.982528226031837 0.6311812010164992 -0.44124346856850455 -1.449977227351606 -0.20600089904728394
Ni 0.29534843068573896 1.229985494933644 7.277251307183845 -0.044185179157646484 -1.1615732433160575 0.1238073589666642
Ni 8.294990921139059 5.270541534079651 1.7525542399741176 -0.5892523644820369 -0.4175471533928293 0.23322708175308868
Ni 5.592962705705909 8.076376215650196 3.8477745536254497 -0.7250222951272158 -0.3712387572445929 0.3614017165495131
Ni 1.443973626918575 8.654506647650173 0.46442601294118036 -0.7146988017140207 0.3477764124565946 -0.1059523330631143
Ni 6.5093521268977605 2.2406367975539965 4.161647493183224 -1.2067323563511991 -1.3177960424989497 -1.1024442983643852
Ni 4.248515053690777 2.9748139036018872 7.386794542317551 1.492157974484714 2.0639420069786585 -1.128604501699521
Ni 3.7136357980100234 0.5761905498024621 3.7650909456133803 0.17061403490755778 1.211766576340997 -0.8861577011203771
Ni 7.514848625181058 6.020601994833949 12.661720392312148 -0.7041536792083228 -0.48995970282728524 0.7927947746864992
Ni 5.802979999014238 3.815128977395454 0.9586788530976589 -0.6355232225241184 1.5513874495699929 -3.060975703716012
Ni 1.061406999741225 5.654838572606897 12.950706373687169 -0.14155131321364653 -1.3334679447082518 -0.5428542368334716
Ni 3.828653508209108 7.799983985931152 1.9367701893126943 1.2472480570770583 0.37286626554568686 -1.2280694272660786
Ni 5.9421597161147535 1.7619776958885205 12.816624084126317 0.9291540021762449 0.4654524617145403 -0.9413983667612368
P 4.978857932484427 6.322258230261464 9.477894655470502 0.5786439928385712 1.1956601576974377 -0.547869687770192
P 2.799459481860405 5.072773731642948 11.700919508453827 0.7219477699669502 -1.6416239145597469 1.365733489610177
P 0.365828995709785 2.063333386186843 0.7751769261266178 -0.574292657848411 -0.3423516418965975 -0.7027915087534735
P 6.69171016089224 4.259043240640666 7.54500331981002 0.4754036593899813 -2.0703175714876987 -0.4054753098299597
P 4.05727727724289 2.395991307061953 0.3754919769847259 -0.1754703345585946 1.6017479043004157 0.9461970737014607
P 2.076102000463438 8.71299455127663 11.455974317419273 -0.6086117428452551 -1.6110506697585805 0.40037038450322654
P 2.7327748928923397 4.683485822485479 2.9159653458204002 0.401812773376708 0.35641943284357325 -0.12118020575646227
P 7.268392511815199 0.06962082380599281 11.858515356031308 1.1353521048359994 0.3990346964109386 -0.11957660871476827
Ni 8.643732560140036 3.6168784812664114 12.730527922783692 -0.4879393299631468 0.02725497906121113 0.45248690269280784
Ni 1.49574935599307 6.530936731630663 1.8201222494734455 0.881480864469998 -0.560598191080454 0.08192871645500728
Ni 4.369716707608698 3.0278100280494664 2.6173418839692806 -0.3859806914404578 -0.00619558728775062 0.6570125027461459
Ni 1.103838507526286 3.572889603266445 6.251641964557874 -0.4522855853152791 1.4582723774808628 0.3268764290791338
Ni 1.1030370538484398 3.9752102421170714 1.61068692082437 0.525563568073824 -0.3087424384825844 0.2960908111568449
Ni 7.340577987390299 2.2938423928491942 1.5845212797283237 0.472709914607902 -0.3848136677155502 0.37850212367522557
Ni 1.3221982050267418 9.028038706095439 4.597513522165793 -0.2111503044587073 -0.233555668737101 0.45777360501304387
Ni 2.3308367660243214 1.5541826150505826 1.5316426411039743 0.8856272825382038 -0.18317027430601357 0.615823944322978
Ni 1.1931186257527195 8.519807785203069 9.236201727030933 0.7000656251818782 0.23418096102592573 0.5062342716175926
Ni 2.6137681291603387 1.333063366818452 10.33645737232012 0.42420528213929526 0.23565883112303287 0.09826036373549528
Ni 6.7701251173269625 7.240541996510044 6.138793643745868 0.6559172127994382 1.050448107802752 0.5441433879585403
Ni 6.353560460838252 2.0844808343681933 8.24614323021715 0.28285682896507414 -1.1467369496341735 0.4163503048712507
Ni 1.5284814527905606 3.519820619393607 10.436109940474951 -0.9729355181375695 0.9607690579783648 0.6176342580588395
Ni 3.6393738288150486 4.5219200469742145 5.067077035330531 -0.41463460773172467 -0.051658347606240065 -0.0484678656934004
Ni 6.078252015069929 4.109399088587363 9.77102724888556 -0.6115659403775725 0.4113965604104012 -1.2195914717020544
Ni 7.904537261177449 0.3107545561567004 4.74250013545943 0.7013362643641856 -0.47268497490723754 0.3365008395427753
Ni 0.35607949386734933 1.2552950377829002 11.976216114565545 -0.4928714771574415 -0.9759262253347775 -0.4519220313282733
Ni 6.625890777599122 7.2946583346209755 1.7356390136574844 1.2249828179209548 0.6730978383437827 -0.06422281453481199
Ni 7.193829997491031 5.967979274940821 4.020113505904035 -0.7180612904283504 -0.5345408318717697 -0.7151160917570974
Ni 7.992569661746327 0.2290044595307582 0.7190879190768052 0.41943717132669056 -1.0401778362249958 -0.7189863733457811
Ni 5.611459892293473 0.5162008312728595 5.796154892353125 -0.2850723485591542 -0.39005229040667017 0.3815558228998848
Ni 3.4885821408139206 8.426383787165046 5.612298686426763 0.898534220407859 -1.4038490655349758 1.0025507699008411
Ni 2.1671671746087102 2.6352616596116687 3.7368852406100888 -0.025283714267453232 0.5935191101781907 0.8915891565485935
Ni 7.566077908566112 2.173178077192557 10.554076635911384 0.1303518449534013 -0.37706487700806673 0.5779248552843594
P 6.720863038423895 4.007104455524087 2.7854549895828593 -0.25891265944465086 0.8615211335186194 1.7253449470284865
P 4.462375681681506 2.4179584237774643 9.473149685400527 -0.27824118456993374 -0.9469313807643239 0.6046715272505844
P 8.752812227180533 7.0157433473023465 5.154425468044791 0.7556094238854535 1.6378361653825408 -1.5556899336000884
P 5.320395595812947 6.486328548515997 0.3603454132162488 -1.4353119120299476 -1.0417207552320835 0.8684834237690655
P 8.771464240046772 7.090233002201254 0.7315924179368372 -0.021178176739511913 0.9959921428467169 -0.028501964094434784
P 2.131602667654286 8.593732779556223 7.187262631046771 -1.151656755533294 1.2466798432784143 -0.3301090770838186
P 2.0440256384932756 8.562466978692065 2.58371088401266 -1.0238533880333591 0.95802851911875 1.1099588615738754
P 5.164685896606853 6.340919350555859 5.1416158703414885 -1.471043818213918 -0.3978460754194761 -1.4666156072392353
Ni 7.107473363703105 6.069508884038881 8.352646405831933 0.41898799960441396 1.0093513377624423 1.315117210115206
Ni 5.664328512746848 8.025584088816695 8.288117545108712 0.18264139838573706 0.4850715214970485 -0.21686201013150394
Ni 8.790753772884024 7.722643706018995 2.969231050141436 0.10133643155765773 0.7688140955011856 0.1781388825296932
Ni 0.7805202542265309 5.478072499501026 3.912756053528092 -0.015592455121618309 -0.6250236085443751 -0.10526636273968323
Ni 2.9951234683927623 6.791727936916181 3.8651160075798465 0.08622194451372248 -0.33321985479865834 0.715601001813316
Ni 1.6171058361896653 6.516692713992579 5.9586031776528365 1.2863540219395846 0.05399702304174571 0.8000162321356028
Ni 4.846390389935874 5.8032532218589585 2.5640634292488236 0.8285436501513344 -1.442862984904328 0.8005242821202729
Ni 7.923571786026296 8.829114260282752 9.372537194317912 0.07529501318857355 1.2011834015085119 -0.6348652772251453
Ni 6.06495516996021 4.16034604169954 5.4586081040431536 -0.9877450723465763 1.1211858406379465 -0.7465799666933335
Ni 4.427894958677805 3.4597753455522446 11.514317412938027 -0.8745152317854422 -0.592783774674063 0.8193604409901696
Ni 3.9056021687104994 8.107059141112286 10.369461781219517 -0.20673803432362461 -0.2521565716677399 0.2527921483692098
Ni 4.138788759251109 0.6189253349451627 7.909116476054962 -0.7055991534055978 -0.19063341545227816 0.7399259517119257
Ni 8.339471600259522 3.630384797223751 4.232347547225863 1.2743608541334503 0.9981564974878874 -0.6881555040078535
Ni 9.001244652456537 7.419029373537652 7.413453806019726 0.13878172088830937 1.567165795450172 0.32247572890827686
Ni 7.694028166748623 2.8245049092930987 6.337404794029941 1.0769415261075903 -1.9996572288576595 0.014368610016846221
Ni 3.4703126399302904 0.6636355212551909 12.656281436216583 0.3260444200961417 -0.39494072884722303 0.04220697238535312
Ni 0.10616893300141027 1.4440647012001484 2.8466514423433096 0.12986744911781503 -0.8762980347174779 0.6008984333613974
Ni 5.712679848834182 0.5373327968263425 10.510475734350921 -1.293480605682037 1.0164316416479915 -1.4239862026044832
Ni 5.386205871677908 8.31918935775312 12.643112095101063 0.18645151616044664 0.06200395250662225 0.05196250911022019
Ni 8.567530708747547 3.3100674415018405 8.573985143082655 0.2716380774311193 0.43624987200865517 0.06092666028204346
Ni 6.649114719400346 7.346816575678078 10.603623777315777 1.2299224213144173 -0.17274779342110894 0.18044079118999246
Ni 3.591614475557942 4.748312496109447 9.362780406532949 -0.8474548852335404 -0.9074986286899984 -0.01926681864941198
Ni 0.9426097068568429 5.1718989797074695 8.50323135521389 0.6267264501680948 -0.17061043536313197 -1.0935706500238394
Ni 8.268889032040112 4.983803265973865 10.620151937935724 0.7027398295799316 -1.0204749584794295 0.04847763588541328
P 7.412690603540141 0.254901431496163 6.8724835023873405 -0.07874209119690956 0.08641709124366408 2.3497324646507596
P 2.7405435291105533 4.66908697856872 7.133424069494638 0.010299067933162907 1.0526800824570646 0.9335642154287986
P 6.946809223579416 0.23323485990984405 2.7410407946879443 0.4516379244289512 1.1309493477826136 -0.6186066492744379
P 0.4862155348076234 1.9864575851107107 5.064037886554425 -0.1623772488200623 -1.2416656778932744 -0.8062424155509726
P 8.85448755512911 6.657985354425598 9.570136509333702 0.23704002774127564 2.2121969574647258 0.04207327502096625
P 0.37370054586617657 1.5673792784505727 9.592223844100891 0.8020129508506574 0.4907022374202646 -0.01645043224653941
P 4.611582677183256 2.321702015582506 5.353037529071679 -0.8379909116071633 0.34384133906824654 -1.6562509204443023
P 6.668568185944431 3.868079564702246 11.808022863584181 0.2560019135557591 -0.17924060023430421 1.4106434627489899
