# total energy = -340854.00320467196 ev
CRYSTAL
PRIMVEC
9.41762584977716 0.00000000000000 0.00000000000000
0.00000000000000 9.41762584977716 0.00000000000000
0.00000000000000 0.00000000000000 13.78364737935393
PRIMCOORD
 96 1
Ni 7.946093698063357 2.315813072569355 8.311773523923728 1.3520660194254133 -0.490131195408143 -0.8430932658307351
Ni 5.939103417808396 6.576930974989325 3.384988620057138 0.22444445046445216 1.2614397751964082 1.2273826856116992
Ni 2.780233881918954 1.7511416342801749 9.336023228265116 -2.629768793447903 0.9648049186106352 0.2080320705446998
Ni 6.549525683282967 8.265426561011529 10.25875563296778 0.49857161286601237 -1.489556789416441 0.3721514988668494
Ni 6.966283887365941 7.3227410320689135 6.220615094676592 0.1575623439299222 -0.7786557641819558 0.14758157856812648
Ni 1.012046344549945 4.84754405680595 5.486277589609611 0.29712645151021083 0.3736836192406596 -0.34685158664948007
Ni 1.44940089672976 6.91414790974175 7.316801335340665 0.137393325181215 -0.7000550836589169 0.8600273225819124
Ni 3.2792079611210023 0.535484331740608 7.391825911233975 1.4908852784198776 0.8035481565482612 0.4755702668748326
Ni 1.042295759313114 5.356868106999506 0.05914928371825503 -0.3979576612966759 0.40333718044103445 -1.6225908091876957
Ni 6.8205367071434 5.25322713269419 11.077697323111476 0.21124466394472652 -0.15781354070877981 -1.072848072764507
Ni 5.790794643309522 4.381748274058024 2.70005127225672 -0.7336730288236784 -0.7202626689550434 1.5453960078732483
Ni 8.905137643395644 7.860817094489105 9.884639497722338 0.2984120030908538 1.481142854321133 0.6516509813239164
Ni 2.8930287887117543 2.7754026397727816 5.882640041029884 -1.1516295018397844 0.08929904077714944 -0.10691958207239005
Ni 7.700623275958127 1.101268933424871 6.244819335300136 -0.7791602146222 0.7697106391735259 -1.045063703562387
Ni 4.618676909366806 4.198048060991283 10.665428501350295 -0.5968170642031722 1.3721069972366886 -0.05528745971839511
Ni 5.843476843242637 4.97501162493157 5.146758987058892 1.2000001798336881 -0.9337151391843661 0.3833244847645334
Ni 7.300223488264823 2.8203341334947867 1.134112904155429 -2.1754242687210663 -0.32747421056413284 0.6126509459116353
Ni 2.174350912184062 8.399185103315792 9.109530264344588 -0.27360985644550945 -0.2639679624803712 0.4069691207666668
Ni 3.549032364103429 5.906961060216025 12.86856532921465 -1.1432135098619471 -1.990726244916617 -0.04841335830638114
Ni 8.739001302848614 1.6965288210137937 3.303140974115287 -1.3010355352111593 -0.22493733094047066 1.1524509692998153
Ni 6.190045480628881 9.180593786735598 4.6829248958100855 -0.49137278112472793 -1.218095089662186 -0.963932800418327
Ni 0.8728010933288022 1.6884955860222048 7.604245174836296 1.131758216837154 0.059535179251155534 -0.7393675081052944
Ni 2.535309682122648 9.080380828300079 1.9706759143375319 1.9499907148704676 0.3908652732262688 -1.8141287387321146
Ni 6.566562168745785 2.7884554694308616 10.131408610455164 -1.2499610851328473 3.81517693440003 -0.4822944729725435
P 4.402278698772753 2.6014308343804964 4.2910282826465656 -0.09442042116411481 0.8414264196512735 0.6180124673338646
P 8.167379656559676 4.098710941775248 9.362157140459324 -0.8368146319108749 -0.1053167563616444 0.9819968570088894
P 8.491006956971114 7.132288381148749 3.511287460794181 -0.8774372905282436 0.08782914109984229 -0.3916672003022738
P 4.503358078801735 2.169623263924065 8.465764893960616 0.7849778497452417 0.9339902472226237 0.4063253165350809
P 2.683072234312599 5.089115581740584 8.141091295298809 -1.445478311039988 -0.16201575171558552 1.374786858061697
P 1.0788267306289085 1.8899197712509275 4.656543300051659 0.6706879433507095 0.5104246555498564 0.2260195082610559
P 0.2894714543768606 7.775267379760392 13.364776276943626 1.3192026930384892 0.03903731640811987 0.33941801318957027
P 3.9429245722197246 4.948614019208916 1.0905620344073597 0.09444278976161799 0.8754850518978794 0.31750038718087253
Ni 1.2820779353047218 2.265231003237792 11.381364906944752 -0.9447860522865471 -0.736729556261815 0.4269136822093938
Ni 9.083516897763385 8.639240390461861 2.0178158413602723 -0.4591861690898543 0.38698830676936574 -1.7145733103342793
Ni 8.492099401588963 2.128242215210066 12.728027037941521 0.1299263273802085 1.3238453340168232 0.17708447312324985
Ni 8.334363583448141 4.153954735984696 4.145431784440279 -0.2556013356832308 -0.01694999759077726 -0.3235550780153847
Ni 4.459952240494312 1.9744994704999999 11.150447542321938 0.1948644228144902 -0.3492421983688436 -0.10527021939442516
Ni 0.35473089385425133 5.981445064376019 2.156231399729412 -0.8442384351787718 -0.20745820031910078 1.1407632485492418
Ni 1.134258877358676 0.412839529897746 0.05004620641125656 0.5550042419324441 0.2100089917654125 0.5637488208942936
Ni 5.235635007296431 0.879584609348077 6.3056195288589825 0.3137216368647307 1.3129536268049842 0.4910537072224124
Ni 4.619307890309872 7.334381217824603 0.9054256333731888 -1.064893850914437 -0.3078654351942698 -0.6759306798068875
Ni 4.619844694992781 3.401241559035431 13.35919350824138 -1.1529574766225885 1.175302419976692 -0.4878416280430179
Ni 1.8373976709600828 7.854253009156002 11.805074260790082 0.25175470824363094 -1.1063364343299398 0.580535296324013
Ni 3.536685856396544 4.994327175890244 4.349153870416889 0.4130081278718952 -0.8280214590992773 -4.877137156607439
Ni 6.170937117442559 5.476151758117282 13.451185820927593 -4.415596628352795 2.3556999950881043 -0.10557772333251494
Ni 6.571252146501719 7.776811870427005 1.5226521336442693 0.6800393026586223 1.6156768556766818 3.0125453761287666
Ni 2.5120952339933793 6.612312995931176 1.192262035990792 -0.6195255615442815 0.40581366700598503 0.6089637268680351
Ni 7.526924581720303 0.0878071196847317 13.106760635222575 -0.8802032833091551 1.0807449590140807 0.5219223717768108
Ni 4.207371510747055 2.9325074769705357 2.1098495916009536 -0.5050777894156462 0.8253374845092109 1.1178480345139652
Ni 4.734711479509086 7.523628412614729 12.017893773498082 1.2747562897996563 1.0690654657936232 -0.8389759012282518
Ni 8.092471859228965 4.653861160162322 13.54586592407875 3.0754150190697938 -0.7922990659970033 -0.17452751102935105
Ni 1.2161639708192238 8.529233100969776 3.6556022200996994 0.2570149282013058 -0.6454229981363335 2.166243887773379
Ni 4.522758388394553 9.197253567157778 9.66064126293343 -2.1455861023137115 1.035643952910384 0.7096797512328745
Ni 3.726262668097226 5.063311286456934 6.324116688116872 -1.1147508836458802 1.0760120723147855 3.5309183399914224
Ni 2.8921906199963363 7.690103787698332 5.578297213411268 -0.2929188411867665 -0.017129203481118887 -0.6144149797905935
Ni 7.690951374039766 7.47192564578727 13.614177616147904 0.3669959228078389 -2.9891493658023296 -1.6259471272544384
P 3.485821258284503 1.608737711293289 0.8129304194577269 -2.043969163401157 -3.3719272340347732 -1.623934981920416
P 0.3305822172242023 4.033154847078356 12.29127803911453 0.31901450983255386 0.2784047067309915 -0.5972718923524036
P 8.98721225412448 1.4161566768935252 1.1257199158500315 -0.8237171752969684 -1.3117863459697603 -0.1351307543992834
P 1.695266859127659 5.974993990555108 3.8978640570213012 0.4697132938734233 1.394653515078637 -1.4485350955884408
P 5.395292021144503 0.37294834961946743 12.26300820933991 0.5395495979402708 -1.892976245158637 -0.7110864017724141
P 2.885362841134787 3.554202640786175 11.881035890471978 0.9811069982047682 0.8303742756021699 -0.2526152564717133
P 1.6669480576977556 9.110611407811218 6.694648474900652 -3.1735018333419025 -1.3622717563138216 -0.43733410621176944
P 4.889226469552458 6.8612679396623 5.706636853705963 0.4226165974959367 0.30782429754368923 -1.2273356344238477
Ni 1.112108620969207 3.6895810147651766 9.465272611232951 0.41879208154352393 0.0597894613538067 0.8170675311909348
Ni 9.047390884366274 5.8828707728672756 8.96218302946194 0.6621241129410984 0.22963165109234646 -0.7676745825801037
Ni 0.37317343088124816 4.015581556932628 7.407138971135878 -1.1810022985749467 0.2833610222950023 -0.001702327403087391
Ni 8.865282250096227 9.26017272657021 7.775920963005897 0.4777562187825578 -1.3012239970728816 0.2401297224101929
Ni 3.4003751374419653 7.363152065303271 3.287606600002009 0.8189773466191379 -0.13990555008010747 0.2896219156030496
Ni 1.814851874277945 3.732374707381565 3.120824210310286 -0.36067589412708206 1.6956003687762022 0.8516740655212106
Ni 4.99894181263805 5.395320274022549 8.169801869970973 -0.5547445605131544 0.7853385755187701 2.3200380229101207
Ni 6.066975943852701 0.865766126694902 8.597825438294205 2.6836467744132815 -0.4515065410574095 -0.749625952608509
Ni 5.653391479737095 1.505143825118053 0.2493486004985901 -0.44716934713463635 -1.7133216973153655 1.0152849296380577
Ni 2.7269866244248826 0.3954188052934777 11.066022292139527 -0.7955980484632491 -0.7015157273648435 0.6299734963504828
Ni 3.428769279879996 9.21213341626295 13.093348994013288 0.6607287752554686 0.3715580882572246 2.178728393393635
Ni 5.096894540829743 3.3200616227781095 6.895986017970028 1.4750873921556726 -0.16420453183678815 -1.1740798604235005
Ni 6.243471673017256 1.8452990591874485 3.3643677861326564 0.04915023647240568 0.5952926571388457 -0.08622657249941279
Ni 8.418990370827293 8.743907886002914 4.864690728493154 1.1242297696705927 0.13986621220173975 -0.16876695439648998
Ni 7.067947160207912 0.9820417880631902 10.956607371323845 1.3760307577711268 -2.303526912628975 0.9508924222946011
Ni 3.401307482417542 0.695154530265101 4.735647591535069 -0.6894675379510578 -0.836066698001257 -0.7922083060554098
Ni 4.339350121734305 7.774956598101866 7.621268475622692 0.6207712610259245 0.03551799040095173 0.3807929765919313
Ni 1.4290682421613659 1.6542813507063292 2.5201604889134224 1.3634614057465486 -1.5218053650375016 -1.5491804146163448
Ni 9.575747956738027 0.045955189669936315 11.7705596032043 -0.8862194075962478 0.5116698408108672 -1.983083126549062
Ni 2.175481027305974 3.2625670159508537 0.321006375091204 0.3003547286395214 0.06790617692367015 -0.11985814451092908
Ni 8.824711117219598 6.254688065602229 11.944219685175456 1.4037536776076922 0.04434921553933653 -1.2209778105266198
Ni 7.088402243914513 4.6806731414296765 7.428724169964391 1.68722191490452 0.48283414752609743 0.07034615382373045
Ni -0.052026733162406746 3.422930351750119 1.4642091718772092 2.5364099807790836 2.070317828598015 0.9211465584907362
Ni 1.6020041086918986 5.923347729483744 10.570031716859326 0.36992183820538227 -0.5454942455594799 -0.7145679325631114
P 6.9571111196264255 8.230873291159082 8.15843102831934 0.17699011363723066 0.08234009296081303 0.6512540029958139
P 0.12571588968665695 1.0600950724832228 9.57687807185994 -0.04803334925914308 -0.3545026754368346 0.7570345863677542
P 6.571308652257814 3.497094156625572 12.52364289285599 0.40619367605322304 -0.8405527587970685 -1.5225044479870553
P 5.3582242451458 9.389646249037224 2.680258247659039 -0.18279746434762711 -1.411957296464407 -0.5063767107327279
P 8.926873524240412 6.283741441861375 6.753546308004282 -0.4638614630783366 -0.8669615878079006 -0.565169098280588
P 7.17186124566769 5.233685558711135 1.5739960889205211 1.9777632569980454 1.420910906113269 0.4436217389926941
P 4.280452288630675 7.176937346090276 9.885949489501154 -0.19979502734688814 -2.0325395814079767 -0.31643209381735826
P 7.304725113500438 3.197218109026311 5.843577611841008 0.07101566908692931 0.0498968848304431 -0.12518572737142955
