# total energy = -381166.57933743275 ev
CRYSTAL
PRIMVEC
9.31551288543227 0.00000000000000 0.00000000000000
0.00000000000000 9.31551288543227 0.00000000000000
0.00000000000000 0.00000000000000 13.63419473430800
PRIMCOORD
 96 1
Ni 5.800406519759654 8.445211022773401 7.222632874952309 0.28011243345071757 0.0005962388231021989 -0.3480049835276329
Ni 5.675373706867544 4.138118467985941 6.593755647086991 1.0038625467337292 -0.5464756356361428 -0.4250727723459131
Ni 6.486866658488576 0.7875874826563665 13.122244016796095 -0.9645390665437582 -0.38249787509817995 1.582911231209887
Ni 4.210975093647481 1.4676031496255826 10.754066461232437 1.6746384218125547 0.18321064062564577 -0.2687859526943049
Ni 8.671550037438845 8.705300140337675 0.5435284995299346 -2.4633479706860864 0.49494224364354117 0.9259354952389474
Ni 7.1813288227184895 6.230988152712947 8.369609115487712 -2.80318353102905 -0.5146690326485072 -0.6899514195660117
Ni 7.868180212985294 1.5379911643933357 5.676064917917804 -1.9391571145900732 2.8278121282110074 2.144220332314436
Ni 8.775445951772454 4.4380779803630785 6.052832696489102 -0.5862721988077904 -0.4547623289905458 -0.2663765719218638
Ni 0.6691975619467451 6.730728152743504 5.246493086552762 1.3388680326779006 -0.25197505178455315 -0.6134261335147629
Ni 6.7802214722857315 3.2836530557874024 9.681887267676217 1.0276707048969205 1.7016134077395015 -0.6663340372573879
Ni 5.24222099237959 7.875446312974554 11.86136793272392 0.29927589375304586 -0.6152030229095276 -0.3177323006860206
Ni 7.505806764802975 8.664255990911165 11.67823333490487 0.5977051232350803 -0.6755427003398495 0.616069484674881
Ni 8.89107941224256 5.238289845975143 3.8164016438973736 -1.7927428168571706 0.10934953167012135 -0.2210004577799097
Ni 0.1685558202764958 4.32740037270616 1.66727091957404 -1.2293187262921472 -0.10623052642516544 0.31094021746485156
Ni 7.599940021715118 2.8497737313005214 0.3591120871486775 0.3122795051015654 -0.8367346706025589 1.153662215999097
Ni 6.832695755926117 7.363717247961719 0.1654481652041662 -0.7736858217711902 1.406942616858635 -0.10034398573740137
Ni 2.7237627895637035 5.312897788044351 9.206530622417311 -1.9408316740790186 0.7330194544000795 0.847249968311586
Ni 8.287993113133991 7.266547133874577 10.10518789581976 2.1779802023737007 0.34922471486734696 -0.03912267703307455
Ni 6.3710003101983 8.824268554392596 2.436021503783891 0.6049571768118033 0.1020851367982242 -2.109220933421116
Ni 6.191602164566036 8.112656531085467 9.676651949478828 -0.9677339193319721 0.45360430412670266 -0.772294083629986
Ni 8.486786156429897 6.106868260075898 12.965355876310046 1.279542141224074 6.787712345794761e-05 -0.9026893802268131
Ni 1.2747627190131874 3.960630002479059 11.167400422224045 -0.24066399764710808 1.1157495001137236 -1.409482095451037
Ni 6.555978448001804 6.682259539610018 3.4865905707310265 2.4234243950182717 1.8952717260610328 -0.02670964808070239
Ni 6.3924632517050375 8.880785770591109 4.627745547313497 2.006336697760364 -0.581186813865083 2.4550397079307076
P 0.48817572243226537 8.775017438183344 12.491826003112543 0.8237256599374008 1.0767432940538553 -1.9273382675782744
Ni 0.3992461109739701 0.3609789159151489 7.705937515737928 -1.0985935571597274 0.05231809267742602 0.3524072263603866
P 2.3747664177718684 6.175970734076321 7.165655472421143 -0.15228849712549256 0.9766389351310857 -0.5445611922222492
Ni 1.6652038072822237 1.6534755766585336 11.624609516984135 -1.0829694774692253 -0.5461329075847433 -1.6735963537012855
P 4.782779900751005 5.088869020554979 11.852792071634033 0.0868094415860763 0.22360884193703423 -0.24283375160491727
P 4.555695645061021 1.5796035601010585 13.499324796597701 -1.330916896151624 -0.6507855479998276 -0.6277055262519124
P 7.925023472132042 8.84876835307433 6.657577156877271 -0.25952946709304336 0.914214093036961 1.3310634490318172
Ni 1.2102341618008758 6.25846891549284 2.474006438804668 0.552190683743049 0.875816467095369 0.6812762603895169
Ni 4.791853210224773 3.5282970531180977 0.6110491994557721 -0.2156728749194092 1.8514794114664308 0.5790188596794866
Ni 4.06474948912003 8.278398134943046 2.754680045018004 -0.9003283361938043 -1.9653003486443443 -0.414399351792467
Ni 1.8966943005297974 8.533717709950269 6.348749276308114 -0.0472411923751509 -1.9714481134132948 0.022420790897361386
Ni 6.815266431464701 5.6350375364143455 10.81242069655644 -1.0350510565213915 -0.6252976881413682 0.6608100221153652
Ni 8.388423656703493 3.7663642984072316 11.874593166255654 -0.9892987899869414 0.743513669063184 -0.453542854761148
Ni 1.0959793972261682 4.455851978798345 7.728120546384626 0.24136308059666173 -0.4779943029352929 -1.1886281905513205
Ni 5.537997839506499 1.8651519741661642 1.9686957621156784 0.9741413655202127 -0.6322900602988014 -0.7952836025466239
Ni 3.2969928701266586 5.338040357109751 4.982630254750474 0.11227184752323892 0.49028828981129763 -0.05203167178525878
Ni 2.7042654212591897 4.712047212009402 1.1713959258070012 0.21787579610799898 -0.022788972870057527 0.07178417182183766
Ni 0.9941981042996897 2.2545217784624247 6.190783330990324 0.5482067593946365 0.17508981129072426 -0.4894575663798861
Ni 7.063785682123001 1.0999571211946475 8.237466703221497 0.5835874528867756 0.15951792499439624 -0.22686180165669315
Ni 5.483595244715117 6.415183787440685 5.85332329025836 -0.009618496926370531 0.03136334480262986 1.3634848027853164
Ni 3.3493833141517837 0.8241042928588005 6.936097016529689 0.6457256169784169 0.9261254997625663 -1.049473916814941
Ni 8.87131189406665 2.617342371259467 3.8391985668380357 -0.20875120809891148 0.5147844751804489 -0.18995747243117608
Ni 9.252558571195431 2.8239790763386488 9.027268483272026 -0.037950768212160445 -1.173108754759483 0.028184689964332106
Ni 9.195491739741321 0.11752544112115544 4.976617091233721 2.3112546202905357 -1.700648472723071 -0.8645072127301369
Ni 4.792635713300539 4.539561176879741 9.594327968151793 0.9676400740665851 -0.7648509970883796 1.8134563952554381
Ni 4.8877564145701955 6.292042023648343 0.0832126812487968 -2.935748581583686 -1.0412744117232842 0.015658018252231096
Ni 8.428172949849866 1.4912459211290974 12.263562403501226 1.650591665275996 0.24730669977460637 0.2563083890525844
Ni 2.165605208722059 0.5253520709414169 4.40456728614338 0.6959158646795627 0.21368695483763198 -0.5171254646087997
Ni 4.875441306639682 2.426625877567009 8.41828360145423 -0.1524191091660859 -0.25638963591248104 0.006825507562265664
Ni 8.728188355303844 7.925703504566934 3.2651850516480336 -0.2933135055220239 -0.8659244047926377 -0.8301246214852092
Ni 4.945810690381821 5.5685620370254245 2.4394440231890884 -2.916067815325307 -0.19280522629261634 -2.7791971954167813
Ni 6.3327880766650395 2.3229814820791823 4.031944910771083 0.6955901059090278 0.5531995846235376 1.9304102216353787
P 2.71805238021317 6.973397261359169 1.0273473566224862 1.7969681677924279 -0.5888232473644182 -0.6006927451084945
Ni 8.98444879710455 5.1924947850171925 9.322353187797393 -0.16652726643269386 -1.0417248689971415 1.7569183509593935
P 5.580830567391906 5.111664080393081 4.303578743356756 -0.7409608207343433 -3.801643418689969 1.588763833335922
Ni 3.5962071414792574 2.5607226844200808 5.331692766683237 -0.21435852698335983 0.5469034672021807 -0.1978240196634464
P 2.251354504108132 7.617145773869172 3.9661466491632122 0.01831139671467814 0.3767152069781319 0.5120557633953763
P 7.589981738524709 3.650628367296252 7.694961978549023 0.13085886649680686 -0.2484223014362883 0.019079642339270366
P 1.602128470067764 2.5863962377154652 2.0106211590537075 0.5297850623543392 0.9394816093544981 0.03664490491654334
Ni 3.188746611312301 3.2268563742046874 12.323103435156806 1.3156622839853986 0.5873875433591561 0.7389687300049789
Ni 2.3937607483848184 0.7285010480257543 8.99533676847307 -0.2292380151983536 -1.978991730088508 2.7796340258438836
Ni 3.72409050129023 3.4531394957932915 3.1121004350409773 0.7386532556470892 -0.677029312187705 -0.804599480630911
Ni 3.4125052289302773 4.161873025643136 7.145504155117596 -0.040602089792078466 -0.6238023345427643 0.05813418513857085
Ni 1.3765346964268592 1.0806926407103021 0.16367542311704295 -0.13995260126795897 1.231201288026841 0.1933950373578153
Ni 6.642966706591174 1.3665577822108368 10.641052522963587 0.15524346598875846 -2.3120989705687016 0.1143842658805514
Ni 5.4940565655970905 1.5172268863471046 6.352675764956156 0.6715770308238822 -0.33015895648514754 -0.7884143862306163
Ni 9.049871643546307 0.5527210475676291 10.26330382089374 0.6895703820775091 -0.6844970813196598 -0.91635530774968
Ni 0.4219321793122323 0.7906289975877681 2.5527579209703153 -0.5513797578059795 1.2394028500010268 1.127726984190574
Ni 3.2852366929645487 0.03247015143918481 12.120076491290238 -1.491731685580573 -0.8743982465916037 3.0335047519892533
Ni 1.5454901522027642 5.946650755312719 12.959588642331392 0.5350514529596011 -0.2527960050239517 1.6404052116612973
Ni 4.678865355391782 8.568222369386447 0.39253242089415014 -0.72841769396201 1.1440396053076682 1.0678799301259545
Ni 5.731546249092206 3.118302703467707 11.95334371687002 0.35282168818998594 0.2514554318356573 0.3188224484264057
Ni 3.0914088179946386 6.499694119623461 11.181007591780855 1.0171335528110224 0.5952265797876006 0.22484297145445148
Ni 4.73050124287956 0.7868655304138438 4.021296348081695 -2.3469042511733456 1.3824207204578707 -0.18828831225886927
Ni 0.9929218790451658 3.47434160294144 13.383584207730317 0.11329566080206294 -0.8822779064499967 0.22470490321469044
Ni 4.570824037859172 6.120916053388467 8.064830688335647 1.1857801795795644 0.2994173044269166 -1.4365745807924548
Ni 6.6882400988319475 4.886265932521118 0.03701984789399829 0.10265617881034579 0.21943157063089305 -0.036074377125054
Ni 1.5953374612316482 3.957416150560732 3.9180180522471724 -0.5435391787156381 -0.45729537982504465 -0.03191613198230632
Ni 2.8858620279138454 2.934852309764509 9.834140008989632 0.10199231997410177 2.072195505236702 1.4052135499826701
Ni 7.642139294729665 7.001790944394124 5.80306796176854 0.12858112620622372 -0.5851308861144955 -1.5986222141872402
Ni 4.211217296980457 8.034033602996553 5.110805190112298 -1.7516990115419833 0.9073397345146309 0.5776446050397793
Ni 3.3218000807310166 0.9990980640360366 1.989215042175092 -1.014001949160576 1.0974396460609421 -0.6204403600490669
Ni 1.3562268785081584 8.563555297470268 1.388452031960526 2.913622181998292 -2.9843228909479635 0.67924251778894
Ni 3.619561132085763 8.13315997477311 8.138550862034373 -0.8384627090372593 0.019479191770534192 0.6176296300731493
P 2.2406602954059904 2.4693002417347003 8.036948426953783 -1.5326754749827862 1.253797171049486 -3.990110422618548
Ni 1.447621374655118 7.88715591257263 9.635435463065392 -0.057471354743591344 -0.557393310989911 0.03146181805370711
P 7.720669067690512 1.096053921328622 1.8490827145745319 -0.55090487505209 0.8494804003040014 -0.21788273808653447
Ni 6.814223094030345 4.093348113436733 2.698302561511593 0.7884352121662229 0.6496439781962167 -0.8711684268003964
P 0.8394748889899271 6.075912811019091 11.000368619842732 -0.5788982749412224 0.8348127709894977 -1.371314069021748
P 7.913788963687109 6.329686010900394 1.684954557535081 0.6658640395995049 -0.814168869486901 0.7371370761128788
P 3.8999301210303186 8.640827476202205 10.292916904555096 0.1203656802749669 -1.0646704220497214 -1.9055921341504343
Ni 9.108578005254405 6.565638634782397 7.377953214632984 2.6791900241935083 0.7155068994376129 0.9857113297459991
