# total energy = -340853.83363938244 ev
CRYSTAL
PRIMVEC
9.44143826234576 0.00000000000000 0.00000000000000
0.00000000000000 9.44143826234576 0.00000000000000
0.00000000000000 0.00000000000000 13.81849925214414
PRIMCOORD
 96 1
Ni 0.7229016745094374 2.4227580820719163 13.59528900576845 -0.5965350141863791 0.06940795828017723 0.36949992017661526
Ni 9.213947001408345 4.512271152219816 9.996951929017484 -0.7582944269167844 0.4003665278484847 0.6345909405178362
Ni 9.320625814580643 8.55767261397525 7.940372484509697 -1.4919664272991982 -0.31748701744443386 0.4862801970931689
Ni 8.293623904532847 1.3396551446880909 9.107592973719107 2.706375840579681 0.6066109103651424 1.9697725254830851
Ni 7.337687701781972 6.104730253143103 11.092068152699252 0.32077777238056365 -2.008985705347437 -1.5319303692866457
Ni 6.245898641013908 6.875652027809689 2.5535758209577852 -2.0972869009876915 0.3172543326083375 -0.14749107573684922
Ni 4.519040663596445 1.7271128962559132 6.93761902086162 0.7892463952136085 -0.5851360283208181 -0.58697950928746
Ni 5.0331364292433936 1.2708270583064587 13.496722276521952 0.12700144042392966 -0.8204755284312193 -1.6495830215058234
Ni 5.576793338712139 8.955704776619537 7.803901212273304 -1.8701538479474824 -2.6908816015988237 -1.6648463754227973
Ni 0.8604653211757829 5.728998768144003 3.5769182294580473 -0.9892620232117348 -0.7607534299802382 -1.131500078079761
Ni 3.455188819234862 6.07828478401348 11.90172154036493 -0.2618748273967683 0.7329865442796151 2.3454693184990316
Ni 6.925285669799846 8.375594473252372 4.817584612600429 -1.9276408864203578 -0.391223685006952 1.6873293870166617
Ni 5.787110821872254 6.080579053559535 6.964551668215837 1.6243322173588348 0.5590303323727017 -0.012106296345230763
Ni 8.161226612992433 7.861583680551573 12.127212359275925 0.7264518284848908 0.15118857919309445 -0.8064992687567852
Ni 2.6979854546522954 8.336705188230981 1.8820799464376583 0.10427931623606557 -1.4182169042208734 0.23275605565394109
Ni 3.0791457667665445 0.9450879899590382 11.067277767731865 0.29049480512630615 0.5656972028699161 -0.17039780513169364
Ni 0.6436993355467164 5.940147097888698 12.475189791774689 -1.1411864521295894 -0.6892474515204517 -1.5518924142308692
Ni 8.843077857216727 7.017594613634308 5.128017220914667 0.8028156492576108 2.4326551695879197 0.7632646264378662
Ni 8.671668541954924 7.659990086529542 2.000310359567149 -0.38769741702124844 1.7031663540489184 1.3428617272183259
Ni 3.9863547056195325 0.8415399577804493 2.3385876581909493 0.5458014923872535 -0.9651882700919828 -0.36121968244569397
Ni 6.953581660867851 3.5947332796903524 5.829858822792708 -1.7163823385185601 -0.5904039615879767 0.7572716420792248
Ni 4.441026057592134 3.4595035566115975 12.244959370756206 -0.6676522418481793 -0.8422340031542334 -0.4557221218006539
Ni 6.426088494044559 5.4546116835866645 4.558791951949337 -1.1553861406687391 2.8595076595420754 1.059087014424673
Ni 1.7725073323770226 1.5865770847620042 3.2971495249778653 -0.5164798606050008 -0.29524620376836247 -0.3879707252872931
P 8.890757121445429 4.0241393423409715 12.182886633593512 -0.8903845947175311 -0.2996628447788194 0.4742145241778865
P 7.982424651415567 5.910954170166886 2.982640103536112 1.5779842262219148 -1.9820132905236514 0.4702198011961966
P 1.2564288646532367 0.055670497742202535 12.175217353131536 -0.3534161272408752 0.6408901432629865 -0.9425759320091057
P 8.90865808876773 7.362443153427053 9.935736474467062 0.6816603832018131 1.2576021466178728 1.0604499562104706
P 7.3604887756655994 7.791122225316165 7.088668818225842 0.05932306324034944 -0.2946196259279571 -0.9664887340709614
P 6.919403653638563 5.172529826683506 9.012991648626285 0.3678464437335923 0.24454276387622395 0.24925970973591915
P 0.8743923870497947 5.685785304307414 6.483377254339 -3.210110228593556 -0.5703352158625596 1.3723196274681269
P 2.4243631266103085 3.712609638877551 13.31024159304465 1.391424466618378 0.7075089688338009 0.6989330542393318
Ni 3.7224098520002027 7.9605960456934355 10.23460237652257 -0.4967808395141767 0.06492215459468173 0.7537399747768825
Ni 4.346470051403925 6.607873950175142 5.27446620531678 1.229579436152702 -0.3552848050184978 0.21188795395568022
Ni 1.517437430911155 4.326095427204808 8.565797915914898 1.301944163068358 0.29905940686686566 -0.8880752298580641
Ni 5.710474665883268 8.284966105463992 11.793564197929616 0.17563565649186527 0.6168618986691892 -0.09411780232203146
Ni 4.6879007904737415 4.894082923587882 10.30608539539947 0.5670691435167782 -0.5092231790425875 -0.6664649064082975
Ni 4.1744281597652275 1.6007581253306205 4.437617698307666 0.8914631724936904 2.859444667514624 -0.33657797263761385
Ni 3.4719568139418273 8.863707400254293 12.900591740373944 0.7205079521966301 -1.6563072276035344 -0.06773802677692205
Ni 7.203090555080114 8.754857056235934 9.555160587393557 0.9928502547836255 -0.6249336199337302 1.190290151634776
Ni 5.75999501061189 6.977411851543741 9.221955229511074 -0.9614861386500474 -0.31559828506215326 0.22001803926198238
Ni 8.715656203745326 4.060139547193257 7.213823582322725 0.8931570152563457 -0.9734726215879623 0.4575069816152186
Ni 2.1096044511931815 7.2323212485557695 5.993968017836365 -0.048238780401729825 1.0751582089549225 2.395926703818635
Ni 1.081365712706978 9.201578717024265 9.90221275892313 -0.010467732300543264 -0.675681797020875 1.1376851238445502
Ni 7.446594694431099 0.5894507184367599 7.235421816946404 0.4914298596149086 0.784576500541765 -3.0227585692163426
Ni 5.725080571182635 2.4693232565622063 1.4841072648556761 -0.11839750080500254 -0.4704218899046737 -0.5577003007073685
Ni 2.410588067895521 4.818381470006548 5.488942642119023 -0.3189245212219088 0.14529792474027234 -1.1564829732773436
Ni 3.713374395392902 0.43303346330738546 8.71524455702842 -1.336057302701983 0.8020072944237027 1.356658523892102
Ni 5.432641456287618 3.9010418676847687 7.900160453959902 -0.9196671457317322 0.29082853431664113 0.6343489997103592
Ni 0.10283520357477371 9.304405423304424 5.612148693317529 1.003350125873685 -1.5893407888853144 -0.49058782332958734
Ni 2.6042036464178984 6.946019068660486 3.9714919931940225 -0.3814768900328333 1.4251496267849648 -3.00021102293313
Ni 1.846886984573799 0.3321044861579137 0.3590276920736699 0.6251261955605105 2.016308207150779 0.45272447262491067
Ni 3.6830673779326775 5.563886892335774 8.064517958835085 -0.8523669778231773 -0.04182542067621829 -0.16340723274647342
Ni 0.10147941301175556 2.061641943810645 11.319368895363246 -1.7568080506337742 -2.5756085053554156 -0.6984085491944294
Ni 8.888793302245514 1.9065285513327526 5.200495367405371 0.5182819468107461 2.040217923888841 1.1109471936290738
Ni 6.911284016561992 8.247634657788687 0.48441754798823533 1.5442073868817856 -0.13254345328808143 -1.9552254809068454
P 2.293561438169824 5.573479393812282 10.277136056789956 -0.4908971270398901 -0.32111407267405984 -1.6316493198455382
P 0.7580785859279128 8.526610281438135 3.3040861498152565 1.1119866906371818 -0.002930800493549791 0.38900636564065905
P 1.0486888941930097 1.5514549336866035 6.7468405945968115 -0.35624099828418 -0.17056055596180303 1.2252854367630381
P 4.134726911036179 3.43711790602026 2.872382041043198 -0.5089539845416009 -1.5148525878687522 -1.863884984219635
P 5.657895295093239 6.161756541448324 12.289538066594274 -2.3416270619348056 -0.3130431227404673 -0.4406215187137895
P 4.968509782976963 7.9014076679806164 0.8974228878880273 -2.247537027526916 0.05975012347543904 0.10984755435246243
P 2.0432689045652874 6.676107225933723 13.760254539280531 1.144468465314971 1.3195017123361468 1.379909781110559
P 7.2218979004946835 1.0862563778298429 0.9149377003772681 -0.019023335180038205 0.8864209820840928 1.6447969129710898
Ni 6.791188919336428 5.734937432936054 0.11474274576194993 0.516030431772408 -0.010803518373407199 0.9313510098275637
Ni 6.272967245081965 9.25463960117581 2.4470763951162473 -2.100711610398524 0.711780085405329 0.3200018134464876
Ni 4.441894669930558 4.0755007675695145 4.843232280180087 2.3602019967235157 0.6739270191132974 -0.761578754095011
Ni 7.147820374328663 3.3357923884554213 10.32591524859938 -0.8468727874778255 -0.22391146077911758 0.5313896878372977
Ni 3.0308433675994073 2.429622007833158 1.0052365619633545 0.37872940919468323 0.32185583593609085 0.704089915849923
Ni 3.974647321927732 5.54135962016752 2.5564781191407366 0.1319814101370243 0.6852414156848521 0.5295235811628364
Ni 3.912550981168885 9.199662105016657 5.372798786889442 -0.538772353454614 -1.9136468861341107 2.8363343067494053
Ni 8.936208206197305 6.112481674119691 8.185360817986771 -0.5757540728852858 0.5595808055595329 -0.33827798604785614
Ni 4.702676641665409 4.472003417183099 0.5873745461191576 -0.05725255386456591 -0.25106873792019985 -0.3455668063997855
Ni 7.032370464825974 2.971277332348143 12.738459582544046 -0.5852329589099986 -0.5050122262850334 0.5588786372861858
Ni 7.8774641800431935 0.5249826883364771 12.929942340118055 0.5454901317944217 1.131662314689238 -2.0735790158477903
Ni 8.532803865068637 4.94439634914724 4.9199383028136845 1.855376432527992 -3.79961044742034 -0.11537979702460129
Ni 8.607476201857706 2.5099875320142897 3.0760810758420623 -0.44960495315932253 0.5736614520223152 -1.4402810831097648
Ni 1.048122407885342 3.771854665221137 1.9816975077848793 0.26990026880440615 0.0010569805096046312 -0.6016751636264218
Ni 1.20269763837095 1.9321714981931795 9.05240210105073 0.7818182210703374 0.46525885764649555 -0.962713326188929
Ni 2.000876845874817 9.062544094245675 7.354840907178152 0.2622430093694645 1.3932697473572329 -0.39543720886766737
Ni 9.333503936641623 0.6315113826372446 1.453278135848551 -0.2927833440501667 0.5954973169504841 0.12736782262441293
Ni 8.218290667051498 3.9043558125846247 0.8514336411438667 -0.7506487374460685 -2.4580342717826573 0.2309038329365507
Ni 9.164067882018198 5.810421733432782 1.018937033314299 1.6389075440698484 -0.12207520676690588 -0.8424047244041427
Ni 5.970463556787384 1.2579583776839394 9.124175916232234 -1.272650556310563 1.5637233454275263 0.04951636156257279
Ni 1.5847360042620842 3.6537894772647155 11.41023896397623 2.213902627301923 1.6289198367295175 -1.0288582974471183
Ni 6.289291492181257 3.925419661791404 3.0219542532882544 0.87900154969157 0.3734437353157117 -0.2577582341252335
Ni 8.230583419927889 0.046061945820311284 3.3964215296774087 1.4737853855147973 1.803734539981984 1.5518628465445143
Ni 0.2427374945479409 8.148461788192986 -0.048313728893290615 0.8115905672367635 -0.713017557356856 -0.3282445130712541
P 4.339606125642684 8.209500687844187 3.64111906684988 1.1445659101247838 0.1357727588586565 -1.48333600531771
P 1.064050114569267 3.52874706628552 4.1362913573891875 -0.8091590749771354 -0.18657107245744642 -0.07004482053322776
P 6.7479943383767615 1.6816995772578816 5.0032089576093055 -0.5876384830276976 -1.772842478388818 -0.6818352182167806
P 5.882261638683514 1.1535171854269277 11.20949793184724 0.015482154795999143 0.18459646522957887 2.1534001990414913
P 3.4088313563907167 7.655703673468189 8.144734308288532 1.0938665839977033 1.0655209429754746 -0.46430677814587135
P 3.357413282531407 2.9925111274472225 9.794428353307032 -0.41949193582402594 -0.45219816780779537 0.39187391699644125
P 3.6842664406172405 3.6380222750346296 6.697578001138177 -1.0807025358119196 -0.5123097883877112 1.394407974726734
P 7.138445025936761 2.848189299130401 8.202205288345272 1.864190688385512 -1.1164688947782515 -1.3626689917522403
