# total energy = -340862.3541058583 ev
CRYSTAL
PRIMVEC
9.31559678537073 0.00000000000000 0.00000000000000
0.00000000000000 9.31559678537073 0.00000000000000
0.00000000000000 0.00000000000000 13.63431753034683
PRIMCOORD
 96 1
Ni 8.52340789723548 1.4538386373649317 11.46163474058979 0.5893693496758753 0.47550007575852954 0.8567957030184922
Ni 3.3778168213965296 4.3580318788370205 0.7067044733098203 -0.1526116847928662 -1.6650376654979968 -1.374980976350374
Ni 1.4716407431285838 6.560034053719588 4.738579603436001 0.41142355699359473 0.04314285393606118 -0.38153165453016874
Ni 4.426371098032286 2.526371260539485 1.8139917255702103 2.547021694856659 0.48012497612505045 0.426168319402937
Ni 7.57887157609786 5.1350178733053315 4.6086717409057645 -0.019557096196321157 -1.2939372336034813 0.5704334320033209
Ni 2.9312457350030394 1.5226622676013848 0.34695475045229995 -1.3749002437111095 -1.1458805151711493 -3.6424008588441468
Ni 1.6498201659131868 8.18591313548176 0.5168349079177831 2.172070778867801 0.32180929896887156 0.30573707599735733
Ni 4.554469871635626 4.875019562544717 8.450413674246338 1.5780204787764889 0.8565031114787379 2.1425971948887166
Ni 7.50460763724499 8.424401732894248 11.858093504772402 0.49101282668214796 0.17878808607791788 -1.3158882839532757
Ni 2.4887641956688076 8.272818339390245 9.781682344795334 -1.0675996798813743 0.4440950790846868 -0.10088571717348431
Ni 8.083804877357537 5.10228286563737 8.614953199982725 0.25260831449317783 1.0233669353152441 -0.7641663123165291
Ni 6.155336575598005 5.037399732909041 10.375947562967905 0.6686410881240098 0.7719984067664383 -1.463137675992964
Ni 3.3012146677102336 0.9645182765866164 11.18472210045447 0.47438935919285397 0.646605448480209 1.5371695061983979
Ni 7.93684201993871 0.23758591606842627 3.045769820736785 0.1378185856440917 -0.5591720001568886 0.4637527054146142
Ni 2.82912816128187 0.4464369417974692 7.215499017588072 -0.6847307945970208 2.300344401135935 0.3397725683155116
Ni 6.206628252382238 8.8993667587789 1.2433806711627176 -0.586021773359881 0.9181702494712317 -2.362681311501944
Ni 5.249245723056196 0.7028506108532935 3.9158437808065854 1.3342531596137086 -0.47988869174452836 -0.7169300050373847
Ni 6.2601090944487625 1.5981279184602792 7.592842176837656 -2.4031970122278032 -0.964778436248074 -1.692272332844234
Ni 7.394189866645005 7.2603433697260344 9.756076563470083 0.738144948552103 0.21342573075644533 -0.5947501543718144
Ni 5.486895916743549 9.210563590354287 10.542367907727675 -0.46946621085962376 -0.7085422951943217 -1.0532210425621988
Ni 8.50443202625664 2.930835848737419 4.766994037240445 -0.11647688674352197 -0.638187913840475 0.14831434296909296
Ni 1.633005513425802 5.44365291572059 9.68881888508024 -1.0805073890819779 -0.30482716258857817 -1.5863709076237131
Ni 2.348368834096854 5.001972517723709 11.797979957680383 -2.174729813757203 -1.357995497535971 0.4702331709326353
Ni 4.086193444358143 0.12303947290201056 1.916194071223588 -0.9766703025896535 -0.7494305487682513 0.683777686655132
P 2.887145699061056 6.673507340117833 8.364449345629392 0.11478535797371199 -0.37461178748188384 -0.42662828975849104
P 0.2729618954705557 5.059160967374709 3.728971974511745 0.02086527348478342 -0.44332966167357196 -0.16274285968959712
P 5.972396882774037 6.90744992622071 11.450863115841225 -1.4593897789147576 0.24877968477570706 0.11600097554836797
P 7.836568934412832 6.126570012229006 6.4415331396496285 1.7792380975025162 0.5860423421851713 0.6193540689634236
P 7.7928228911547945 0.1030901220423239 13.602617892357197 -0.040474305964962556 1.9233443159275327 -0.6228973062299918
P 1.6648089613991712 2.370586532812873 11.740156184317671 -0.3003210471881086 1.3158116650790694 -0.3659147739285182
P 6.445210005764183 3.6164544683601503 8.544762971674306 -0.176788796259702 0.05317658402297938 0.5259824007787973
P -0.09104412363155535 5.232011868706246 11.018164816419597 -0.20926774272401383 0.3930607382156908 0.36326550923112927
Ni 7.357505045871974 0.7939878904543081 5.258102061072682 -0.013281804710570675 0.18281751895228515 0.8280692816180771
Ni 7.410473530106473 8.329131122928327 6.991255831025287 0.936106522234678 0.4859662653971759 0.6041272247113402
Ni 0.9116243171276853 3.719680598117885 6.153630889797207 -0.3952250928568613 -0.8278623078135936 -0.054552638434899596
Ni 3.082083880751368 2.9679678181638542 5.295050513239283 0.07187827419754073 -0.11401788368006817 -0.6649271296075322
Ni 6.285903982392014 4.149176195309504 6.388536708624293 -0.7755642697408256 0.8404751114815977 0.3709502794698966
Ni 4.356969900785185 7.052298143132814 1.5704140175461685 -0.555265980234263 0.5228675092988995 -0.7207437223565201
Ni 6.38556223851946 1.4468612552524378 12.157612304016384 -1.4235432015297935 -0.16862040151629668 1.462679248299307
Ni 4.99722156328129 8.969420047812214 6.5794449630758 2.0768970244774296 0.19558587436154704 -0.07525618953083812
Ni 0.10190238343171915 0.7643614974872001 7.495711242161637 -0.787221908584412 0.9439591855098775 0.48881761880304203
Ni 0.1904825316710788 0.7455989536784237 1.0022762541278174 2.551825544003205 -1.1537154378345356 0.6285532189641885
Ni 1.0892168573046952 8.799661924666724 5.918071116064518 -0.3524509351141285 -2.3510177591210866 -0.11809591040418373
Ni 3.1984170554120115 7.834090985625218 12.11162306501377 -1.0654664355884553 0.1179601561572678 -0.6103696060766262
Ni 3.991863709683762 2.7139128582547367 8.072156654936359 -0.29775662889504206 -2.0349402204296694 -1.2685900130879442
Ni 5.4424046257298375 2.710987760813718 10.246448655143594 0.9999272162350649 -1.1306809246125753 0.2635571001951977
Ni 7.732886340404748 6.06325189978759 12.437374585257462 1.7888833339017645 -1.952888862353869 -1.683732670804339
Ni 4.642315950835647 5.049966473189086 2.675257788727644 2.2174147542202394 -0.40945152086888836 1.273222369653633
Ni 3.795118302185941 6.3072180682042776 10.480181640315188 1.6991312647475965 -0.2523010676654042 -1.0825904968632518
Ni 0.3043256472680776 7.515600041641176 2.6010050285911084 0.04826654831587171 -0.24691640631472317 -0.726510192526652
Ni 2.131613524359199 5.948092490342133 2.082396431014822 0.701283042528747 -0.5171794577751867 2.113682311626579
Ni 6.171517767493068 7.129925012483161 5.155585779802227 -0.5565466467188996 0.18437149370296632 -1.1474699711454561
Ni 7.515227417763338 6.273225454948617 2.7439472743680757 -0.8602648925140153 1.399302583814874 -0.858554851801444
Ni 2.3983656429056044 1.6394053285276486 2.3848878372442486 -2.2765490984885504 1.0769672371392034 3.0463862359376113
Ni 4.663052469637264 4.4711791193421595 12.01484705458139 -0.04672671463257759 -0.12075957327927589 0.8095390840243736
Ni 6.177805795431563 6.802826456921088 0.17586729162262565 -0.39907789094404816 0.3414761812701796 0.04233115666804323
P 3.530611242503502 0.7862307928774408 9.165260910846586 0.9661938285383618 0.6211247877106013 -0.31456547292226467
P 4.6946602900747685 1.6272857369010074 5.7799422392295075 0.6845438753971953 0.31012543487304006 0.8493505595943566
P 6.540732136847642 3.093141494326175 2.3092312166479627 -1.6790599479190178 2.411778326138911 1.4097852285137529
P 6.272750359504375 8.199653640976992 3.0839190533497143 -0.5533222262443309 -1.7957980587437266 3.3445884370105046
P 8.189127016428102 5.35443744376952 0.9908702372272334 -0.17929382206974284 0.7594565655456855 -1.0505010725278745
P 1.5716343607460839 3.50906426676759 8.310526012707937 -0.5865624763546996 -0.38321444154923034 0.9441815859333288
P 4.229234435462737 8.965898752166657 13.417899852076252 1.2289826831089672 1.1923231229044045 1.3435561821821893
P 1.0065502500066053 2.695160561602601 0.6045868995886505 1.0611737217503723 -0.10575281545779854 0.6331338963563353
Ni 3.304456495447414 3.4102444143652755 10.195483955812161 -2.164271594538356 0.36877744018829395 0.3357426212205121
Ni 0.8082006967146974 7.423906620902489 11.700290087187609 -0.6623881652357624 -1.7931629351137248 -0.597250552196165
Ni 0.8947984859239654 1.494734107957518 9.765143433977547 2.0534963861653024 -0.731642628657211 -0.8756868834960403
Ni 0.43340442167012777 7.749235213044837 8.17220523457584 -0.2146297783668755 0.9518365313754252 1.1911908090721743
Ni 1.1752091327124783 0.3414240805455075 12.22935544233569 0.3276071365975713 -0.29526008772543344 0.521189093155212
Ni 1.0364253694121692 5.882650421797049 7.015469862166815 -1.4780503314387383 0.9084792474357128 0.3015040117526162
Ni 6.077048298864498 4.425290488786559 0.44516722593374036 0.2310105337177441 -0.7654454361392689 1.2791197089746744
Ni 5.93965255950913 3.0046433233399394 4.355483131512617 -0.2943226635128286 0.4194685387852582 0.025629270532330054
Ni 8.999807525049803 3.376680318569128 9.93864083773713 -0.2217216522166504 0.6378122756686113 -0.09928957633095803
Ni 6.044909489401075 6.395175934567649 7.539191790906716 -0.6129296534943186 -0.5750750445403902 0.2548755132607997
Ni 2.937310188614833 4.67269411247629 7.084159347807247 -0.10580860839639841 0.39487362305471346 -2.1975478400929833
Ni 7.58606321694011 1.720274025615176 1.4098159208775998 -1.3691013776411454 -0.5089069333537494 -2.50863512465866
Ni 8.716967370577795 7.741428742804157 4.769911682203907 -1.5043982253046477 -0.27745776943668987 0.45401593774282456
Ni 9.101105326239734 2.960617812173524 2.5030151958766753 0.9941712875878942 0.8771151313021346 0.08410386972945515
Ni 3.1497151145787443 0.05367088024422078 4.625278655581255 -0.6242923868053055 0.38874848399358214 -0.007615864674044947
Ni 7.1257236782605515 3.71836709894851 12.028890316977362 -1.382808699924909 -0.7940615572140647 -2.5358998739118843
Ni 3.86682976747563 7.030965426126658 4.001195143144489 0.46183311979439823 -0.05948941361488465 0.7407633600115565
Ni 8.561070855687833 3.5565179176101043 13.505813935133979 1.5512745781412125 0.18541664713802905 1.8978993934918669
Ni 0.8560744809794726 0.29924212601468925 3.6305191566290995 0.33146199156728723 0.5121100136720793 0.5498818331042142
Ni 8.040105412084229 2.8273023042804692 7.291210600206338 2.4820272922631443 0.4082132775864131 -0.14452196580619625
Ni 8.790318380929966 7.572536970174636 0.24007318045298684 -1.4428421589687217 0.5671473050528814 0.836586832170785
Ni 3.218864790708305 7.752141679291964 6.525193721141849 -1.2513052578655675 -4.046498828710606 -0.8760105853840462
Ni 0.9704895742289507 5.919558816896782 0.18734876485847143 -0.16610740528645587 -1.865540260434871 -1.4187442374792534
Ni 7.4481178573649345 1.1673747156809602 9.375133857560598 1.0666668836544597 -0.7484704988478271 0.905990419575588
P 4.429864446887006 2.5476760307548028 12.947202301152524 1.8524284056432614 0.38335636644373333 -0.6757190780167137
P 1.2107388194642155 1.4999508422472332 5.597214942015907 -0.25784693718429785 1.6137043053313433 -0.7023482505684678
P 4.522098172248556 5.201139980427468 5.3410118054510605 0.14242343140595473 0.09573913997553835 -0.5076764033807579
P 9.372794711167476 8.897252118272176 10.260941860872054 -0.8203474874937873 -0.6409055698819544 -0.5074704580175389
P 2.4287717513370857 8.091136252153976 2.651929670855672 -0.16763798299836938 0.8094812342032446 0.8294623053108617
P 2.9656202877334827 3.890193284615996 2.75203228095744 -1.7883624284012878 -1.1062873262595592 1.5655074339111426
P 3.3685012244506103 6.032864422550001 13.232336887152314 0.5759078248543308 2.26904250569886 0.9171760038787623
P 5.746251451314895 8.150905122158996 8.584507034484377 0.21258240891954358 1.886970148173873 -0.05822571641111263
