# total energy = -340855.6680967305 ev
CRYSTAL
PRIMVEC
9.40017142333473 0.00000000000000 0.00000000000000
0.00000000000000 9.40017142333473 0.00000000000000
0.00000000000000 0.00000000000000 13.75810106194113
PRIMCOORD
 96 1
Ni 7.785833159172349 6.911156588717448 8.963581603324908 -1.3872646788137333 -0.2845367877706584 1.7776419566599904
Ni 6.995682932058381 3.570598794483241 13.55475703220818 0.5192980467800864 0.17369035984003636 0.5214744856061148
Ni 8.557953857090597 2.6564415031618016 6.320912291625383 -0.9330199128895543 -1.2548302402996905 1.8897893627902227
Ni 7.40940328605317 0.4337586998688839 7.626597071728799 -3.9153468564534113 -0.789069503316112 1.813551783182722
Ni 5.115404200617831 3.1514545414551214 9.928506401594898 0.3340282096325667 2.2521135911540053 0.5687606722865882
Ni 0.05736548741908106 8.472769501735222 9.157254279535714 0.8183852215610938 0.7458847403985218 0.1189286907181242
Ni 2.382774306355243 2.037158195855234 1.8928674412939963 -0.3695631693143829 -0.12454166602952746 1.5486749357348362
Ni 5.4518551437738205 8.013016507244375 10.300318910407018 2.6739974242489755 1.9109307727545282 1.3090470926617261
Ni 4.868038684045693 2.562073180119139 12.78693033269275 -1.7565985057261295 -0.042482337533926835 0.12009725710492863
Ni 0.1689709051886422 1.6383841147599212 8.956523954461433 0.4291937364928221 0.32705974873453353 0.3612765038255585
Ni 7.322000490191961 6.698787911142009 4.4644902557770205 0.6151626565898953 0.766533526997125 0.5747899091998037
Ni 8.669966302291948 8.557756453486265 12.495383069419466 0.6229032197672627 -0.9607556882419261 0.021903227830994534
Ni 8.665651623511534 3.130398156992967 3.2982983826323946 4.1412802327585645 0.7286989726478547 -0.6141810094029164
Ni 3.162311739693419 1.888353478874922 10.296783505855137 0.1360640648468302 -0.26169690705800736 1.4966802878350998
Ni 5.381936667153508 5.596251180257369 4.906098098961038 -2.0200581611115145 0.271653504050087 -0.4100780987092937
Ni 4.364104882870864 4.495979890736739 2.7845301218931433 -0.31812130859432314 -0.3013803416905584 0.3736885043366661
Ni 5.681228731836777 0.38847995313794464 0.32151407042815017 -2.1199270069847103 3.495108529381665 -0.43691450217584754
Ni 2.962558092452002 0.30847133228474 5.854209750244864 -0.13366239738387303 -0.42513319327020327 1.2757088835209125
Ni -0.10942551796743008 0.3750837685410626 7.026675297938614 4.528406607767692 -1.2021948734921617 -2.0078883585182004
Ni 1.5738049356282253 6.855112765430232 10.164898157800465 -1.8365238185978627 0.06016278553282542 -0.049735419551914344
Ni 5.301696802078084 5.785636438185502 9.904443842243905 1.5346354269226345 -0.7436630501568547 -0.12056648343186331
Ni 8.143462689021748 6.9030630409398075 0.658999032463979 1.8830852112971699 -0.8761849061783813 -0.7705359632882988
Ni 9.019774889341118 5.604072123057598 2.660170551249363 1.0444522952306334 -0.3912704790844875 0.8403645540456625
Ni 2.272933300801551 3.4338732980537627 8.836182017174405 -0.5404543691427274 -0.08417843172113244 0.8812823753059467
P 7.625400429879677 2.418494958567826 9.26577832104336 -1.2369795852715149 -0.06631389273588578 0.22469256191951623
P 2.440942568431944 2.485433580779879 12.251217371271848 -0.21478918676287526 -0.205907053781897 1.2691320016343435
P 5.701326298792172 6.414639522962547 12.853712912055665 -0.6791455871997594 0.49839163564472233 -0.6332318553867804
P 2.0362557793782847 4.639595712974591 2.6329429541089033 -0.16817945732413617 -1.1955259461124186 -1.171905221369685
P 4.819467997208217 9.437396314564385 7.309252917437886 0.3215169645394334 -0.17789822727379684 -0.3353201889711129
P 5.801052719666722 0.8575701381137268 12.036192205192387 1.0155099011646704 -1.2173201591693745 -2.5694771956466975
P 7.912707275728462 7.656938005714734 6.869612530177051 -1.1476980279958622 0.5067726606195659 -0.8158961365906529
P 0.901189754551108 3.2818255218594135 5.390534064130779 1.9727076968520088 0.12224901334060882 -1.4901591988871303
Ni 1.6470416728356552 2.011382925232365 7.0491971691586475 -0.4627669444625772 0.43731893670311783 -0.44797358820348654
Ni 2.365459190203775 5.453039565399816 7.902461088646431 -0.6936800333705085 1.21542371347761 -0.5774330032496056
Ni 3.0609684892976676 4.59941937940707 11.919785179751724 -0.009102219411584324 -0.14787982653483564 -0.43209034131432683
Ni 3.611536541953188 6.94103033417313 11.28395475031626 0.5279701206327875 1.2500248484912473 4.232929776045762
Ni 6.069380618984664 7.601740197874658 0.9483776761410935 -1.3851746290539242 -2.077625675113338 1.4772571461134816
Ni 3.9824955151808603 8.308698906019847 1.8466533774853855 0.15276235143811756 0.652098096163664 2.5133050193305038
Ni 3.004952866525357 0.43094334846423427 8.57437877698824 -1.3629749530284334 0.28815304436700695 -2.055669482557221
Ni 0.26300646215543 4.8492007400893735 11.782878260009692 -1.275127814206462 2.8620679640700835 0.7338447785148523
Ni 5.692584139171724 4.45519254601295 11.910814595960547 -0.9584992881075814 2.086705525927419 -0.6253485959839618
Ni 6.99412250356699 5.219670904392033 6.512108022610397 -0.8099363194627922 0.3943362624940048 1.431604124161057
Ni 6.85235851514121 3.0654147704809707 4.327335171503828 -1.939118290932338 -0.7024202414569839 0.5345022653243505
Ni 9.36729923468301 4.899284854560069 9.457387659580307 0.43303059374040903 0.26796139991048046 0.758869325583648
Ni 9.23162655747664 1.250175826582225 1.7912224453887649 1.2746629587549017 -1.3464718131670876 0.3377043729325732
Ni 3.7358632119962456 7.728539113057693 8.99457866929096 -1.1056854310095021 -3.2544260197917954 -4.519445541919662
Ni 7.616630069744325 3.591777381176649 11.15070731739169 0.46839663194452885 -0.6522567332287154 -0.7829207101058968
Ni 2.9612608687663875 6.043182340638225 1.2205502456577049 0.0446502917195231 0.956998535192339 0.3453366926668504
Ni 3.9896114451084723 2.3714658998784697 7.463838739973655 -0.9789187323041979 -0.28074595326965845 -0.8338565777238155
Ni 5.7297148171295404 7.063448769374305 7.595999513057231 0.09736279162189038 0.5051400101121494 -0.04358071280442817
Ni 4.9204352407385725 4.951606209879868 0.5265421539739042 -0.09891316682814578 -0.8482372719255199 -0.8290442439368367
Ni 6.214124461818704 2.4111534245209763 7.555137906977526 1.8494700943458857 2.7875784775019414 -2.2125767094016475
Ni 3.1912454679856115 0.8118411231614764 0.052259314187008694 -0.5414717546636482 1.3734524555209895 -0.4846853418022234
Ni 3.1623493403799587 4.4033693997898 5.786795479348085 0.14978501397734847 0.402038773344585 1.4729644322753985
Ni 5.245258171582204 8.4728447031083 5.310489722625361 -0.6168104766059634 -1.7173768412213455 0.28472344986016773
Ni 4.203737954779637 8.280009582190162 13.424302390276337 -0.6472955325686981 -2.8114064331594744 -3.1771741399871667
P 1.9977902770483138 8.03868837597926 13.291357642878411 0.14774587206013262 0.5435538340036574 0.47553915652658096
P 6.739857261014844 0.060212799407289304 4.178858520513573 1.1314733386068838 0.8545233620445477 0.44473014156552443
P 1.674208168860488 8.21305215963484 7.400166677404727 0.373472274560802 -0.03699688893932338 -0.010325036075091895
P 0.4354761112265783 7.55707058226566 3.1818499964365388 0.324375517034151 -0.46750265937534974 -1.130480121455679
P 5.3958771216880494 2.6834481962688415 1.1566817195016068 -1.645232972067244 1.573178320192839 0.057010870167405046
P 1.1045483676145056 1.1063061997102301 3.6347662460973287 -0.39256374397461424 0.3488282507598766 -0.3224309917132705
P 0.347863691537911 0.5855648916522165 10.893582542628211 -1.1772065789779405 -0.486740167448723 0.5590989808271081
P 3.2257910987438327 5.588270434539347 9.876555413037513 -0.5648824202781045 -3.3595064917729176 -1.8575194470129235
Ni 3.123771035990369 2.545782682675874 4.545305411356498 -2.0784180891076462 -0.3400098811372983 -1.324520505706977
Ni 5.509055188172128 0.9714889381226345 2.538906457124952 -0.5232351770509635 -0.16483650899383226 1.665723635821428
Ni 3.373213990493816 7.00096582851719 6.454077003039565 -0.3630559643234844 0.49280719957840935 -0.6528817684072239
Ni 2.7408832449580207 5.918432662871597 4.153405675777781 0.39636717688110445 0.5279626644336198 -0.08406813139551328
Ni 4.589737202623134 4.59309306389679 8.00447739133124 0.5925606029196633 0.45835955942350093 -0.8618324941114512
Ni 7.332152675557642 2.2841007047038 1.8206647229664046 -1.1005118572283625 0.1540036800443864 -0.5866401236701704
Ni 1.7515339807290948 8.762482791522539 1.6465697842195837 -1.0873686349781853 -0.07481113157361954 0.2423886936476987
Ni 7.492670006395027 9.459768723055424 10.638314301762623 -0.20658711056805715 0.6529028514531465 -0.9109953289893471
Ni 0.81196332539273 0.7729601332452436 13.535137933989002 0.5823088432846681 -0.6467838830396023 -1.3507149047141578
Ni 9.305681109616305 8.90225394356172 4.759601124117091 -1.249848727924699 1.145480194408937 0.09755690991056747
Ni 0.46705504781682855 6.569657753393522 5.116363018124589 0.5480591780731787 -0.5628255377490758 -0.319858603000404
Ni 0.5454007783078211 2.9369144242320213 11.02852200644706 1.488678757686862 -3.3738545329644736 -1.138701995144839
Ni 1.2320616958417914 6.02387438810016 13.346417268195454 -0.04394786633585979 0.6533432814246748 0.6414992376018952
Ni 5.052112845000114 1.4688520193246761 5.213990380673069 1.8043742304485118 -0.7041855608875227 0.15288910682396895
Ni 2.2554019807024805 8.187934901026413 4.109021825386483 0.9049879464530027 0.9146342112935151 -0.2934824269997203
Ni 7.833821035368464 8.266482735207555 2.736596766692511 0.0626770673142469 0.5692972615163486 -0.8855370368172426
Ni 0.21884257578038877 3.0931734773188015 13.498857031546978 -1.1072152373904673 -0.05539158939642718 0.04827220474282654
Ni 7.2058895701577965 4.573277502090441 8.780172974522237 -1.3866584126883024 -0.8142434314785784 -0.040976699522677816
Ni 7.847188079433277 1.5110399896220634 12.662378998547618 0.1553439961223647 -0.4943125804793422 0.2942499012933642
Ni 2.275151741307385 3.8076617229435374 0.30459752155400177 1.2706245270194698 0.4728222718160502 0.5470407641109933
Ni 6.743278923489944 5.266784564626102 2.1318179242185784 -0.5315778925887039 0.11518927828035 0.07030810149694344
Ni 8.494436897353642 4.559515650816961 5.134510049465745 1.8126416126636267 1.278846914929262 -1.486139021984144
Ni 0.14730162953589324 6.411697269240826 7.460110631903258 0.6863572744568502 1.361510966888397 0.4071382993546795
Ni 5.478626832589987 1.17610247409929 9.1405247940771 -0.41666757900135337 -3.6978307576776768 1.8135152735178317
P 3.6756081118165995 0.5441872161497567 3.7235198466224717 -0.40326904620726034 -0.6008069020888556 -0.6220496135177158
P 0.3971215309218992 4.35246747038687 7.496019287548539 0.4800951513283796 -1.9302742102781465 -0.5665734348272823
P 5.15269468149344 6.936433650243669 3.056486487462152 0.4884028998631266 -1.693436528355664 0.3307523670947723
P 3.4390339922813173 8.961108418167768 10.504420137029573 -0.1927661455245648 2.469800925400282 2.596737316914231
P 7.4697147872626255 9.142061722139406 0.6860555464806835 5.353799113884553 0.10499716823869659 -0.13321451121317704
P 5.294261266314886 3.548921998693184 5.6621050226627565 -1.0388097522328754 0.8623641982452052 1.5896724611931203
P 8.27031800523459 6.59379739415192 11.240891624039664 0.5880452315478131 0.35607927589533517 -0.5691357962378198
P 8.573097533594405 4.704823503949094 0.7001934046195584 0.39152244719429347 0.699047725440325 0.4511172760387908
