# total energy = -381162.93396997155 ev
CRYSTAL
PRIMVEC
9.35014641615617 0.00000000000000 0.00000000000000
0.00000000000000 9.35014641615617 0.00000000000000
0.00000000000000 0.00000000000000 13.68488440733755
PRIMCOORD
 96 1
Ni 0.5378952219079611 1.2172488086512292 7.139377212323644 1.1595896372271255 -1.20173541735724 0.0848669731477248
Ni 8.79763689594976 2.5785366225432482 10.692780668506376 2.3747930071638135 0.4643751694899615 0.19355084620938925
Ni 0.2819789099870275 9.030829547082853 5.400479996143318 -0.09121322708072678 -0.6552088738785038 -1.4015471568746767
Ni 6.483933819945956 1.8455038453366648 3.2117332115993267 1.2523442406530432 0.17073384831487368 -0.13081078686769088
Ni 0.6336771865808676 1.2437938742713917 1.0902392250427053 -0.8620800913458831 -0.5522670455069392 -0.2781105725293404
Ni 9.185724072290183 0.8237320022982572 3.0664674671512935 -0.6844392314985309 0.18425913649481815 1.740876981225815
Ni 0.33326165792887485 5.259307745787749 10.699485658487433 2.953452683731668 -0.3028337863076333 0.8547755872646698
Ni 6.186299959846974 3.2062213002984863 6.091374468584003 -1.1500598433598193 -2.356253039378097 0.19258642541359092
Ni 6.968851112370352 7.074068309772144 10.182881654939342 0.4894215709356281 1.0924452781701441 0.22291695807633222
Ni 3.692877719952665 2.880125594568024 5.8962144729340284 0.79547977771783 -0.0403938304360143 -1.0302595486700192
Ni 2.9060348502332123 1.3534523912116045 8.099713918462694 -1.6914722055404414 0.20193624205960703 -0.39984099436231785
Ni 0.11034949275892725 2.2360968609113967 4.97013109310456 0.3073668982912965 0.6406345756087548 -0.624749271837066
Ni 8.77285900799857 0.864974563039354 12.646160892880047 1.8850539049877666 1.2591489222797023 0.6054539139425636
Ni 4.876933508895695 7.104652638635669 11.37330208853459 -0.3634388015841999 -1.3490431734386894 0.63063581252483
Ni 6.463905806364276 4.113821310731005 0.5585665255617318 0.346369504806739 -0.2139353234030122 0.23754087863709414
Ni 0.2931831904141641 3.594822734690726 2.54202243083495 -1.4636099876436923 -1.7657734873571784 0.394292810850579
Ni 3.7387588883211524 3.322406219423579 9.837132876497707 0.21354528705344514 -0.9929556700132384 -0.5215320783169276
Ni 6.432461264032256 9.255448113970195 1.4734512350519013 -0.7834246463255088 -0.24174103276137077 -0.4541995145085403
Ni 4.157795049234571 1.6688047787322868 3.3843817947846646 -1.2792734609437195 -0.20052393509311273 0.6617839559928603
Ni 1.3217460447804772 5.880989629556321 12.76018312314359 -0.899133801665071 0.14600266411678078 0.5035181582380103
Ni 8.714869400046387 5.417353270330759 0.6501568196050086 0.9309023523259192 -0.14307109229228263 0.11602694369029697
Ni 0.886989482730327 2.7077930463308935 8.842145462827217 0.7015416955067725 0.192468668888804 2.179740636708233
Ni 2.592963898433319 3.745612545629916 3.9862011625627787 0.2640718350480871 -0.878279583923881 0.03530818838299081
Ni 7.633889624980309 4.900580029132888 10.283794044940104 -2.8551828069144762 -0.741420276869265 -1.2169576336236332
P 2.245951915213493 8.828838334475467 6.482830502671147 0.281768738107218 -0.30167499011284177 0.7998683937038289
Ni 1.760492314298089 3.4305032619155473 6.88312710017635 -0.0007093673621987783 -0.385651076015181 -1.3133464913680286
P 4.806143550526463 4.070305729400877 4.177297584588758 0.5872798141366982 -0.17365642127830738 0.7768500784317847
Ni 6.867074768842536 2.0070650249248247 11.46088584484689 -0.37373761240704667 -1.6255352365280005 0.4816247005990286
P 2.2044092147730625 0.5943972215684329 2.4120021000866965 -0.5622897198502639 0.994284673237307 2.5091745421018983
P 9.085219348672316 8.046053428292172 11.939856444163 0.1447939885206603 -0.5351643243883815 0.6766307911977056
P 8.92423787816075 5.61845621903046 8.799722913610859 0.199702724743398 0.5255041755907982 -1.5826248103177194
Ni 7.272749570555106 6.421605744065714 12.408577412999076 0.431160887521522 0.09871364922282999 0.272949082933059
Ni 3.8918862358595105 6.31999770317304 4.525837381729801 -0.32414900284564174 -2.673110650768648 -0.08970553218694874
Ni 2.4201170921443715 4.842281866349615 8.616002822077217 -0.21119786986719113 0.8527971233820604 0.8976497609203767
Ni 5.089004179318698 1.8986126768697826 7.984185379614647 0.9740968854355223 -0.07055852694485266 0.2698323916809482
Ni 1.1046449955960636 7.106475917183022 7.991384057325449 0.3400687593996917 0.1033560330908478 -0.028120412385299956
Ni 2.445063282730702 3.0415558721066303 1.4095570096502177 0.7819750583631758 -0.16661339838859693 0.41939371968326483
Ni 6.4521807227828445 6.693330348499508 8.035777617402225 -0.5544956777271418 1.8098488804098378 -1.419059197616511
Ni 3.476347029698448 8.6253884990302 4.369871329745412 0.12203278356474469 0.1466482681205797 -0.3891637171541298
Ni 5.617221999706099 7.211730515170401 3.4633017054458057 1.0355128266491584 0.4293631721911509 -0.844398872016036
Ni 4.791117865267005 2.037368849396451 1.168359698186931 -0.8344417608033243 2.2501909202099957 0.1968691119493448
Ni 1.8531055143571622 8.278395216103167 13.09837791831135 -0.8175293013187017 0.3294557597705358 0.48610870451231114
Ni 5.1140999722473754 5.268227785450177 9.349704134751164 -1.2063906567410643 0.9133314333216916 1.2054483474324529
Ni 5.079513780726072 7.7626691913017245 5.955018478637362 1.0614516580021074 1.3209505289675316 0.35523209740369144
Ni 4.726227849274076 0.8803275034226956 5.957002579702736 0.6312101969710613 -1.3359084358289444 -0.9004229527901396
Ni 7.174731985878754 4.893436517285828 2.979992638201638 -0.6171658030628533 1.0414962979261029 -2.030871706787251
Ni 7.862697057453361 8.14711916069384 2.9877794401207893 0.9884449266270784 -0.6486584743544958 0.011237006366400003
Ni 4.517803735945777 4.546863990946645 2.0944168976064885 0.6777193962761942 -0.07535260589938636 0.4202627525517795
Ni 6.257080568069809 5.654921789977495 5.80235022328708 -0.9489345272372818 -0.5620837744870448 -0.4510254876559329
Ni 3.5794230435754013 0.22744418112841638 1.0117587712622076 0.5070459688856107 -0.33852018396564926 -1.7661959196065777
Ni 4.642310285363911 5.548797628375226 13.32452055906135 0.7056701158528492 0.05860341146550553 0.5120362230113504
Ni 7.575853266296144 1.055762430234243 5.922763278612749 -0.789545414511266 0.08474330308566697 -0.6145833870476577
Ni 1.6585757185743235 7.621154725588037 10.687429579723558 -0.8829584774567891 -0.4277531473915537 1.8690904396799746
Ni 1.3163323100168018 8.108577857246743 3.065386590227838 -0.5276916701604203 -0.7176087762719641 -0.16131589743508346
Ni 5.737885638955199 4.066883575819694 11.408212730135856 -1.281128254764271 0.7746422721471884 0.5414879526135642
Ni 8.214178410650797 9.2742793088131 10.368708334456155 0.7037716132785556 -0.9593603505562962 -0.34375109334728543
P 3.197376061807231 6.673115331989895 9.793915564837633 2.055625773803479 -0.33177258082917055 -2.1401893567781722
Ni 7.9247259286489085 4.117701621485626 12.281608970034698 0.9919151445638658 -0.6573274628834035 2.2842474955740726
P 6.149684786557592 2.5696726837591997 9.63871528984313 -0.23834280571309918 1.8559536451877003 -0.2672438050181656
Ni 0.43907445965613506 4.87548423620421 5.305205744419751 0.9114982367676947 -2.293481612577831 0.7183777932275047
P 5.099794248260461 8.086838766874472 0.08848324039566138 0.7310906128084829 -1.2488580818766557 0.5557197799422301
P 8.694598282658394 6.200166226953243 4.214219442679951 -1.0739906710093825 1.1046963276233557 -1.0342807540142704
P 8.048970673967935 2.462660258249246 1.3609455985339005 0.41976164454564485 0.36664599566758793 0.6576701909348028
Ni 3.192102579239506 5.386376235318572 11.471847021467715 -0.30742114856799957 -1.4034299757196862 -0.44569764768511627
Ni 6.548982788427629 1.865419657161584 0.010119663445122138 1.603312163463742 -1.202151678959052 -1.1051763525835676
Ni 4.4902301542219805 1.9915157314671528 11.636694777514304 -0.22778405636064641 0.3163999550278422 1.0302137830337483
Ni 4.664105476614562 4.318131359644767 7.2100596440093145 -0.9795193420026743 1.5314503443264333 1.6119472134309207
Ni 3.7108487013270754 7.537162360506699 1.9977466690258976 0.15348380298517436 -1.1941768882836916 -0.021422431539834075
Ni 4.120413163940662 8.66099385650874 8.350557775963432 -2.464965708795168 -0.22727883458945375 0.444231347552235
Ni 2.3326371224570734 1.1458791412054035 5.154069978063884 -1.0095302865424678 0.8816757540896235 -0.3683233833700108
Ni 2.521070622789279 0.9179085468348542 10.765911903533336 -0.12154401685378424 0.15996066895876965 -0.38036180259178365
Ni 1.3613532649167956 5.38753565347176 3.128022285924529 -0.042490307953726825 3.267439144222011 -0.5343179172276863
Ni 1.0360803720692406 9.222918954656159 9.352825213618374 -0.8323622525664761 1.6494238702201398 -1.9996302322744657
Ni 8.412878371726555 8.737234950227235 7.36713462335635 -1.213516212042252 -1.0720777702573858 1.5958749904594063
Ni 5.554716271044322 8.952868026427371 10.445344004352588 -0.15927058487028053 2.297823177375978 -2.220825836784317
Ni 0.4433259712227035 3.3902602318242545 0.18501134675102257 -0.3070992464522066 0.22738887780475675 -1.507019464977579
Ni 7.369458134735924 7.649036862142924 5.2400520542984355 0.5559198117681781 0.8801225506698908 0.3696387597473247
Ni 8.82182572467796 3.159751072707008 7.03928576517651 -2.0930777480023504 1.649620302501662 -0.31432096101162643
Ni 6.778884188029091 6.353779782104229 1.1025169022761803 -2.6282053056155252 2.079120771601626 0.6735380112049949
Ni 2.684333529021634 5.543561546393088 1.0213950321386216 0.3572280447877977 -0.9409479094873795 -0.1706322897400029
Ni 1.9949939859267163 1.5500392192017118 13.13102956454318 1.8125431394125495 -0.21151565821792606 -1.5906708205506475
Ni 6.981922617032905 9.036364833749685 12.166176737694537 -2.3622290544558733 -1.6447076956913933 2.9057975437475503
Ni 6.873554420295433 4.409042833059646 8.090626511179766 1.0515529108311568 -1.2810727189359874 -0.4139236977076291
Ni 1.776611966685958 6.799501260833761 5.229747257954658 -1.785391775808738 3.3522580377406204 -0.8854383064558493
Ni 8.051672866276574 1.437257753365009 8.84413049890723 -1.0640672412480836 1.1492643440417174 -2.359359703327879
Ni 3.7659771644818756 6.573227718034208 7.347263692234134 0.8769593224505606 0.47855583186571776 1.9178511540234455
Ni 8.436777345916457 6.159399588663738 6.799198316090509 0.190131279004879 -0.13288746689106148 0.013440955996254271
Ni 8.484322840343554 8.019358760329663 0.4767303042394672 0.9633653579506312 -0.12549168864762258 -0.14325389772705005
P 3.64695915099859 3.4735045851938584 13.172248749918287 -0.10370904555489235 0.006182217551311933 0.08199967890225879
Ni 4.016925743622255 9.179244420837287 12.32831575633001 -0.4457498410792904 -0.12107479052684954 -0.2095996721421358
P 2.5646236047049946 5.377764750487234 6.326905591330904 -0.6172357370688403 -4.037446745810667 0.3798658367919716
Ni 7.603277245677593 3.9967387775518324 4.830162206590244 3.0140708116343577 -0.7422517716316248 0.20793025485951286
P 1.0262814186455242 6.741838908005462 1.2859649045496786 -0.9457026505635454 1.0329147269046792 -0.533799325720055
P 6.051022041779869 9.059319443153523 8.165004120721402 3.212613197521067 0.11572303929663297 -0.37951693809298515
P 5.934042360211059 9.25821575730361 4.227164720366148 0.13887659459496082 0.4093479054114886 0.1062850338121847
Ni 1.7855974573731634 3.2059875466385694 11.480933493736002 0.19131141535590923 0.602697177133033 0.1073471565281119
